MODEL 1
REMARK VINA RESULT:      -7.4      0.000      0.000
REMARK  10 active torsions:
REMARK  status: ('A' for Active; 'I' for Inactive)
REMARK    1  A    between atoms: C3_4  and  C4_5 
REMARK    2  A    between atoms: C7_8  and  C8_9 
REMARK    3  A    between atoms: C8_9  and  C9_10 
REMARK    4  A    between atoms: C9_10  and  C10_11 
REMARK    5  A    between atoms: C11_13  and  C13_15 
REMARK    6  A    between atoms: C13_15  and  C14_16 
REMARK    7  A    between atoms: C14_16  and  N1_17 
REMARK    8  A    between atoms: N1_17  and  C15_18 
REMARK    9  A    between atoms: C15_18  and  C16_19 
REMARK   10  A    between atoms: C16_19  and  N2_20 
ROOT
HETATM    1  C8  UNL     1      24.227   0.409  53.090  1.00  0.00    -0.040 C 
HETATM    2  C11 UNL     1      23.838   1.659  52.907  1.00  0.00    -0.075 C 
HETATM    3  C12 UNL     1      24.717   2.848  52.853  1.00  0.00     0.044 C 
ENDROOT
BRANCH   1   4
HETATM    4  C7  UNL     1      25.603  -0.021  53.274  1.00  0.00     0.013 A 
HETATM    5  C6  UNL     1      26.506  -0.518  52.454  1.00  0.00    -0.010 A 
HETATM    6  C5  UNL     1      27.844  -0.862  52.963  1.00  0.00     0.044 A 
HETATM    7  C4  UNL     1      27.783  -0.424  54.394  1.00  0.00     0.089 A 
HETATM    8  C19 UNL     1      26.386   0.042  54.524  1.00  0.00     0.167 A 
HETATM    9  O2  UNL     1      26.096   0.414  55.663  1.00  0.00    -0.292 OA
BRANCH   7  10
HETATM   10  C3  UNL     1      28.769   0.622  54.735  1.00  0.00     0.023 C 
HETATM   11  C2  UNL     1      29.050   1.828  54.289  1.00  0.00     0.087 C 
HETATM   12  C1  UNL     1      28.267   2.418  53.171  1.00  0.00     0.082 C 
HETATM   13  F1  UNL     1      30.066   2.476  54.897  1.00  0.00    -0.212 F 
ENDBRANCH   7  10
ENDBRANCH   1   4
BRANCH   1  14
HETATM   14  C9  UNL     1      23.255  -0.711  53.129  1.00  0.00     0.076 C 
BRANCH  14  15
HETATM   15  C10 UNL     1      22.920  -1.021  54.560  1.00  0.00     0.395 C 
HETATM   16  O1  UNL     1      22.124  -1.582  55.287  1.00  0.00    -0.429 OA
ENDBRANCH  14  15
ENDBRANCH   1  14
BRANCH   2  17
HETATM   17  C13 UNL     1      22.425   2.057  52.725  1.00  0.00     0.064 C 
BRANCH  17  18
HETATM   18  C14 UNL     1      22.265   3.477  52.222  1.00  0.00     0.273 C 
BRANCH  18  19
HETATM   19  N1  UNL     1      21.788   3.590  50.885  1.00  0.00     0.085 N 
HETATM   20  H19 UNL     1      20.815   3.955  50.807  1.00  0.00     0.315 HD
BRANCH  19  21
HETATM   21  C15 UNL     1      22.722   4.240  49.989  1.00  0.00     0.291 C 
BRANCH  21  22
HETATM   22  C16 UNL     1      23.662   3.246  49.364  1.00  0.00     0.182 C 
BRANCH  22  23
HETATM   23  N2  UNL     1      25.012   3.775  49.310  1.00  0.00    -0.260 N 
HETATM   24  C17 UNL     1      25.259   5.076  49.023  1.00  0.00     0.135 A 
HETATM   25  C18 UNL     1      26.617   5.273  49.046  1.00  0.00     0.161 A 
HETATM   26  N3  UNL     1      27.167   4.083  49.348  1.00  0.00    -0.143 NA
HETATM   27  N4  UNL     1      26.196   3.212  49.500  1.00  0.00    -0.067 NA
ENDBRANCH  22  23
ENDBRANCH  21  22
ENDBRANCH  19  21
ENDBRANCH  18  19
ENDBRANCH  17  18
ENDBRANCH   2  17
TORSDOF 10
ENDMDL
MODEL 2
REMARK VINA RESULT:      -7.2      4.563      7.384
REMARK  10 active torsions:
REMARK  status: ('A' for Active; 'I' for Inactive)
REMARK    1  A    between atoms: C3_4  and  C4_5 
REMARK    2  A    between atoms: C7_8  and  C8_9 
REMARK    3  A    between atoms: C8_9  and  C9_10 
REMARK    4  A    between atoms: C9_10  and  C10_11 
REMARK    5  A    between atoms: C11_13  and  C13_15 
REMARK    6  A    between atoms: C13_15  and  C14_16 
REMARK    7  A    between atoms: C14_16  and  N1_17 
REMARK    8  A    between atoms: N1_17  and  C15_18 
REMARK    9  A    between atoms: C15_18  and  C16_19 
REMARK   10  A    between atoms: C16_19  and  N2_20 
ROOT
HETATM    1  C8  UNL     1      22.708   1.713  51.599  1.00  0.00    -0.040 C 
HETATM    2  C11 UNL     1      23.729   1.156  52.228  1.00  0.00    -0.075 C 
HETATM    3  C12 UNL     1      23.694  -0.100  53.009  1.00  0.00     0.044 C 
ENDROOT
BRANCH   1   4
HETATM    4  C7  UNL     1      21.356   1.181  51.564  1.00  0.00     0.013 A 
HETATM    5  C6  UNL     1      20.610   0.690  50.597  1.00  0.00    -0.010 A 
HETATM    6  C5  UNL     1      19.245   0.224  50.893  1.00  0.00     0.044 A 
HETATM    7  C4  UNL     1      19.143   0.403  52.377  1.00  0.00     0.089 A 
HETATM    8  C19 UNL     1      20.442   1.020  52.712  1.00  0.00     0.167 A 
HETATM    9  O2  UNL     1      20.559   1.303  53.907  1.00  0.00    -0.292 OA
BRANCH   7  10
HETATM   10  C3  UNL     1      18.902  -0.857  53.109  1.00  0.00     0.023 C 
HETATM   11  C2  UNL     1      17.872  -1.656  53.290  1.00  0.00     0.087 C 
HETATM   12  C1  UNL     1      16.559  -1.344  52.663  1.00  0.00     0.082 C 
HETATM   13  F1  UNL     1      18.079  -2.746  54.058  1.00  0.00    -0.212 F 
ENDBRANCH   7  10
ENDBRANCH   1   4
BRANCH   1  14
HETATM   14  C9  UNL     1      22.857   2.981  50.845  1.00  0.00     0.076 C 
BRANCH  14  15
HETATM   15  C10 UNL     1      22.330   4.114  51.679  1.00  0.00     0.395 C 
HETATM   16  O1  UNL     1      22.646   5.094  52.324  1.00  0.00    -0.429 OA
ENDBRANCH  14  15
ENDBRANCH   1  14
BRANCH   2  17
HETATM   17  C13 UNL     1      25.092   1.730  52.242  1.00  0.00     0.064 C 
BRANCH  17  18
HETATM   18  C14 UNL     1      25.417   2.467  53.527  1.00  0.00     0.273 C 
BRANCH  18  19
HETATM   19  N1  UNL     1      26.768   2.352  53.959  1.00  0.00     0.085 N 
HETATM   20  H19 UNL     1      26.877   2.015  54.939  1.00  0.00     0.315 HD
BRANCH  19  21
HETATM   21  C15 UNL     1      27.623   1.664  53.014  1.00  0.00     0.291 C 
BRANCH  21  22
HETATM   22  C16 UNL     1      28.641   0.810  53.719  1.00  0.00     0.182 C 
BRANCH  22  23
HETATM   23  N2  UNL     1      28.434  -0.594  53.418  1.00  0.00    -0.260 N 
HETATM   24  C17 UNL     1      27.289  -1.043  52.852  1.00  0.00     0.135 A 
HETATM   25  C18 UNL     1      27.389  -2.403  52.692  1.00  0.00     0.161 A 
HETATM   26  N3  UNL     1      28.598  -2.751  53.167  1.00  0.00    -0.143 NA
HETATM   27  N4  UNL     1      29.199  -1.662  53.591  1.00  0.00    -0.067 NA
ENDBRANCH  22  23
ENDBRANCH  21  22
ENDBRANCH  19  21
ENDBRANCH  18  19
ENDBRANCH  17  18
ENDBRANCH   2  17
TORSDOF 10
ENDMDL
MODEL 3
REMARK VINA RESULT:      -7.1      2.817      4.060
REMARK  10 active torsions:
REMARK  status: ('A' for Active; 'I' for Inactive)
REMARK    1  A    between atoms: C3_4  and  C4_5 
REMARK    2  A    between atoms: C7_8  and  C8_9 
REMARK    3  A    between atoms: C8_9  and  C9_10 
REMARK    4  A    between atoms: C9_10  and  C10_11 
REMARK    5  A    between atoms: C11_13  and  C13_15 
REMARK    6  A    between atoms: C13_15  and  C14_16 
REMARK    7  A    between atoms: C14_16  and  N1_17 
REMARK    8  A    between atoms: N1_17  and  C15_18 
REMARK    9  A    between atoms: C15_18  and  C16_19 
REMARK   10  A    between atoms: C16_19  and  N2_20 
ROOT
HETATM    1  C8  UNL     1      24.160   0.363  53.150  1.00  0.00    -0.040 C 
HETATM    2  C11 UNL     1      23.117  -0.111  53.809  1.00  0.00    -0.075 C 
HETATM    3  C12 UNL     1      23.141  -1.180  54.831  1.00  0.00     0.044 C 
ENDROOT
BRANCH   1   4
HETATM    4  C7  UNL     1      25.531  -0.089  53.317  1.00  0.00     0.013 A 
HETATM    5  C6  UNL     1      26.395  -0.658  52.501  1.00  0.00    -0.010 A 
HETATM    6  C5  UNL     1      27.740  -1.003  52.987  1.00  0.00     0.044 A 
HETATM    7  C4  UNL     1      27.736  -0.478  54.390  1.00  0.00     0.089 A 
HETATM    8  C19 UNL     1      26.356   0.029  54.535  1.00  0.00     0.167 A 
HETATM    9  O2  UNL     1      26.112   0.477  55.658  1.00  0.00    -0.292 OA
BRANCH   7  10
HETATM   10  C3  UNL     1      28.757   0.562  54.635  1.00  0.00     0.023 C 
HETATM   11  C2  UNL     1      28.997   1.769  54.170  1.00  0.00     0.087 C 
HETATM   12  C1  UNL     1      28.108   2.369  53.140  1.00  0.00     0.082 C 
HETATM   13  F1  UNL     1      30.073   2.409  54.676  1.00  0.00    -0.212 F 
ENDBRANCH   7  10
ENDBRANCH   1   4
BRANCH   1  14
HETATM   14  C9  UNL     1      24.019   1.440  52.140  1.00  0.00     0.076 C 
BRANCH  14  15
HETATM   15  C10 UNL     1      24.196   2.771  52.813  1.00  0.00     0.395 C 
HETATM   16  O1  UNL     1      24.749   3.347  53.730  1.00  0.00    -0.429 OA
ENDBRANCH  14  15
ENDBRANCH   1  14
BRANCH   2  17
HETATM   17  C13 UNL     1      21.734   0.375  53.608  1.00  0.00     0.064 C 
BRANCH  17  18
HETATM   18  C14 UNL     1      20.736  -0.742  53.380  1.00  0.00     0.273 C 
BRANCH  18  19
HETATM   19  N1  UNL     1      19.383  -0.319  53.242  1.00  0.00     0.085 N 
HETATM   20  H19 UNL     1      19.141   0.529  53.798  1.00  0.00     0.315 HD
BRANCH  19  21
HETATM   21  C15 UNL     1      18.933  -0.256  51.867  1.00  0.00     0.291 C 
BRANCH  21  22
HETATM   22  C16 UNL     1      18.347   1.092  51.545  1.00  0.00     0.182 C 
BRANCH  22  23
HETATM   23  N2  UNL     1      19.366   2.123  51.600  1.00  0.00    -0.260 N 
HETATM   24  C17 UNL     1      20.191   2.370  50.554  1.00  0.00     0.135 A 
HETATM   25  C18 UNL     1      21.039   3.391  50.904  1.00  0.00     0.161 A 
HETATM   26  N3  UNL     1      20.709   3.744  52.159  1.00  0.00    -0.143 NA
HETATM   27  N4  UNL     1      19.715   2.979  52.549  1.00  0.00    -0.067 NA
ENDBRANCH  22  23
ENDBRANCH  21  22
ENDBRANCH  19  21
ENDBRANCH  18  19
ENDBRANCH  17  18
ENDBRANCH   2  17
TORSDOF 10
ENDMDL
MODEL 4
REMARK VINA RESULT:      -7.0      2.135      3.863
REMARK  10 active torsions:
REMARK  status: ('A' for Active; 'I' for Inactive)
REMARK    1  A    between atoms: C3_4  and  C4_5 
REMARK    2  A    between atoms: C7_8  and  C8_9 
REMARK    3  A    between atoms: C8_9  and  C9_10 
REMARK    4  A    between atoms: C9_10  and  C10_11 
REMARK    5  A    between atoms: C11_13  and  C13_15 
REMARK    6  A    between atoms: C13_15  and  C14_16 
REMARK    7  A    between atoms: C14_16  and  N1_17 
REMARK    8  A    between atoms: N1_17  and  C15_18 
REMARK    9  A    between atoms: C15_18  and  C16_19 
REMARK   10  A    between atoms: C16_19  and  N2_20 
ROOT
HETATM    1  C8  UNL     1      24.264   0.345  53.103  1.00  0.00    -0.040 C 
HETATM    2  C11 UNL     1      23.862   1.583  52.878  1.00  0.00    -0.075 C 
HETATM    3  C12 UNL     1      24.729   2.778  52.771  1.00  0.00     0.044 C 
ENDROOT
BRANCH   1   4
HETATM    4  C7  UNL     1      25.646  -0.066  53.287  1.00  0.00     0.013 A 
HETATM    5  C6  UNL     1      26.553  -0.558  52.468  1.00  0.00    -0.010 A 
HETATM    6  C5  UNL     1      27.896  -0.881  52.976  1.00  0.00     0.044 A 
HETATM    7  C4  UNL     1      27.833  -0.432  54.404  1.00  0.00     0.089 A 
HETATM    8  C19 UNL     1      26.431   0.016  54.534  1.00  0.00     0.167 A 
HETATM    9  O2  UNL     1      26.139   0.394  55.671  1.00  0.00    -0.292 OA
BRANCH   7  10
HETATM   10  C3  UNL     1      28.806   0.629  54.734  1.00  0.00     0.023 C 
HETATM   11  C2  UNL     1      29.077   1.831  54.272  1.00  0.00     0.087 C 
HETATM   12  C1  UNL     1      28.294   2.396  53.141  1.00  0.00     0.082 C 
HETATM   13  F1  UNL     1      30.083   2.499  54.876  1.00  0.00    -0.212 F 
ENDBRANCH   7  10
ENDBRANCH   1   4
BRANCH   1  14
HETATM   14  C9  UNL     1      23.303  -0.782  53.193  1.00  0.00     0.076 C 
BRANCH  14  15
HETATM   15  C10 UNL     1      23.015  -1.067  54.640  1.00  0.00     0.395 C 
HETATM   16  O1  UNL     1      22.301  -1.692  55.399  1.00  0.00    -0.429 OA
ENDBRANCH  14  15
ENDBRANCH   1  14
BRANCH   2  17
HETATM   17  C13 UNL     1      22.443   1.962  52.698  1.00  0.00     0.064 C 
BRANCH  17  18
HETATM   18  C14 UNL     1      22.264   3.361  52.143  1.00  0.00     0.273 C 
BRANCH  18  19
HETATM   19  N1  UNL     1      21.841   3.418  50.784  1.00  0.00     0.085 N 
HETATM   20  H19 UNL     1      21.327   2.571  50.460  1.00  0.00     0.315 HD
BRANCH  19  21
HETATM   21  C15 UNL     1      21.185   4.660  50.433  1.00  0.00     0.291 C 
BRANCH  21  22
HETATM   22  C16 UNL     1      19.949   4.412  49.612  1.00  0.00     0.182 C 
BRANCH  22  23
HETATM   23  N2  UNL     1      18.796   4.198  50.466  1.00  0.00    -0.260 N 
HETATM   24  C17 UNL     1      17.535   4.452  50.043  1.00  0.00     0.135 A 
HETATM   25  C18 UNL     1      16.667   4.156  51.065  1.00  0.00     0.161 A 
HETATM   26  N3  UNL     1      17.424   3.726  52.090  1.00  0.00    -0.143 NA
HETATM   27  N4  UNL     1      18.682   3.760  51.711  1.00  0.00    -0.067 NA
ENDBRANCH  22  23
ENDBRANCH  21  22
ENDBRANCH  19  21
ENDBRANCH  18  19
ENDBRANCH  17  18
ENDBRANCH   2  17
TORSDOF 10
ENDMDL
MODEL 5
REMARK VINA RESULT:      -6.9      2.912      4.868
REMARK  10 active torsions:
REMARK  status: ('A' for Active; 'I' for Inactive)
REMARK    1  A    between atoms: C3_4  and  C4_5 
REMARK    2  A    between atoms: C7_8  and  C8_9 
REMARK    3  A    between atoms: C8_9  and  C9_10 
REMARK    4  A    between atoms: C9_10  and  C10_11 
REMARK    5  A    between atoms: C11_13  and  C13_15 
REMARK    6  A    between atoms: C13_15  and  C14_16 
REMARK    7  A    between atoms: C14_16  and  N1_17 
REMARK    8  A    between atoms: N1_17  and  C15_18 
REMARK    9  A    between atoms: C15_18  and  C16_19 
REMARK   10  A    between atoms: C16_19  and  N2_20 
ROOT
HETATM    1  C8  UNL     1      24.244   0.314  53.119  1.00  0.00    -0.040 C 
HETATM    2  C11 UNL     1      23.833   1.542  52.858  1.00  0.00    -0.075 C 
HETATM    3  C12 UNL     1      24.694   2.736  52.699  1.00  0.00     0.044 C 
ENDROOT
BRANCH   1   4
HETATM    4  C7  UNL     1      25.630  -0.085  53.299  1.00  0.00     0.013 A 
HETATM    5  C6  UNL     1      26.540  -0.566  52.477  1.00  0.00    -0.010 A 
HETATM    6  C5  UNL     1      27.887  -0.878  52.980  1.00  0.00     0.044 A 
HETATM    7  C4  UNL     1      27.822  -0.436  54.411  1.00  0.00     0.089 A 
HETATM    8  C19 UNL     1      26.417  -0.001  54.545  1.00  0.00     0.167 A 
HETATM    9  O2  UNL     1      26.123   0.369  55.684  1.00  0.00    -0.292 OA
BRANCH   7  10
HETATM   10  C3  UNL     1      28.786   0.633  54.743  1.00  0.00     0.023 C 
HETATM   11  C2  UNL     1      29.064   1.828  54.268  1.00  0.00     0.087 C 
HETATM   12  C1  UNL     1      28.302   2.373  53.113  1.00  0.00     0.082 C 
HETATM   13  F1  UNL     1      30.056   2.507  54.881  1.00  0.00    -0.212 F 
ENDBRANCH   7  10
ENDBRANCH   1   4
BRANCH   1  14
HETATM   14  C9  UNL     1      23.289  -0.813  53.260  1.00  0.00     0.076 C 
BRANCH  14  15
HETATM   15  C10 UNL     1      23.007  -1.038  54.719  1.00  0.00     0.395 C 
HETATM   16  O1  UNL     1      22.378  -1.714  55.508  1.00  0.00    -0.429 OA
ENDBRANCH  14  15
ENDBRANCH   1  14
BRANCH   2  17
HETATM   17  C13 UNL     1      22.411   1.909  52.684  1.00  0.00     0.064 C 
BRANCH  17  18
HETATM   18  C14 UNL     1      22.084   2.383  51.282  1.00  0.00     0.273 C 
BRANCH  18  19
HETATM   19  N1  UNL     1      20.827   1.944  50.778  1.00  0.00     0.085 N 
HETATM   20  H19 UNL     1      20.895   1.287  49.971  1.00  0.00     0.315 HD
BRANCH  19  21
HETATM   21  C15 UNL     1      19.912   1.500  51.808  1.00  0.00     0.291 C 
BRANCH  21  22
HETATM   22  C16 UNL     1      18.736   0.769  51.218  1.00  0.00     0.182 C 
BRANCH  22  23
HETATM   23  N2  UNL     1      18.307  -0.307  52.090  1.00  0.00    -0.260 N 
HETATM   24  C17 UNL     1      17.057  -0.825  52.026  1.00  0.00     0.135 A 
HETATM   25  C18 UNL     1      16.952  -1.819  52.967  1.00  0.00     0.161 A 
HETATM   26  N3  UNL     1      18.145  -1.883  53.585  1.00  0.00    -0.143 NA
HETATM   27  N4  UNL     1      18.931  -0.978  53.048  1.00  0.00    -0.067 NA
ENDBRANCH  22  23
ENDBRANCH  21  22
ENDBRANCH  19  21
ENDBRANCH  18  19
ENDBRANCH  17  18
ENDBRANCH   2  17
TORSDOF 10
ENDMDL
MODEL 6
REMARK VINA RESULT:      -6.9      2.205      2.389
REMARK  10 active torsions:
REMARK  status: ('A' for Active; 'I' for Inactive)
REMARK    1  A    between atoms: C3_4  and  C4_5 
REMARK    2  A    between atoms: C7_8  and  C8_9 
REMARK    3  A    between atoms: C8_9  and  C9_10 
REMARK    4  A    between atoms: C9_10  and  C10_11 
REMARK    5  A    between atoms: C11_13  and  C13_15 
REMARK    6  A    between atoms: C13_15  and  C14_16 
REMARK    7  A    between atoms: C14_16  and  N1_17 
REMARK    8  A    between atoms: N1_17  and  C15_18 
REMARK    9  A    between atoms: C15_18  and  C16_19 
REMARK   10  A    between atoms: C16_19  and  N2_20 
ROOT
HETATM    1  C8  UNL     1      24.304   0.325  53.024  1.00  0.00    -0.040 C 
HETATM    2  C11 UNL     1      23.882   1.561  52.822  1.00  0.00    -0.075 C 
HETATM    3  C12 UNL     1      24.731   2.768  52.721  1.00  0.00     0.044 C 
ENDROOT
BRANCH   1   4
HETATM    4  C7  UNL     1      25.693  -0.070  53.186  1.00  0.00     0.013 A 
HETATM    5  C6  UNL     1      26.614  -0.481  52.339  1.00  0.00    -0.010 A 
HETATM    6  C5  UNL     1      27.962  -0.812  52.830  1.00  0.00     0.044 A 
HETATM    7  C4  UNL     1      27.882  -0.472  54.287  1.00  0.00     0.089 A 
HETATM    8  C19 UNL     1      26.470  -0.063  54.441  1.00  0.00     0.167 A 
HETATM    9  O2  UNL     1      26.165   0.223  55.601  1.00  0.00    -0.292 OA
BRANCH   7  10
HETATM   10  C3  UNL     1      28.831   0.582  54.701  1.00  0.00     0.023 C 
HETATM   11  C2  UNL     1      29.081   1.819  54.328  1.00  0.00     0.087 C 
HETATM   12  C1  UNL     1      28.296   2.448  53.233  1.00  0.00     0.082 C 
HETATM   13  F1  UNL     1      30.069   2.462  54.987  1.00  0.00    -0.212 F 
ENDBRANCH   7  10
ENDBRANCH   1   4
BRANCH   1  14
HETATM   14  C9  UNL     1      23.359  -0.816  53.111  1.00  0.00     0.076 C 
BRANCH  14  15
HETATM   15  C10 UNL     1      22.994  -1.044  54.550  1.00  0.00     0.395 C 
HETATM   16  O1  UNL     1      22.066  -1.177  55.323  1.00  0.00    -0.429 OA
ENDBRANCH  14  15
ENDBRANCH   1  14
BRANCH   2  17
HETATM   17  C13 UNL     1      22.456   1.922  52.664  1.00  0.00     0.064 C 
BRANCH  17  18
HETATM   18  C14 UNL     1      22.250   3.355  52.213  1.00  0.00     0.273 C 
BRANCH  18  19
HETATM   19  N1  UNL     1      21.039   3.592  51.504  1.00  0.00     0.085 N 
HETATM   20  H19 UNL     1      20.179   3.524  52.089  1.00  0.00     0.315 HD
BRANCH  19  21
HETATM   21  C15 UNL     1      21.077   4.777  50.672  1.00  0.00     0.291 C 
BRANCH  21  22
HETATM   22  C16 UNL     1      20.563   4.489  49.287  1.00  0.00     0.182 C 
BRANCH  22  23
HETATM   23  N2  UNL     1      21.115   3.247  48.780  1.00  0.00    -0.260 N 
HETATM   24  C17 UNL     1      22.171   3.228  47.931  1.00  0.00     0.135 A 
HETATM   25  C18 UNL     1      22.461   1.920  47.631  1.00  0.00     0.161 A 
HETATM   26  N3  UNL     1      21.571   1.171  48.307  1.00  0.00    -0.143 NA
HETATM   27  N4  UNL     1      20.785   1.980  48.980  1.00  0.00    -0.067 NA
ENDBRANCH  22  23
ENDBRANCH  21  22
ENDBRANCH  19  21
ENDBRANCH  18  19
ENDBRANCH  17  18
ENDBRANCH   2  17
TORSDOF 10
ENDMDL
MODEL 7
REMARK VINA RESULT:      -6.9      3.595      6.151
REMARK  10 active torsions:
REMARK  status: ('A' for Active; 'I' for Inactive)
REMARK    1  A    between atoms: C3_4  and  C4_5 
REMARK    2  A    between atoms: C7_8  and  C8_9 
REMARK    3  A    between atoms: C8_9  and  C9_10 
REMARK    4  A    between atoms: C9_10  and  C10_11 
REMARK    5  A    between atoms: C11_13  and  C13_15 
REMARK    6  A    between atoms: C13_15  and  C14_16 
REMARK    7  A    between atoms: C14_16  and  N1_17 
REMARK    8  A    between atoms: N1_17  and  C15_18 
REMARK    9  A    between atoms: C15_18  and  C16_19 
REMARK   10  A    between atoms: C16_19  and  N2_20 
ROOT
HETATM    1  C8  UNL     1      24.133   3.993  49.895  1.00  0.00    -0.040 C 
HETATM    2  C11 UNL     1      25.443   4.056  49.730  1.00  0.00    -0.075 C 
HETATM    3  C12 UNL     1      26.432   3.062  50.201  1.00  0.00     0.044 C 
ENDROOT
BRANCH   1   4
HETATM    4  C7  UNL     1      23.426   2.922  50.577  1.00  0.00     0.013 A 
HETATM    5  C6  UNL     1      22.701   1.909  50.148  1.00  0.00    -0.010 A 
HETATM    6  C5  UNL     1      22.105   0.976  51.117  1.00  0.00     0.044 A 
HETATM    7  C4  UNL     1      22.623   1.478  52.431  1.00  0.00     0.089 A 
HETATM    8  C19 UNL     1      23.386   2.679  52.032  1.00  0.00     0.167 A 
HETATM    9  O2  UNL     1      23.873   3.290  52.986  1.00  0.00    -0.292 OA
BRANCH   7  10
HETATM   10  C3  UNL     1      23.448   0.491  53.157  1.00  0.00     0.023 C 
HETATM   11  C2  UNL     1      23.213  -0.481  54.013  1.00  0.00     0.087 C 
HETATM   12  C1  UNL     1      21.823  -0.777  54.451  1.00  0.00     0.082 C 
HETATM   13  F1  UNL     1      24.285  -1.171  54.455  1.00  0.00    -0.212 F 
ENDBRANCH   7  10
ENDBRANCH   1   4
BRANCH   1  14
HETATM   14  C9  UNL     1      23.231   5.053  49.381  1.00  0.00     0.076 C 
BRANCH  14  15
HETATM   15  C10 UNL     1      22.766   5.901  50.530  1.00  0.00     0.395 C 
HETATM   16  O1  UNL     1      21.890   6.042  51.360  1.00  0.00    -0.429 OA
ENDBRANCH  14  15
ENDBRANCH   1  14
BRANCH   2  17
HETATM   17  C13 UNL     1      26.126   5.167  49.031  1.00  0.00     0.064 C 
BRANCH  17  18
HETATM   18  C14 UNL     1      27.551   4.836  48.635  1.00  0.00     0.273 C 
BRANCH  18  19
HETATM   19  N1  UNL     1      28.518   5.812  49.005  1.00  0.00     0.085 N 
HETATM   20  H19 UNL     1      29.468   5.425  49.189  1.00  0.00     0.315 HD
BRANCH  19  21
HETATM   21  C15 UNL     1      28.526   6.977  48.145  1.00  0.00     0.291 C 
BRANCH  21  22
HETATM   22  C16 UNL     1      29.729   6.978  47.239  1.00  0.00     0.182 C 
BRANCH  22  23
HETATM   23  N2  UNL     1      30.808   6.198  47.813  1.00  0.00    -0.260 N 
HETATM   24  C17 UNL     1      31.850   6.780  48.454  1.00  0.00     0.135 A 
HETATM   25  C18 UNL     1      32.701   5.792  48.882  1.00  0.00     0.161 A 
HETATM   26  N3  UNL     1      32.155   4.627  48.491  1.00  0.00    -0.143 NA
HETATM   27  N4  UNL     1      31.034   4.893  47.860  1.00  0.00    -0.067 NA
ENDBRANCH  22  23
ENDBRANCH  21  22
ENDBRANCH  19  21
ENDBRANCH  18  19
ENDBRANCH  17  18
ENDBRANCH   2  17
TORSDOF 10
ENDMDL
MODEL 8
REMARK VINA RESULT:      -6.8      4.608      7.530
REMARK  10 active torsions:
REMARK  status: ('A' for Active; 'I' for Inactive)
REMARK    1  A    between atoms: C3_4  and  C4_5 
REMARK    2  A    between atoms: C7_8  and  C8_9 
REMARK    3  A    between atoms: C8_9  and  C9_10 
REMARK    4  A    between atoms: C9_10  and  C10_11 
REMARK    5  A    between atoms: C11_13  and  C13_15 
REMARK    6  A    between atoms: C13_15  and  C14_16 
REMARK    7  A    between atoms: C14_16  and  N1_17 
REMARK    8  A    between atoms: N1_17  and  C15_18 
REMARK    9  A    between atoms: C15_18  and  C16_19 
REMARK   10  A    between atoms: C16_19  and  N2_20 
ROOT
HETATM    1  C8  UNL     1      23.647   1.420  51.639  1.00  0.00    -0.040 C 
HETATM    2  C11 UNL     1      24.706   0.865  52.203  1.00  0.00    -0.075 C 
HETATM    3  C12 UNL     1      24.691  -0.215  53.215  1.00  0.00     0.044 C 
ENDROOT
BRANCH   1   4
HETATM    4  C7  UNL     1      22.267   1.063  51.917  1.00  0.00     0.013 A 
HETATM    5  C6  UNL     1      21.523   1.132  53.002  1.00  0.00    -0.010 A 
HETATM    6  C5  UNL     1      20.123   0.678  52.957  1.00  0.00     0.044 A 
HETATM    7  C4  UNL     1      19.935   0.307  51.518  1.00  0.00     0.089 A 
HETATM    8  C19 UNL     1      21.282   0.531  50.954  1.00  0.00     0.167 A 
HETATM    9  O2  UNL     1      21.371   0.238  49.760  1.00  0.00    -0.292 OA
BRANCH   7  10
HETATM   10  C3  UNL     1      18.891   1.098  50.835  1.00  0.00     0.023 C 
HETATM   11  C2  UNL     1      17.607   0.945  50.589  1.00  0.00     0.087 C 
HETATM   12  C1  UNL     1      16.894  -0.276  51.050  1.00  0.00     0.082 C 
HETATM   13  F1  UNL     1      16.998   1.939  49.910  1.00  0.00    -0.212 F 
ENDBRANCH   7  10
ENDBRANCH   1   4
BRANCH   1  14
HETATM   14  C9  UNL     1      23.780   2.503  50.633  1.00  0.00     0.076 C 
BRANCH  14  15
HETATM   15  C10 UNL     1      23.344   3.801  51.248  1.00  0.00     0.395 C 
HETATM   16  O1  UNL     1      23.726   4.781  51.857  1.00  0.00    -0.429 OA
ENDBRANCH  14  15
ENDBRANCH   1  14
BRANCH   2  17
HETATM   17  C13 UNL     1      26.098   1.259  51.894  1.00  0.00     0.064 C 
BRANCH  17  18
HETATM   18  C14 UNL     1      26.523   2.540  52.583  1.00  0.00     0.273 C 
BRANCH  18  19
HETATM   19  N1  UNL     1      27.213   2.358  53.815  1.00  0.00     0.085 N 
HETATM   20  H19 UNL     1      26.900   1.528  54.362  1.00  0.00     0.315 HD
BRANCH  19  21
HETATM   21  C15 UNL     1      28.652   2.460  53.694  1.00  0.00     0.291 C 
BRANCH  21  22
HETATM   22  C16 UNL     1      29.347   1.451  54.568  1.00  0.00     0.182 C 
BRANCH  22  23
HETATM   23  N2  UNL     1      29.094   0.102  54.100  1.00  0.00    -0.260 N 
HETATM   24  C17 UNL     1      30.061  -0.648  53.519  1.00  0.00     0.135 A 
HETATM   25  C18 UNL     1      29.523  -1.866  53.186  1.00  0.00     0.161 A 
HETATM   26  N3  UNL     1      28.235  -1.829  53.573  1.00  0.00    -0.143 NA
HETATM   27  N4  UNL     1      28.005  -0.654  54.112  1.00  0.00    -0.067 NA
ENDBRANCH  22  23
ENDBRANCH  21  22
ENDBRANCH  19  21
ENDBRANCH  18  19
ENDBRANCH  17  18
ENDBRANCH   2  17
TORSDOF 10
ENDMDL
MODEL 9
REMARK VINA RESULT:      -6.8      4.075      6.060
REMARK  10 active torsions:
REMARK  status: ('A' for Active; 'I' for Inactive)
REMARK    1  A    between atoms: C3_4  and  C4_5 
REMARK    2  A    between atoms: C7_8  and  C8_9 
REMARK    3  A    between atoms: C8_9  and  C9_10 
REMARK    4  A    between atoms: C9_10  and  C10_11 
REMARK    5  A    between atoms: C11_13  and  C13_15 
REMARK    6  A    between atoms: C13_15  and  C14_16 
REMARK    7  A    between atoms: C14_16  and  N1_17 
REMARK    8  A    between atoms: N1_17  and  C15_18 
REMARK    9  A    between atoms: C15_18  and  C16_19 
REMARK   10  A    between atoms: C16_19  and  N2_20 
ROOT
HETATM    1  C8  UNL     1      21.788   0.556  53.087  1.00  0.00    -0.040 C 
HETATM    2  C11 UNL     1      20.970   0.365  52.066  1.00  0.00    -0.075 C 
HETATM    3  C12 UNL     1      21.276   0.624  50.642  1.00  0.00     0.044 C 
ENDROOT
BRANCH   1   4
HETATM    4  C7  UNL     1      23.147   1.060  52.987  1.00  0.00     0.013 A 
HETATM    5  C6  UNL     1      23.653   2.275  52.938  1.00  0.00    -0.010 A 
HETATM    6  C5  UNL     1      25.110   2.456  52.835  1.00  0.00     0.044 A 
HETATM    7  C4  UNL     1      25.629   1.051  52.899  1.00  0.00     0.089 A 
HETATM    8  C19 UNL     1      24.385   0.256  52.954  1.00  0.00     0.167 A 
HETATM    9  O2  UNL     1      24.580  -0.962  52.967  1.00  0.00    -0.292 OA
BRANCH   7  10
HETATM   10  C3  UNL     1      26.519   0.802  54.052  1.00  0.00     0.023 C 
HETATM   11  C2  UNL     1      27.610   0.096  54.260  1.00  0.00     0.087 C 
HETATM   12  C1  UNL     1      28.214  -0.698  53.157  1.00  0.00     0.082 C 
HETATM   13  F1  UNL     1      28.130   0.139  55.505  1.00  0.00    -0.212 F 
ENDBRANCH   7  10
ENDBRANCH   1   4
BRANCH   1  14
HETATM   14  C9  UNL     1      21.373   0.265  54.481  1.00  0.00     0.076 C 
BRANCH  14  15
HETATM   15  C10 UNL     1      21.681  -1.172  54.794  1.00  0.00     0.395 C 
HETATM   16  O1  UNL     1      22.369  -1.908  55.474  1.00  0.00    -0.429 OA
ENDBRANCH  14  15
ENDBRANCH   1  14
BRANCH   2  17
HETATM   17  C13 UNL     1      19.590  -0.148  52.209  1.00  0.00     0.064 C 
BRANCH  17  18
HETATM   18  C14 UNL     1      18.648   0.368  51.140  1.00  0.00     0.273 C 
BRANCH  18  19
HETATM   19  N1  UNL     1      17.316   0.612  51.581  1.00  0.00     0.085 N 
HETATM   20  H19 UNL     1      17.218   1.436  52.211  1.00  0.00     0.315 HD
BRANCH  19  21
HETATM   21  C15 UNL     1      16.338   0.581  50.514  1.00  0.00     0.291 C 
BRANCH  21  22
HETATM   22  C16 UNL     1      15.084   1.318  50.901  1.00  0.00     0.182 C 
BRANCH  22  23
HETATM   23  N2  UNL     1      15.401   2.512  51.661  1.00  0.00    -0.260 N 
HETATM   24  C17 UNL     1      14.617   2.942  52.679  1.00  0.00     0.135 A 
HETATM   25  C18 UNL     1      15.171   4.086  53.198  1.00  0.00     0.161 A 
HETATM   26  N3  UNL     1      16.283   4.327  52.481  1.00  0.00    -0.143 NA
HETATM   27  N4  UNL     1      16.398   3.380  51.577  1.00  0.00    -0.067 NA
ENDBRANCH  22  23
ENDBRANCH  21  22
ENDBRANCH  19  21
ENDBRANCH  18  19
ENDBRANCH  17  18
ENDBRANCH   2  17
TORSDOF 10
ENDMDL
