MODEL 1
REMARK VINA RESULT:      -8.3      0.000      0.000
REMARK  5 active torsions:
REMARK  status: ('A' for Active; 'I' for Inactive)
REMARK    1  A    between atoms: C2_2  and  C3_3 
REMARK    2  A    between atoms: N1_9  and  C9_10 
REMARK    3  A    between atoms: C11_12  and  C12_13 
REMARK    4  A    between atoms: C13_15  and  O1_16 
REMARK    5  A    between atoms: C15_18  and  O2_19 
ROOT
HETATM    1  C9  UNL     1      25.303   1.571  52.478  1.00  0.00     0.032 A 
HETATM    2  C10 UNL     1      26.636   1.730  52.387  1.00  0.00     0.016 A 
HETATM    3  C11 UNL     1      27.888   1.312  53.068  1.00  0.00     0.084 A 
HETATM    4  C13 UNL     1      27.479   0.436  54.251  1.00  0.00     0.167 A 
HETATM    5  C15 UNL     1      26.013   0.295  54.305  1.00  0.00    -0.017 A 
HETATM    6  C17 UNL     1      24.999   0.723  53.617  1.00  0.00     0.039 A 
ENDROOT
BRANCH   1   7
HETATM    7  N1  UNL     1      24.366   2.146  51.610  1.00  0.00    -0.347 N 
HETATM    8  C4  UNL     1      24.809   2.887  50.481  1.00  0.00     0.034 C 
HETATM    9  C3  UNL     1      25.973   3.490  50.479  1.00  0.00     0.025 C 
HETATM   10  C5  UNL     1      23.986   3.011  49.291  1.00  0.00     0.025 C 
HETATM   11  C6  UNL     1      22.793   2.389  49.323  1.00  0.00    -0.023 C 
HETATM   12  C7  UNL     1      22.269   1.604  50.466  1.00  0.00     0.047 C 
HETATM   13  C8  UNL     1      22.909   2.051  51.763  1.00  0.00     0.133 C 
BRANCH   9  14
HETATM   14  C2  UNL     1      26.334   4.239  49.283  1.00  0.00    -0.024 C 
HETATM   15  C1  UNL     1      27.525   4.662  48.820  1.00  0.00     0.031 C 
ENDBRANCH   9  14
ENDBRANCH   1   7
BRANCH   3  16
HETATM   16  C12 UNL     1      28.668   2.481  53.559  1.00  0.00     0.091 C 
HETATM   17  N2  UNL     1      29.376   1.994  54.513  1.00  0.00    -0.316 NA
HETATM   18  H14 UNL     1      30.002   2.684  54.989  1.00  0.00     0.185 HD
ENDBRANCH   3  16
BRANCH   5  19
HETATM   19  O2  UNL     1      25.706  -0.520  55.403  1.00  0.00     0.000 OA
HETATM   20  C16 UNL     1      24.536  -1.263  55.351  1.00  0.00     0.125 A 
HETATM   21  N3  UNL     1      25.345  -1.260  56.346  1.00  0.00    -0.311 N 
HETATM   22  H20 UNL     1      25.135  -1.839  57.178  1.00  0.00     0.186 HD
ENDBRANCH   5  19
BRANCH   4  23
HETATM   23  O1  UNL     1      28.107  -0.821  54.173  1.00  0.00    -0.385 OA
HETATM   24  C14 UNL     1      27.893  -1.334  52.880  1.00  0.00     0.202 C 
ENDBRANCH   4  23
TORSDOF 5
ENDMDL
MODEL 2
REMARK VINA RESULT:      -8.0      2.515      4.693
REMARK  5 active torsions:
REMARK  status: ('A' for Active; 'I' for Inactive)
REMARK    1  A    between atoms: C2_2  and  C3_3 
REMARK    2  A    between atoms: N1_9  and  C9_10 
REMARK    3  A    between atoms: C11_12  and  C12_13 
REMARK    4  A    between atoms: C13_15  and  O1_16 
REMARK    5  A    between atoms: C15_18  and  O2_19 
ROOT
HETATM    1  C9  UNL     1      24.309   0.041  53.426  1.00  0.00     0.032 A 
HETATM    2  C10 UNL     1      25.277  -0.889  53.524  1.00  0.00     0.016 A 
HETATM    3  C11 UNL     1      26.714  -1.084  53.201  1.00  0.00     0.084 A 
HETATM    4  C13 UNL     1      27.197   0.200  52.530  1.00  0.00     0.167 A 
HETATM    5  C15 UNL     1      26.101   1.182  52.446  1.00  0.00    -0.017 A 
HETATM    6  C17 UNL     1      24.849   1.228  52.788  1.00  0.00     0.039 A 
ENDROOT
BRANCH   1   7
HETATM    7  N1  UNL     1      22.989  -0.127  53.864  1.00  0.00    -0.347 N 
HETATM    8  C4  UNL     1      21.937   0.591  53.233  1.00  0.00     0.034 C 
HETATM    9  C3  UNL     1      22.158   1.743  52.648  1.00  0.00     0.025 C 
HETATM   10  C5  UNL     1      20.578   0.081  53.222  1.00  0.00     0.025 C 
HETATM   11  C6  UNL     1      20.378  -1.099  53.839  1.00  0.00    -0.023 C 
HETATM   12  C7  UNL     1      21.427  -1.897  54.517  1.00  0.00     0.047 C 
HETATM   13  C8  UNL     1      22.574  -1.013  54.958  1.00  0.00     0.133 C 
BRANCH   9  14
HETATM   14  C2  UNL     1      21.014   2.412  52.042  1.00  0.00    -0.024 C 
HETATM   15  C1  UNL     1      20.642   3.706  52.026  1.00  0.00     0.031 C 
ENDBRANCH   9  14
ENDBRANCH   1   7
BRANCH   3  16
HETATM   16  C12 UNL     1      26.922  -2.236  52.280  1.00  0.00     0.091 C 
HETATM   17  N2  UNL     1      27.857  -2.910  52.846  1.00  0.00    -0.316 NA
HETATM   18  H14 UNL     1      28.144  -3.776  52.332  1.00  0.00     0.185 HD
ENDBRANCH   3  16
BRANCH   5  19
HETATM   19  O2  UNL     1      26.609   2.334  51.831  1.00  0.00     0.000 OA
HETATM   20  C16 UNL     1      26.241   2.582  50.517  1.00  0.00     0.125 A 
HETATM   21  N3  UNL     1      27.031   3.327  51.198  1.00  0.00    -0.311 N 
HETATM   22  H20 UNL     1      27.435   4.176  50.764  1.00  0.00     0.186 HD
ENDBRANCH   5  19
BRANCH   4  23
HETATM   23  O1  UNL     1      28.302   0.732  53.222  1.00  0.00    -0.385 OA
HETATM   24  C14 UNL     1      28.197   0.342  54.571  1.00  0.00     0.202 C 
ENDBRANCH   4  23
TORSDOF 5
ENDMDL
MODEL 3
REMARK VINA RESULT:      -7.9      1.120      2.956
REMARK  5 active torsions:
REMARK  status: ('A' for Active; 'I' for Inactive)
REMARK    1  A    between atoms: C2_2  and  C3_3 
REMARK    2  A    between atoms: N1_9  and  C9_10 
REMARK    3  A    between atoms: C11_12  and  C12_13 
REMARK    4  A    between atoms: C13_15  and  O1_16 
REMARK    5  A    between atoms: C15_18  and  O2_19 
ROOT
HETATM    1  C9  UNL     1      25.450   1.467  52.452  1.00  0.00     0.032 A 
HETATM    2  C10 UNL     1      26.784   1.647  52.425  1.00  0.00     0.016 A 
HETATM    3  C11 UNL     1      28.005   1.275  53.185  1.00  0.00     0.084 A 
HETATM    4  C13 UNL     1      27.548   0.431  54.374  1.00  0.00     0.167 A 
HETATM    5  C15 UNL     1      26.083   0.266  54.356  1.00  0.00    -0.017 A 
HETATM    6  C17 UNL     1      25.101   0.653  53.602  1.00  0.00     0.039 A 
ENDROOT
BRANCH   1   7
HETATM    7  N1  UNL     1      24.552   1.996  51.516  1.00  0.00    -0.347 N 
HETATM    8  C4  UNL     1      23.180   1.627  51.565  1.00  0.00     0.034 C 
HETATM    9  C3  UNL     1      22.805   0.475  52.067  1.00  0.00     0.025 C 
HETATM   10  C5  UNL     1      22.144   2.506  51.053  1.00  0.00     0.025 C 
HETATM   11  C6  UNL     1      22.558   3.678  50.535  1.00  0.00    -0.023 C 
HETATM   12  C7  UNL     1      23.969   4.124  50.451  1.00  0.00     0.047 C 
HETATM   13  C8  UNL     1      24.909   2.937  50.447  1.00  0.00     0.133 C 
BRANCH   9  14
HETATM   14  C2  UNL     1      21.379   0.178  52.059  1.00  0.00    -0.024 C 
HETATM   15  C1  UNL     1      20.541  -0.204  53.042  1.00  0.00     0.031 C 
ENDBRANCH   9  14
ENDBRANCH   1   7
BRANCH   3  16
HETATM   16  C12 UNL     1      28.738   2.474  53.676  1.00  0.00     0.091 C 
HETATM   17  N2  UNL     1      29.485   2.009  54.612  1.00  0.00    -0.316 NA
HETATM   18  H14 UNL     1      30.087   2.723  55.085  1.00  0.00     0.185 HD
ENDBRANCH   3  16
BRANCH   5  19
HETATM   19  O2  UNL     1      25.732  -0.518  55.463  1.00  0.00     0.000 OA
HETATM   20  C16 UNL     1      24.561  -1.258  55.387  1.00  0.00     0.125 A 
HETATM   21  N3  UNL     1      25.332  -1.230  56.412  1.00  0.00    -0.311 N 
HETATM   22  H20 UNL     1      25.089  -1.786  57.251  1.00  0.00     0.186 HD
ENDBRANCH   5  19
BRANCH   4  23
HETATM   23  O1  UNL     1      28.199  -0.816  54.372  1.00  0.00    -0.385 OA
HETATM   24  C14 UNL     1      28.210  -1.299  53.049  1.00  0.00     0.202 C 
ENDBRANCH   4  23
TORSDOF 5
ENDMDL
MODEL 4
REMARK VINA RESULT:      -7.8      1.932      2.056
REMARK  5 active torsions:
REMARK  status: ('A' for Active; 'I' for Inactive)
REMARK    1  A    between atoms: C2_2  and  C3_3 
REMARK    2  A    between atoms: N1_9  and  C9_10 
REMARK    3  A    between atoms: C11_12  and  C12_13 
REMARK    4  A    between atoms: C13_15  and  O1_16 
REMARK    5  A    between atoms: C15_18  and  O2_19 
ROOT
HETATM    1  C9  UNL     1      24.133   0.996  52.352  1.00  0.00     0.032 A 
HETATM    2  C10 UNL     1      25.396   1.188  51.927  1.00  0.00     0.016 A 
HETATM    3  C11 UNL     1      26.795   0.891  52.326  1.00  0.00     0.084 A 
HETATM    4  C13 UNL     1      26.729   0.142  53.656  1.00  0.00     0.167 A 
HETATM    5  C15 UNL     1      25.328  -0.040  54.075  1.00  0.00    -0.017 A 
HETATM    6  C17 UNL     1      24.157   0.274  53.611  1.00  0.00     0.039 A 
ENDROOT
BRANCH   1   7
HETATM    7  N1  UNL     1      22.986   1.439  51.681  1.00  0.00    -0.347 N 
HETATM    8  C4  UNL     1      22.849   2.812  51.342  1.00  0.00     0.034 C 
HETATM    9  C3  UNL     1      23.446   3.746  52.042  1.00  0.00     0.025 C 
HETATM   10  C5  UNL     1      22.036   3.234  50.215  1.00  0.00     0.025 C 
HETATM   11  C6  UNL     1      21.428   2.255  49.519  1.00  0.00    -0.023 C 
HETATM   12  C7  UNL     1      21.525   0.807  49.819  1.00  0.00     0.047 C 
HETATM   13  C8  UNL     1      21.865   0.580  51.276  1.00  0.00     0.133 C 
BRANCH   9  14
HETATM   14  C2  UNL     1      23.234   5.127  51.629  1.00  0.00    -0.024 C 
HETATM   15  C1  UNL     1      24.083   6.166  51.517  1.00  0.00     0.031 C 
ENDBRANCH   9  14
ENDBRANCH   1   7
BRANCH   3  16
HETATM   16  C12 UNL     1      27.598   2.134  52.493  1.00  0.00     0.091 C 
HETATM   17  N2  UNL     1      27.119   2.926  51.603  1.00  0.00    -0.316 NA
HETATM   18  H14 UNL     1      27.570   3.870  51.570  1.00  0.00     0.185 HD
ENDBRANCH   3  16
BRANCH   5  19
HETATM   19  O2  UNL     1      25.336  -0.736  55.292  1.00  0.00     0.000 OA
HETATM   20  C16 UNL     1      24.216  -1.485  55.617  1.00  0.00     0.125 A 
HETATM   21  N3  UNL     1      25.251  -1.372  56.366  1.00  0.00    -0.311 N 
HETATM   22  H20 UNL     1      25.278  -1.861  57.278  1.00  0.00     0.186 HD
ENDBRANCH   5  19
BRANCH   4  23
HETATM   23  O1  UNL     1      27.394  -1.095  53.558  1.00  0.00    -0.385 OA
HETATM   24  C14 UNL     1      28.776  -0.854  53.674  1.00  0.00     0.202 C 
ENDBRANCH   4  23
TORSDOF 5
ENDMDL
MODEL 5
REMARK VINA RESULT:      -7.7      3.512      6.840
REMARK  5 active torsions:
REMARK  status: ('A' for Active; 'I' for Inactive)
REMARK    1  A    between atoms: C2_2  and  C3_3 
REMARK    2  A    between atoms: N1_9  and  C9_10 
REMARK    3  A    between atoms: C11_12  and  C12_13 
REMARK    4  A    between atoms: C13_15  and  O1_16 
REMARK    5  A    between atoms: C15_18  and  O2_19 
ROOT
HETATM    1  C9  UNL     1      23.951   2.309  51.796  1.00  0.00     0.032 A 
HETATM    2  C10 UNL     1      23.809   3.619  52.070  1.00  0.00     0.016 A 
HETATM    3  C11 UNL     1      23.050   4.809  51.610  1.00  0.00     0.084 A 
HETATM    4  C13 UNL     1      22.178   4.355  50.441  1.00  0.00     0.167 A 
HETATM    5  C15 UNL     1      22.371   2.917  50.182  1.00  0.00    -0.017 A 
HETATM    6  C17 UNL     1      23.086   1.957  50.684  1.00  0.00     0.039 A 
ENDROOT
BRANCH   1   7
HETATM    7  N1  UNL     1      24.809   1.435  52.477  1.00  0.00    -0.347 N 
HETATM    8  C4  UNL     1      24.275   0.315  53.169  1.00  0.00     0.034 C 
HETATM    9  C3  UNL     1      23.051   0.328  53.639  1.00  0.00     0.025 C 
HETATM   10  C5  UNL     1      25.066  -0.882  53.391  1.00  0.00     0.025 C 
HETATM   11  C6  UNL     1      26.322  -0.865  52.907  1.00  0.00    -0.023 C 
HETATM   12  C7  UNL     1      26.942   0.269  52.180  1.00  0.00     0.047 C 
HETATM   13  C8  UNL     1      26.269   1.575  52.545  1.00  0.00     0.133 C 
BRANCH   9  14
HETATM   14  C2  UNL     1      22.597  -0.860  54.348  1.00  0.00    -0.024 C 
HETATM   15  C1  UNL     1      21.389  -1.451  54.419  1.00  0.00     0.031 C 
ENDBRANCH   9  14
ENDBRANCH   1   7
BRANCH   3  16
HETATM   16  C12 UNL     1      23.956   5.903  51.160  1.00  0.00     0.091 C 
HETATM   17  N2  UNL     1      24.234   6.530  52.246  1.00  0.00    -0.316 NA
HETATM   18  H14 UNL     1      24.874   7.349  52.125  1.00  0.00     0.185 HD
ENDBRANCH   3  16
BRANCH   5  19
HETATM   19  O2  UNL     1      21.542   2.564  49.109  1.00  0.00     0.000 OA
HETATM   20  C16 UNL     1      22.116   2.472  47.850  1.00  0.00     0.125 A 
HETATM   21  N3  UNL     1      20.873   2.274  48.092  1.00  0.00    -0.311 N 
HETATM   22  H20 UNL     1      20.233   2.029  47.316  1.00  0.00     0.186 HD
ENDBRANCH   5  19
BRANCH   4  23
HETATM   23  O1  UNL     1      20.824   4.647  50.694  1.00  0.00    -0.385 OA
HETATM   24  C14 UNL     1      20.476   5.781  49.935  1.00  0.00     0.202 C 
ENDBRANCH   4  23
TORSDOF 5
ENDMDL
MODEL 6
REMARK VINA RESULT:      -7.6      3.440      6.326
REMARK  5 active torsions:
REMARK  status: ('A' for Active; 'I' for Inactive)
REMARK    1  A    between atoms: C2_2  and  C3_3 
REMARK    2  A    between atoms: N1_9  and  C9_10 
REMARK    3  A    between atoms: C11_12  and  C12_13 
REMARK    4  A    between atoms: C13_15  and  O1_16 
REMARK    5  A    between atoms: C15_18  and  O2_19 
ROOT
HETATM    1  C9  UNL     1      22.830   2.054  51.464  1.00  0.00     0.032 A 
HETATM    2  C10 UNL     1      22.999   2.034  50.129  1.00  0.00     0.016 A 
HETATM    3  C11 UNL     1      23.461   2.907  49.020  1.00  0.00     0.084 A 
HETATM    4  C13 UNL     1      23.841   4.250  49.641  1.00  0.00     0.167 A 
HETATM    5  C15 UNL     1      23.636   4.219  51.101  1.00  0.00    -0.017 A 
HETATM    6  C17 UNL     1      23.219   3.356  51.975  1.00  0.00     0.039 A 
ENDROOT
BRANCH   1   7
HETATM    7  N1  UNL     1      22.344   0.983  52.226  1.00  0.00    -0.347 N 
HETATM    8  C4  UNL     1      23.204   0.320  53.143  1.00  0.00     0.034 C 
HETATM    9  C3  UNL     1      24.502   0.293  52.958  1.00  0.00     0.025 C 
HETATM   10  C5  UNL     1      22.678  -0.360  54.313  1.00  0.00     0.025 C 
HETATM   11  C6  UNL     1      21.342  -0.324  54.474  1.00  0.00    -0.023 C 
HETATM   12  C7  UNL     1      20.389   0.346  53.557  1.00  0.00     0.047 C 
HETATM   13  C8  UNL     1      20.973   0.462  52.165  1.00  0.00     0.133 C 
BRANCH   9  14
HETATM   14  C2  UNL     1      25.300  -0.425  53.943  1.00  0.00    -0.024 C 
HETATM   15  C1  UNL     1      26.277  -0.012  54.772  1.00  0.00     0.031 C 
ENDBRANCH   9  14
ENDBRANCH   1   7
BRANCH   3  16
HETATM   16  C12 UNL     1      22.398   3.113  47.998  1.00  0.00     0.091 C 
HETATM   17  N2  UNL     1      22.550   4.339  47.646  1.00  0.00    -0.316 NA
HETATM   18  H14 UNL     1      21.876   4.671  46.917  1.00  0.00     0.185 HD
ENDBRANCH   3  16
BRANCH   5  19
HETATM   19  O2  UNL     1      24.007   5.472  51.608  1.00  0.00     0.000 OA
HETATM   20  C16 UNL     1      23.207   6.560  51.293  1.00  0.00     0.125 A 
HETATM   21  N3  UNL     1      24.274   6.629  52.001  1.00  0.00    -0.311 N 
HETATM   22  H20 UNL     1      24.582   7.544  52.375  1.00  0.00     0.186 HD
ENDBRANCH   5  19
BRANCH   4  23
HETATM   23  O1  UNL     1      25.171   4.582  49.322  1.00  0.00    -0.385 OA
HETATM   24  C14 UNL     1      25.971   3.449  49.563  1.00  0.00     0.202 C 
ENDBRANCH   4  23
TORSDOF 5
ENDMDL
MODEL 7
REMARK VINA RESULT:      -7.6      7.228     10.222
REMARK  5 active torsions:
REMARK  status: ('A' for Active; 'I' for Inactive)
REMARK    1  A    between atoms: C2_2  and  C3_3 
REMARK    2  A    between atoms: N1_9  and  C9_10 
REMARK    3  A    between atoms: C11_12  and  C12_13 
REMARK    4  A    between atoms: C13_15  and  O1_16 
REMARK    5  A    between atoms: C15_18  and  O2_19 
ROOT
HETATM    1  C9  UNL     1      31.809   7.203  47.485  1.00  0.00     0.032 A 
HETATM    2  C10 UNL     1      32.071   6.744  46.247  1.00  0.00     0.016 A 
HETATM    3  C11 UNL     1      33.015   5.844  45.536  1.00  0.00     0.084 A 
HETATM    4  C13 UNL     1      33.988   5.305  46.583  1.00  0.00     0.167 A 
HETATM    5  C15 UNL     1      33.659   5.839  47.916  1.00  0.00    -0.017 A 
HETATM    6  C17 UNL     1      32.769   6.641  48.417  1.00  0.00     0.039 A 
ENDROOT
BRANCH   1   7
HETATM    7  N1  UNL     1      30.775   8.093  47.807  1.00  0.00    -0.347 N 
HETATM    8  C4  UNL     1      29.513   7.591  48.222  1.00  0.00     0.034 C 
HETATM    9  C3  UNL     1      29.094   6.409  47.839  1.00  0.00     0.025 C 
HETATM   10  C5  UNL     1      28.635   8.370  49.077  1.00  0.00     0.025 C 
HETATM   11  C6  UNL     1      29.086   9.583  49.447  1.00  0.00    -0.023 C 
HETATM   12  C7  UNL     1      30.389  10.168  49.049  1.00  0.00     0.047 C 
HETATM   13  C8  UNL     1      30.880   9.557  47.755  1.00  0.00     0.133 C 
BRANCH   9  14
HETATM   14  C2  UNL     1      27.779   5.986  48.303  1.00  0.00    -0.024 C 
HETATM   15  C1  UNL     1      27.337   4.807  48.780  1.00  0.00     0.031 C 
ENDBRANCH   9  14
ENDBRANCH   1   7
BRANCH   3  16
HETATM   16  C12 UNL     1      33.772   6.564  44.475  1.00  0.00     0.091 C 
HETATM   17  N2  UNL     1      34.721   5.752  44.177  1.00  0.00    -0.316 NA
HETATM   18  H14 UNL     1      35.371   6.094  43.432  1.00  0.00     0.185 HD
ENDBRANCH   3  16
BRANCH   5  19
HETATM   19  O2  UNL     1      34.579   5.304  48.827  1.00  0.00     0.000 OA
HETATM   20  C16 UNL     1      35.717   6.046  49.110  1.00  0.00     0.125 A 
HETATM   21  N3  UNL     1      35.463   4.894  49.612  1.00  0.00    -0.311 N 
HETATM   22  H20 UNL     1      36.134   4.465  50.275  1.00  0.00     0.186 HD
ENDBRANCH   5  19
BRANCH   4  23
HETATM   23  O1  UNL     1      33.981   3.898  46.584  1.00  0.00    -0.385 OA
HETATM   24  C14 UNL     1      32.654   3.470  46.387  1.00  0.00     0.202 C 
ENDBRANCH   4  23
TORSDOF 5
ENDMDL
MODEL 8
REMARK VINA RESULT:      -7.3      3.142      5.974
REMARK  5 active torsions:
REMARK  status: ('A' for Active; 'I' for Inactive)
REMARK    1  A    between atoms: C2_2  and  C3_3 
REMARK    2  A    between atoms: N1_9  and  C9_10 
REMARK    3  A    between atoms: C11_12  and  C12_13 
REMARK    4  A    between atoms: C13_15  and  O1_16 
REMARK    5  A    between atoms: C15_18  and  O2_19 
ROOT
HETATM    1  C9  UNL     1      23.630   1.313  51.713  1.00  0.00     0.032 A 
HETATM    2  C10 UNL     1      24.625   2.219  51.740  1.00  0.00     0.016 A 
HETATM    3  C11 UNL     1      25.098   3.422  51.009  1.00  0.00     0.084 A 
HETATM    4  C13 UNL     1      24.120   3.656  49.859  1.00  0.00     0.167 A 
HETATM    5  C15 UNL     1      23.054   2.638  49.874  1.00  0.00    -0.017 A 
HETATM    6  C17 UNL     1      22.744   1.609  50.601  1.00  0.00     0.039 A 
ENDROOT
BRANCH   1   7
HETATM    7  N1  UNL     1      23.489   0.250  52.615  1.00  0.00    -0.347 N 
HETATM    8  C4  UNL     1      24.636  -0.288  53.259  1.00  0.00     0.034 C 
HETATM    9  C3  UNL     1      25.822  -0.218  52.704  1.00  0.00     0.025 C 
HETATM   10  C5  UNL     1      24.537  -0.944  54.551  1.00  0.00     0.025 C 
HETATM   11  C6  UNL     1      23.307  -1.009  55.094  1.00  0.00    -0.023 C 
HETATM   12  C7  UNL     1      22.071  -0.473  54.476  1.00  0.00     0.047 C 
HETATM   13  C8  UNL     1      22.215  -0.386  52.972  1.00  0.00     0.133 C 
BRANCH   9  14
HETATM   14  C2  UNL     1      26.935  -0.812  53.432  1.00  0.00    -0.024 C 
HETATM   15  C1  UNL     1      28.264  -0.770  53.221  1.00  0.00     0.031 C 
ENDBRANCH   9  14
ENDBRANCH   1   7
BRANCH   3  16
HETATM   16  C12 UNL     1      26.472   3.234  50.465  1.00  0.00     0.091 C 
HETATM   17  N2  UNL     1      27.171   2.950  51.503  1.00  0.00    -0.316 NA
HETATM   18  H14 UNL     1      28.187   2.781  51.313  1.00  0.00     0.185 HD
ENDBRANCH   3  16
BRANCH   5  19
HETATM   19  O2  UNL     1      22.192   2.912  48.804  1.00  0.00     0.000 OA
HETATM   20  C16 UNL     1      22.377   2.204  47.625  1.00  0.00     0.125 A 
HETATM   21  N3  UNL     1      21.480   3.106  47.793  1.00  0.00    -0.311 N 
HETATM   22  H20 UNL     1      20.840   3.341  47.014  1.00  0.00     0.186 HD
ENDBRANCH   5  19
BRANCH   4  23
HETATM   23  O1  UNL     1      23.582   4.955  49.926  1.00  0.00    -0.385 OA
HETATM   24  C14 UNL     1      23.418   5.287  51.284  1.00  0.00     0.202 C 
ENDBRANCH   4  23
TORSDOF 5
ENDMDL
MODEL 9
REMARK VINA RESULT:      -7.1      3.086      6.640
REMARK  5 active torsions:
REMARK  status: ('A' for Active; 'I' for Inactive)
REMARK    1  A    between atoms: C2_2  and  C3_3 
REMARK    2  A    between atoms: N1_9  and  C9_10 
REMARK    3  A    between atoms: C11_12  and  C12_13 
REMARK    4  A    between atoms: C13_15  and  O1_16 
REMARK    5  A    between atoms: C15_18  and  O2_19 
ROOT
HETATM    1  C9  UNL     1      22.891   0.815  51.956  1.00  0.00     0.032 A 
HETATM    2  C10 UNL     1      22.041   0.755  50.914  1.00  0.00     0.016 A 
HETATM    3  C11 UNL     1      21.621   1.550  49.733  1.00  0.00     0.084 A 
HETATM    4  C13 UNL     1      22.427   2.847  49.761  1.00  0.00     0.167 A 
HETATM    5  C15 UNL     1      23.339   2.862  50.919  1.00  0.00    -0.017 A 
HETATM    6  C17 UNL     1      23.622   2.068  51.906  1.00  0.00     0.039 A 
ENDROOT
BRANCH   1   7
HETATM    7  N1  UNL     1      23.032  -0.179  52.934  1.00  0.00    -0.347 N 
HETATM    8  C4  UNL     1      24.319  -0.483  53.454  1.00  0.00     0.034 C 
HETATM    9  C3  UNL     1      25.402  -0.283  52.744  1.00  0.00     0.025 C 
HETATM   10  C5  UNL     1      24.482  -1.036  54.786  1.00  0.00     0.025 C 
HETATM   11  C6  UNL     1      23.353  -1.241  55.490  1.00  0.00    -0.023 C 
HETATM   12  C7  UNL     1      21.982  -0.949  55.009  1.00  0.00     0.047 C 
HETATM   13  C8  UNL     1      21.928  -0.967  53.496  1.00  0.00     0.133 C 
BRANCH   9  14
HETATM   14  C2  UNL     1      26.675  -0.640  53.355  1.00  0.00    -0.024 C 
HETATM   15  C1  UNL     1      27.834   0.038  53.466  1.00  0.00     0.031 C 
ENDBRANCH   9  14
ENDBRANCH   1   7
BRANCH   3  16
HETATM   16  C12 UNL     1      20.166   1.866  49.768  1.00  0.00     0.091 C 
HETATM   17  N2  UNL     1      19.846   1.954  48.527  1.00  0.00    -0.316 NA
HETATM   18  H14 UNL     1      18.838   2.176  48.351  1.00  0.00     0.185 HD
ENDBRANCH   3  16
BRANCH   5  19
HETATM   19  O2  UNL     1      24.050   4.069  50.883  1.00  0.00     0.000 OA
HETATM   20  C16 UNL     1      25.407   4.013  50.604  1.00  0.00     0.125 A 
HETATM   21  N3  UNL     1      24.765   5.096  50.849  1.00  0.00    -0.311 N 
HETATM   22  H20 UNL     1      25.268   6.001  50.847  1.00  0.00     0.186 HD
ENDBRANCH   5  19
BRANCH   4  23
HETATM   23  O1  UNL     1      23.135   3.014  48.556  1.00  0.00    -0.385 OA
HETATM   24  C14 UNL     1      22.575   4.110  47.871  1.00  0.00     0.202 C 
ENDBRANCH   4  23
TORSDOF 5
ENDMDL
