MODEL 1
REMARK VINA RESULT:      -7.0      0.000      0.000
REMARK  5 active torsions:
REMARK  status: ('A' for Active; 'I' for Inactive)
REMARK    1  A    between atoms: C2_2  and  C3_3 
REMARK    2  A    between atoms: C3_3  and  C4_4 
REMARK    3  A    between atoms: C4_4  and  N1_5 
REMARK    4  A    between atoms: C7_8  and  O1_10 
REMARK    5  A    between atoms: C14_18  and  C15_19 
ROOT
HETATM    1  N1  UNL     1      25.820   0.707  54.033  1.00  0.00    -0.367 N 
HETATM    2  C5  UNL     1      24.874  -0.325  53.717  1.00  0.00     0.087 C 
HETATM    3  C6  UNL     1      23.657  -0.330  53.193  1.00  0.00     0.033 C 
HETATM    4  C7  UNL     1      22.740   0.796  52.793  1.00  0.00     0.121 C 
HETATM    5  C8  UNL     1      22.076   0.384  51.516  1.00  0.00     0.057 C 
HETATM    6  C9  UNL     1      23.583   2.010  52.584  1.00  0.00     0.016 C 
HETATM    7  C10 UNL     1      24.114   1.466  51.462  1.00  0.00    -0.018 C 
HETATM    8  C11 UNL     1      25.399   1.099  51.565  1.00  0.00    -0.010 C 
HETATM    9  C12 UNL     1      26.494   1.954  52.152  1.00  0.00     0.077 C 
HETATM   10  C13 UNL     1      26.146   2.081  53.647  1.00  0.00     0.211 C 
HETATM   11  N2  UNL     1      25.041   3.006  53.862  1.00  0.00    -0.268 NA
HETATM   12  C14 UNL     1      24.011   3.305  53.097  1.00  0.00     0.041 C 
ENDROOT
BRANCH   1  13
HETATM   13  C4  UNL     1      26.727   0.191  55.076  1.00  0.00     0.124 C 
BRANCH  13  14
HETATM   14  C3  UNL     1      28.126   0.402  54.530  1.00  0.00     0.019 C 
BRANCH  14  15
HETATM   15  C2  UNL     1      28.572  -0.774  53.680  1.00  0.00    -0.003 C 
HETATM   16  C1  UNL     1      30.068  -0.631  53.497  1.00  0.00     0.005 C 
ENDBRANCH  14  15
ENDBRANCH  13  14
ENDBRANCH   1  13
BRANCH   4  17
HETATM   17  O1  UNL     1      21.798   0.872  53.786  1.00  0.00    -0.292 OA
HETATM   18 BR1  UNL     1      21.129  -0.793  54.213  1.00  0.00     0.100 Br
ENDBRANCH   4  17
BRANCH  12  19
HETATM   19  C15 UNL     1      23.505   4.701  52.903  1.00  0.00     0.055 C 
HETATM   20  C16 UNL     1      22.150   4.737  52.260  1.00  0.00     0.011 C 
ENDBRANCH  12  19
TORSDOF 5
ENDMDL
MODEL 2
REMARK VINA RESULT:      -6.9      2.703      4.870
REMARK  5 active torsions:
REMARK  status: ('A' for Active; 'I' for Inactive)
REMARK    1  A    between atoms: C2_2  and  C3_3 
REMARK    2  A    between atoms: C3_3  and  C4_4 
REMARK    3  A    between atoms: C4_4  and  N1_5 
REMARK    4  A    between atoms: C7_8  and  O1_10 
REMARK    5  A    between atoms: C14_18  and  C15_19 
ROOT
HETATM    1  N1  UNL     1      23.171   1.253  52.238  1.00  0.00    -0.367 N 
HETATM    2  C5  UNL     1      23.900   0.324  53.053  1.00  0.00     0.087 C 
HETATM    3  C6  UNL     1      25.188   0.057  53.217  1.00  0.00     0.033 C 
HETATM    4  C7  UNL     1      26.413   0.589  52.522  1.00  0.00     0.121 C 
HETATM    5  C8  UNL     1      27.466   0.769  53.571  1.00  0.00     0.057 C 
HETATM    6  C9  UNL     1      26.048   1.900  51.909  1.00  0.00     0.016 C 
HETATM    7  C10 UNL     1      25.967   2.468  53.136  1.00  0.00    -0.018 C 
HETATM    8  C11 UNL     1      24.725   2.779  53.535  1.00  0.00    -0.010 C 
HETATM    9  C12 UNL     1      23.705   3.502  52.692  1.00  0.00     0.077 C 
HETATM   10  C13 UNL     1      23.368   2.529  51.547  1.00  0.00     0.211 C 
HETATM   11  N2  UNL     1      24.437   2.475  50.558  1.00  0.00    -0.268 NA
HETATM   12  C14 UNL     1      25.738   2.637  50.690  1.00  0.00     0.041 C 
ENDROOT
BRANCH   1  13
HETATM   13  C4  UNL     1      21.804   0.728  52.059  1.00  0.00     0.124 C 
BRANCH  13  14
HETATM   14  C3  UNL     1      21.203   0.691  53.451  1.00  0.00     0.019 C 
BRANCH  14  15
HETATM   15  C2  UNL     1      20.266  -0.491  53.618  1.00  0.00    -0.003 C 
HETATM   16  C1  UNL     1      21.066  -1.584  54.293  1.00  0.00     0.005 C 
ENDBRANCH  14  15
ENDBRANCH  13  14
ENDBRANCH   1  13
BRANCH   4  17
HETATM   17  O1  UNL     1      26.803  -0.400  51.657  1.00  0.00    -0.292 OA
HETATM   18 BR1  UNL     1      26.948  -2.028  52.511  1.00  0.00     0.100 Br
ENDBRANCH   4  17
BRANCH  12  19
HETATM   19  C15 UNL     1      26.575   3.417  49.724  1.00  0.00     0.055 C 
HETATM   20  C16 UNL     1      26.024   4.789  49.465  1.00  0.00     0.011 C 
ENDBRANCH  12  19
TORSDOF 5
ENDMDL
MODEL 3
REMARK VINA RESULT:      -6.8      2.870      5.015
REMARK  5 active torsions:
REMARK  status: ('A' for Active; 'I' for Inactive)
REMARK    1  A    between atoms: C2_2  and  C3_3 
REMARK    2  A    between atoms: C3_3  and  C4_4 
REMARK    3  A    between atoms: C4_4  and  N1_5 
REMARK    4  A    between atoms: C7_8  and  O1_10 
REMARK    5  A    between atoms: C14_18  and  C15_19 
ROOT
HETATM    1  N1  UNL     1      23.956   0.275  53.073  1.00  0.00    -0.367 N 
HETATM    2  C5  UNL     1      24.892  -0.317  53.986  1.00  0.00     0.087 C 
HETATM    3  C6  UNL     1      26.206  -0.240  54.136  1.00  0.00     0.033 C 
HETATM    4  C7  UNL     1      27.263   0.460  53.322  1.00  0.00     0.121 C 
HETATM    5  C8  UNL     1      28.244   1.043  54.292  1.00  0.00     0.057 C 
HETATM    6  C9  UNL     1      26.588   1.537  52.540  1.00  0.00     0.016 C 
HETATM    7  C10 UNL     1      26.375   2.248  53.674  1.00  0.00    -0.018 C 
HETATM    8  C11 UNL     1      25.096   2.307  54.072  1.00  0.00    -0.010 C 
HETATM    9  C12 UNL     1      23.928   2.629  53.172  1.00  0.00     0.077 C 
HETATM   10  C13 UNL     1      23.835   1.441  52.196  1.00  0.00     0.211 C 
HETATM   11  N2  UNL     1      24.883   1.498  51.184  1.00  0.00    -0.268 NA
HETATM   12  C14 UNL     1      26.105   1.984  51.240  1.00  0.00     0.041 C 
ENDROOT
BRANCH   1  13
HETATM   13  C4  UNL     1      22.758  -0.583  53.026  1.00  0.00     0.124 C 
BRANCH  13  14
HETATM   14  C3  UNL     1      22.311  -0.728  54.469  1.00  0.00     0.019 C 
BRANCH  14  15
HETATM   15  C2  UNL     1      21.089   0.124  54.757  1.00  0.00    -0.003 C 
HETATM   16  C1  UNL     1      20.364   0.298  53.440  1.00  0.00     0.005 C 
ENDBRANCH  14  15
ENDBRANCH  13  14
ENDBRANCH   1  13
BRANCH   4  17
HETATM   17  O1  UNL     1      27.880  -0.526  52.596  1.00  0.00    -0.292 OA
HETATM   18 BR1  UNL     1      29.413  -1.123  53.431  1.00  0.00     0.100 Br
ENDBRANCH   4  17
BRANCH  12  19
HETATM   19  C15 UNL     1      26.725   2.788  50.139  1.00  0.00     0.055 C 
HETATM   20  C16 UNL     1      25.810   3.863  49.628  1.00  0.00     0.011 C 
ENDBRANCH  12  19
TORSDOF 5
ENDMDL
MODEL 4
REMARK VINA RESULT:      -6.7      2.011      4.780
REMARK  5 active torsions:
REMARK  status: ('A' for Active; 'I' for Inactive)
REMARK    1  A    between atoms: C2_2  and  C3_3 
REMARK    2  A    between atoms: C3_3  and  C4_4 
REMARK    3  A    between atoms: C4_4  and  N1_5 
REMARK    4  A    between atoms: C7_8  and  O1_10 
REMARK    5  A    between atoms: C14_18  and  C15_19 
ROOT
HETATM    1  N1  UNL     1      25.416   1.903  51.909  1.00  0.00    -0.367 N 
HETATM    2  C5  UNL     1      24.213   1.840  52.689  1.00  0.00     0.087 C 
HETATM    3  C6  UNL     1      23.670   0.919  53.473  1.00  0.00     0.033 C 
HETATM    4  C7  UNL     1      24.086  -0.494  53.785  1.00  0.00     0.121 C 
HETATM    5  C8  UNL     1      23.833  -0.709  55.246  1.00  0.00     0.057 C 
HETATM    6  C9  UNL     1      25.542  -0.613  53.478  1.00  0.00     0.016 C 
HETATM    7  C10 UNL     1      25.845   0.172  54.540  1.00  0.00    -0.018 C 
HETATM    8  C11 UNL     1      26.302   1.394  54.229  1.00  0.00    -0.010 C 
HETATM    9  C12 UNL     1      27.371   1.677  53.203  1.00  0.00     0.077 C 
HETATM   10  C13 UNL     1      26.743   1.289  51.851  1.00  0.00     0.211 C 
HETATM   11  N2  UNL     1      26.690  -0.158  51.682  1.00  0.00    -0.268 NA
HETATM   12  C14 UNL     1      26.562  -1.122  52.570  1.00  0.00     0.041 C 
ENDROOT
BRANCH   1  13
HETATM   13  C4  UNL     1      25.217   2.903  50.843  1.00  0.00     0.124 C 
BRANCH  13  14
HETATM   14  C3  UNL     1      26.479   2.850  50.004  1.00  0.00     0.019 C 
BRANCH  14  15
HETATM   15  C2  UNL     1      26.744   4.178  49.317  1.00  0.00    -0.003 C 
HETATM   16  C1  UNL     1      25.626   5.109  49.735  1.00  0.00     0.005 C 
ENDBRANCH  14  15
ENDBRANCH  13  14
ENDBRANCH   1  13
BRANCH   4  17
HETATM   17  O1  UNL     1      23.242  -1.294  53.059  1.00  0.00    -0.292 OA
HETATM   18 BR1  UNL     1      21.640  -1.558  53.933  1.00  0.00     0.100 Br
ENDBRANCH   4  17
BRANCH  12  19
HETATM   19  C15 UNL     1      27.349  -2.396  52.525  1.00  0.00     0.055 C 
HETATM   20  C16 UNL     1      28.740  -2.231  53.063  1.00  0.00     0.011 C 
ENDBRANCH  12  19
TORSDOF 5
ENDMDL
MODEL 5
REMARK VINA RESULT:      -6.4      2.760      5.112
REMARK  5 active torsions:
REMARK  status: ('A' for Active; 'I' for Inactive)
REMARK    1  A    between atoms: C2_2  and  C3_3 
REMARK    2  A    between atoms: C3_3  and  C4_4 
REMARK    3  A    between atoms: C4_4  and  N1_5 
REMARK    4  A    between atoms: C7_8  and  O1_10 
REMARK    5  A    between atoms: C14_18  and  C15_19 
ROOT
HETATM    1  N1  UNL     1      23.065   1.450  51.926  1.00  0.00    -0.367 N 
HETATM    2  C5  UNL     1      23.686   0.474  52.775  1.00  0.00     0.087 C 
HETATM    3  C6  UNL     1      24.944   0.164  53.056  1.00  0.00     0.033 C 
HETATM    4  C7  UNL     1      26.245   0.683  52.504  1.00  0.00     0.121 C 
HETATM    5  C8  UNL     1      27.192   0.797  53.658  1.00  0.00     0.057 C 
HETATM    6  C9  UNL     1      25.976   2.024  51.905  1.00  0.00     0.016 C 
HETATM    7  C10 UNL     1      25.788   2.553  53.138  1.00  0.00    -0.018 C 
HETATM    8  C11 UNL     1      24.521   2.886  53.424  1.00  0.00    -0.010 C 
HETATM    9  C12 UNL     1      23.609   3.667  52.510  1.00  0.00     0.077 C 
HETATM   10  C13 UNL     1      23.363   2.742  51.304  1.00  0.00     0.211 C 
HETATM   11  N2  UNL     1      24.524   2.690  50.424  1.00  0.00    -0.268 NA
HETATM   12  C14 UNL     1      25.808   2.809  50.689  1.00  0.00     0.041 C 
ENDROOT
BRANCH   1  13
HETATM   13  C4  UNL     1      21.710   0.972  51.594  1.00  0.00     0.124 C 
BRANCH  13  14
HETATM   14  C3  UNL     1      21.283   1.782  50.386  1.00  0.00     0.019 C 
BRANCH  14  15
HETATM   15  C2  UNL     1      21.210   0.920  49.139  1.00  0.00    -0.003 C 
HETATM   16  C1  UNL     1      22.012   1.635  48.073  1.00  0.00     0.005 C 
ENDBRANCH  14  15
ENDBRANCH  13  14
ENDBRANCH   1  13
BRANCH   4  17
HETATM   17  O1  UNL     1      26.694  -0.288  51.646  1.00  0.00    -0.292 OA
HETATM   18 BR1  UNL     1      26.969  -1.888  52.521  1.00  0.00     0.100 Br
ENDBRANCH   4  17
BRANCH  12  19
HETATM   19  C15 UNL     1      26.757   3.597  49.839  1.00  0.00     0.055 C 
HETATM   20  C16 UNL     1      26.127   4.835  49.272  1.00  0.00     0.011 C 
ENDBRANCH  12  19
TORSDOF 5
ENDMDL
MODEL 6
REMARK VINA RESULT:      -6.2      9.100     10.473
REMARK  5 active torsions:
REMARK  status: ('A' for Active; 'I' for Inactive)
REMARK    1  A    between atoms: C2_2  and  C3_3 
REMARK    2  A    between atoms: C3_3  and  C4_4 
REMARK    3  A    between atoms: C4_4  and  N1_5 
REMARK    4  A    between atoms: C7_8  and  O1_10 
REMARK    5  A    between atoms: C14_18  and  C15_19 
ROOT
HETATM    1  N1  UNL     1      32.843   6.077  47.726  1.00  0.00    -0.367 N 
HETATM    2  C5  UNL     1      32.865   7.364  47.091  1.00  0.00     0.087 C 
HETATM    3  C6  UNL     1      31.931   8.244  46.760  1.00  0.00     0.033 C 
HETATM    4  C7  UNL     1      30.428   8.185  46.854  1.00  0.00     0.121 C 
HETATM    5  C8  UNL     1      29.967   9.541  47.291  1.00  0.00     0.057 C 
HETATM    6  C9  UNL     1      30.082   7.153  47.876  1.00  0.00     0.016 C 
HETATM    7  C10 UNL     1      30.545   7.955  48.865  1.00  0.00    -0.018 C 
HETATM    8  C11 UNL     1      31.685   7.543  49.439  1.00  0.00    -0.010 C 
HETATM    9  C12 UNL     1      31.953   6.135  49.907  1.00  0.00     0.077 C 
HETATM   10  C13 UNL     1      31.996   5.287  48.622  1.00  0.00     0.211 C 
HETATM   11  N2  UNL     1      30.660   5.063  48.084  1.00  0.00    -0.268 NA
HETATM   12  C14 UNL     1      29.577   5.811  48.135  1.00  0.00     0.041 C 
ENDROOT
BRANCH   1  13
HETATM   13  C4  UNL     1      34.064   5.351  47.330  1.00  0.00     0.124 C 
BRANCH  13  14
HETATM   14  C3  UNL     1      33.620   4.375  46.257  1.00  0.00     0.019 C 
BRANCH  14  15
HETATM   15  C2  UNL     1      34.075   2.962  46.572  1.00  0.00    -0.003 C 
HETATM   16  C1  UNL     1      32.831   2.179  46.934  1.00  0.00     0.005 C 
ENDBRANCH  14  15
ENDBRANCH  13  14
ENDBRANCH   1  13
BRANCH   4  17
HETATM   17  O1  UNL     1      29.990   7.950  45.577  1.00  0.00    -0.292 OA
HETATM   18 BR1  UNL     1      28.236   8.475  45.357  1.00  0.00     0.100 Br
ENDBRANCH   4  17
BRANCH  12  19
HETATM   19  C15 UNL     1      28.208   5.265  48.401  1.00  0.00     0.055 C 
HETATM   20  C16 UNL     1      27.158   6.338  48.431  1.00  0.00     0.011 C 
ENDBRANCH  12  19
TORSDOF 5
ENDMDL
MODEL 7
REMARK VINA RESULT:      -5.9      2.561      3.761
REMARK  5 active torsions:
REMARK  status: ('A' for Active; 'I' for Inactive)
REMARK    1  A    between atoms: C2_2  and  C3_3 
REMARK    2  A    between atoms: C3_3  and  C4_4 
REMARK    3  A    between atoms: C4_4  and  N1_5 
REMARK    4  A    between atoms: C7_8  and  O1_10 
REMARK    5  A    between atoms: C14_18  and  C15_19 
ROOT
HETATM    1  N1  UNL     1      25.558   2.090  51.596  1.00  0.00    -0.367 N 
HETATM    2  C5  UNL     1      25.469   2.951  50.451  1.00  0.00     0.087 C 
HETATM    3  C6  UNL     1      24.465   3.394  49.707  1.00  0.00     0.033 C 
HETATM    4  C7  UNL     1      22.992   3.083  49.735  1.00  0.00     0.121 C 
HETATM    5  C8  UNL     1      22.271   4.372  49.486  1.00  0.00     0.057 C 
HETATM    6  C9  UNL     1      22.670   2.550  51.091  1.00  0.00     0.016 C 
HETATM    7  C10 UNL     1      22.863   3.775  51.635  1.00  0.00    -0.018 C 
HETATM    8  C11 UNL     1      23.962   3.890  52.396  1.00  0.00    -0.010 C 
HETATM    9  C12 UNL     1      24.377   2.908  53.463  1.00  0.00     0.077 C 
HETATM   10  C13 UNL     1      24.727   1.615  52.704  1.00  0.00     0.211 C 
HETATM   11  N2  UNL     1      23.529   0.918  52.253  1.00  0.00    -0.268 NA
HETATM   12  C14 UNL     1      22.348   1.382  51.901  1.00  0.00     0.041 C 
ENDROOT
BRANCH   1  13
HETATM   13  C4  UNL     1      26.919   1.525  51.638  1.00  0.00     0.124 C 
BRANCH  13  14
HETATM   14  C3  UNL     1      26.777   0.188  52.340  1.00  0.00     0.019 C 
BRANCH  14  15
HETATM   15  C2  UNL     1      27.996  -0.125  53.188  1.00  0.00    -0.003 C 
HETATM   16  C1  UNL     1      27.679   0.353  54.590  1.00  0.00     0.005 C 
ENDBRANCH  14  15
ENDBRANCH  13  14
ENDBRANCH   1  13
BRANCH   4  17
HETATM   17  O1  UNL     1      22.776   2.235  48.679  1.00  0.00    -0.292 OA
HETATM   18 BR1  UNL     1      20.976   1.942  48.404  1.00  0.00     0.100 Br
ENDBRANCH   4  17
BRANCH  12  19
HETATM   19  C15 UNL     1      21.055   0.744  52.309  1.00  0.00     0.055 C 
HETATM   20  C16 UNL     1      21.019   0.404  53.770  1.00  0.00     0.011 C 
ENDBRANCH  12  19
TORSDOF 5
ENDMDL
MODEL 8
REMARK VINA RESULT:      -5.9      3.334      4.664
REMARK  5 active torsions:
REMARK  status: ('A' for Active; 'I' for Inactive)
REMARK    1  A    between atoms: C2_2  and  C3_3 
REMARK    2  A    between atoms: C3_3  and  C4_4 
REMARK    3  A    between atoms: C4_4  and  N1_5 
REMARK    4  A    between atoms: C7_8  and  O1_10 
REMARK    5  A    between atoms: C14_18  and  C15_19 
ROOT
HETATM    1  N1  UNL     1      22.978   1.286  52.379  1.00  0.00    -0.367 N 
HETATM    2  C5  UNL     1      23.757   2.341  52.960  1.00  0.00     0.087 C 
HETATM    3  C6  UNL     1      24.184   3.518  52.525  1.00  0.00     0.033 C 
HETATM    4  C7  UNL     1      24.076   4.180  51.176  1.00  0.00     0.121 C 
HETATM    5  C8  UNL     1      23.797   5.630  51.424  1.00  0.00     0.057 C 
HETATM    6  C9  UNL     1      22.941   3.539  50.449  1.00  0.00     0.016 C 
HETATM    7  C10 UNL     1      22.053   4.125  51.289  1.00  0.00    -0.018 C 
HETATM    8  C11 UNL     1      21.440   3.287  52.138  1.00  0.00    -0.010 C 
HETATM    9  C12 UNL     1      20.814   1.972  51.748  1.00  0.00     0.077 C 
HETATM   10  C13 UNL     1      21.992   1.079  51.316  1.00  0.00     0.211 C 
HETATM   11  N2  UNL     1      22.494   1.454  50.000  1.00  0.00    -0.268 NA
HETATM   12  C14 UNL     1      22.525   2.623  49.395  1.00  0.00     0.041 C 
ENDROOT
BRANCH   1  13
HETATM   13  C4  UNL     1      23.293   0.037  53.097  1.00  0.00     0.124 C 
BRANCH  13  14
HETATM   14  C3  UNL     1      24.719   0.204  53.586  1.00  0.00     0.019 C 
BRANCH  14  15
HETATM   15  C2  UNL     1      25.653  -0.789  52.920  1.00  0.00    -0.003 C 
HETATM   16  C1  UNL     1      26.693   0.027  52.181  1.00  0.00     0.005 C 
ENDBRANCH  14  15
ENDBRANCH  13  14
ENDBRANCH   1  13
BRANCH   4  17
HETATM   17  O1  UNL     1      25.316   4.052  50.604  1.00  0.00    -0.292 OA
HETATM   18 BR1  UNL     1      25.570   5.282  49.255  1.00  0.00     0.100 Br
ENDBRANCH   4  17
BRANCH  12  19
HETATM   19  C15 UNL     1      22.191   2.812  47.947  1.00  0.00     0.055 C 
HETATM   20  C16 UNL     1      22.253   4.252  47.527  1.00  0.00     0.011 C 
ENDBRANCH  12  19
TORSDOF 5
ENDMDL
MODEL 9
REMARK VINA RESULT:      -5.9      3.696      5.152
REMARK  5 active torsions:
REMARK  status: ('A' for Active; 'I' for Inactive)
REMARK    1  A    between atoms: C2_2  and  C3_3 
REMARK    2  A    between atoms: C3_3  and  C4_4 
REMARK    3  A    between atoms: C4_4  and  N1_5 
REMARK    4  A    between atoms: C7_8  and  O1_10 
REMARK    5  A    between atoms: C14_18  and  C15_19 
ROOT
HETATM    1  N1  UNL     1      23.075   1.214  52.460  1.00  0.00    -0.367 N 
HETATM    2  C5  UNL     1      23.852   2.281  53.023  1.00  0.00     0.087 C 
HETATM    3  C6  UNL     1      24.257   3.461  52.575  1.00  0.00     0.033 C 
HETATM    4  C7  UNL     1      24.121   4.115  51.225  1.00  0.00     0.121 C 
HETATM    5  C8  UNL     1      23.828   5.563  51.471  1.00  0.00     0.057 C 
HETATM    6  C9  UNL     1      22.981   3.458  50.520  1.00  0.00     0.016 C 
HETATM    7  C10 UNL     1      22.100   4.036  51.372  1.00  0.00    -0.018 C 
HETATM    8  C11 UNL     1      21.511   3.196  52.234  1.00  0.00    -0.010 C 
HETATM    9  C12 UNL     1      20.894   1.871  51.860  1.00  0.00     0.077 C 
HETATM   10  C13 UNL     1      22.076   0.990  51.414  1.00  0.00     0.211 C 
HETATM   11  N2  UNL     1      22.552   1.365  50.088  1.00  0.00    -0.268 NA
HETATM   12  C14 UNL     1      22.559   2.532  49.477  1.00  0.00     0.041 C 
ENDROOT
BRANCH   1  13
HETATM   13  C4  UNL     1      23.417  -0.028  53.179  1.00  0.00     0.124 C 
BRANCH  13  14
HETATM   14  C3  UNL     1      22.173  -0.892  53.099  1.00  0.00     0.019 C 
BRANCH  14  15
HETATM   15  C2  UNL     1      21.672  -1.270  54.481  1.00  0.00    -0.003 C 
HETATM   16  C1  UNL     1      22.891  -1.341  55.377  1.00  0.00     0.005 C 
ENDBRANCH  14  15
ENDBRANCH  13  14
ENDBRANCH   1  13
BRANCH   4  17
HETATM   17  O1  UNL     1      25.352   3.998  50.635  1.00  0.00    -0.292 OA
HETATM   18 BR1  UNL     1      25.547   5.183  49.235  1.00  0.00     0.100 Br
ENDBRANCH   4  17
BRANCH  12  19
HETATM   19  C15 UNL     1      22.200   2.710  48.034  1.00  0.00     0.055 C 
HETATM   20  C16 UNL     1      22.217   4.150  47.611  1.00  0.00     0.011 C 
ENDBRANCH  12  19
TORSDOF 5
ENDMDL
