MODEL 1
REMARK VINA RESULT:      -8.8      0.000      0.000
REMARK  4 active torsions:
REMARK  status: ('A' for Active; 'I' for Inactive)
REMARK    1  A    between atoms: O1_1  and  C1_2 
REMARK    2  A    between atoms: C3_5  and  N1_6 
REMARK    3  A    between atoms: C4_8  and  C5_9 
REMARK    4  A    between atoms: C12_17  and  C13_18 
ROOT
HETATM    1  N1  UNL     1      26.368   0.586  52.599  1.00  0.00    -0.236 N 
HETATM    2  N2  UNL     1      25.907   1.145  51.421  1.00  0.00    -0.173 NA
HETATM    3  C4  UNL     1      25.487   2.360  51.576  1.00  0.00     0.067 C 
HETATM    4  C11 UNL     1      25.688   2.667  53.033  1.00  0.00     0.094 C 
HETATM    5  C12 UNL     1      25.517   1.259  53.565  1.00  0.00     0.151 C 
ENDROOT
BRANCH   1   6
HETATM    6  C3  UNL     1      27.407  -0.413  52.930  1.00  0.00     0.192 A 
HETATM    7  S1  UNL     1      28.989   0.372  53.451  1.00  0.00    -0.058 SA
HETATM    8  C2  UNL     1      29.781  -1.323  53.697  1.00  0.00     0.111 A 
HETATM    9  C1  UNL     1      28.699  -2.158  53.339  1.00  0.00     0.171 A 
HETATM   10  N3  UNL     1      27.592  -1.546  52.982  1.00  0.00    -0.198 NA
BRANCH   9  11
HETATM   11  O1  UNL     1      28.603  -3.568  53.297  1.00  0.00    -0.344 OA
HETATM   12  H1  UNL     1      28.898  -4.057  52.462  1.00  0.00     0.219 HD
ENDBRANCH   9  11
ENDBRANCH   1   6
BRANCH   5  13
HETATM   13  C13 UNL     1      24.119   0.868  53.476  1.00  0.00    -0.033 A 
HETATM   14  C14 UNL     1      23.963  -0.449  53.874  1.00  0.00     0.011 A 
HETATM   15  C15 UNL     1      22.741  -1.104  53.899  1.00  0.00     0.019 A 
HETATM   16  C16 UNL     1      21.583  -0.421  53.504  1.00  0.00     0.011 A 
HETATM   17 BR1  UNL     1      19.841  -1.165  53.478  1.00  0.00    -0.051 Br
HETATM   18  C17 UNL     1      21.732   0.907  53.101  1.00  0.00     0.019 A 
HETATM   19  C18 UNL     1      22.959   1.506  53.095  1.00  0.00     0.011 A 
ENDBRANCH   5  13
BRANCH   3  20
HETATM   20  C5  UNL     1      24.943   3.217  50.528  1.00  0.00    -0.010 A 
HETATM   21  C6  UNL     1      23.745   2.829  49.966  1.00  0.00     0.016 A 
HETATM   22  C7  UNL     1      23.169   3.573  48.984  1.00  0.00     0.043 A 
HETATM   23  C8  UNL     1      23.802   4.728  48.553  1.00  0.00     0.116 A 
HETATM   24  F1  UNL     1      23.242   5.473  47.581  1.00  0.00    -0.206 F 
HETATM   25  C9  UNL     1      24.989   5.064  49.146  1.00  0.00     0.043 A 
HETATM   26  C10 UNL     1      25.624   4.350  50.150  1.00  0.00     0.016 A 
ENDBRANCH   3  20
TORSDOF 4
ENDMDL
MODEL 2
REMARK VINA RESULT:      -8.3      2.067      2.581
REMARK  4 active torsions:
REMARK  status: ('A' for Active; 'I' for Inactive)
REMARK    1  A    between atoms: O1_1  and  C1_2 
REMARK    2  A    between atoms: C3_5  and  N1_6 
REMARK    3  A    between atoms: C4_8  and  C5_9 
REMARK    4  A    between atoms: C12_17  and  C13_18 
ROOT
HETATM    1  N1  UNL     1      25.441   2.093  52.327  1.00  0.00    -0.236 N 
HETATM    2  N2  UNL     1      24.972   2.095  51.026  1.00  0.00    -0.173 NA
HETATM    3  C4  UNL     1      24.095   3.023  50.813  1.00  0.00     0.067 C 
HETATM    4  C11 UNL     1      23.950   3.741  52.124  1.00  0.00     0.094 C 
HETATM    5  C12 UNL     1      24.266   2.573  53.034  1.00  0.00     0.151 C 
ENDROOT
BRANCH   1   6
HETATM    6  C3  UNL     1      26.728   1.733  52.960  1.00  0.00     0.192 A 
HETATM    7  S1  UNL     1      27.118  -0.057  52.781  1.00  0.00    -0.058 SA
HETATM    8  C2  UNL     1      28.735   0.173  53.726  1.00  0.00     0.111 A 
HETATM    9  C1  UNL     1      28.671   1.558  53.996  1.00  0.00     0.171 A 
HETATM   10  N3  UNL     1      27.607   2.184  53.546  1.00  0.00    -0.198 NA
BRANCH   9  11
HETATM   11  O1  UNL     1      29.574   2.402  54.683  1.00  0.00    -0.344 OA
HETATM   12  H1  UNL     1      30.394   2.744  54.198  1.00  0.00     0.219 HD
ENDBRANCH   9  11
ENDBRANCH   1   6
BRANCH   5  13
HETATM   13  C13 UNL     1      23.159   1.630  53.025  1.00  0.00    -0.033 A 
HETATM   14  C14 UNL     1      21.957   2.304  52.888  1.00  0.00     0.011 A 
HETATM   15  C15 UNL     1      20.724   1.671  52.844  1.00  0.00     0.019 A 
HETATM   16  C16 UNL     1      20.659   0.275  52.943  1.00  0.00     0.011 A 
HETATM   17 BR1  UNL     1      19.062  -0.742  52.901  1.00  0.00    -0.051 Br
HETATM   18  C17 UNL     1      21.867  -0.411  53.082  1.00  0.00     0.019 A 
HETATM   19  C18 UNL     1      23.056   0.260  53.119  1.00  0.00     0.011 A 
ENDBRANCH   5  13
BRANCH   3  20
HETATM   20  C5  UNL     1      23.415   3.283  49.548  1.00  0.00    -0.010 A 
HETATM   21  C6  UNL     1      22.734   2.228  48.979  1.00  0.00     0.016 A 
HETATM   22  C7  UNL     1      22.073   2.387  47.800  1.00  0.00     0.043 A 
HETATM   23  C8  UNL     1      22.093   3.625  47.177  1.00  0.00     0.116 A 
HETATM   24  F1  UNL     1      21.443   3.795  46.010  1.00  0.00    -0.206 F 
HETATM   25  C9  UNL     1      22.784   4.636  47.788  1.00  0.00     0.043 A 
HETATM   26  C10 UNL     1      23.475   4.537  48.985  1.00  0.00     0.016 A 
ENDBRANCH   3  20
TORSDOF 4
ENDMDL
MODEL 3
REMARK VINA RESULT:      -8.1      4.717      7.230
REMARK  4 active torsions:
REMARK  status: ('A' for Active; 'I' for Inactive)
REMARK    1  A    between atoms: O1_1  and  C1_2 
REMARK    2  A    between atoms: C3_5  and  N1_6 
REMARK    3  A    between atoms: C4_8  and  C5_9 
REMARK    4  A    between atoms: C12_17  and  C13_18 
ROOT
HETATM    1  N1  UNL     1      23.587   1.775  51.475  1.00  0.00    -0.236 N 
HETATM    2  N2  UNL     1      24.764   1.059  51.594  1.00  0.00    -0.173 NA
HETATM    3  C4  UNL     1      25.528   1.506  52.539  1.00  0.00     0.067 C 
HETATM    4  C11 UNL     1      24.782   2.664  53.139  1.00  0.00     0.094 C 
HETATM    5  C12 UNL     1      24.034   3.094  51.893  1.00  0.00     0.151 C 
ENDROOT
BRANCH   1   6
HETATM    6  C3  UNL     1      22.210   1.437  51.058  1.00  0.00     0.192 A 
HETATM    7  S1  UNL     1      21.320   0.445  52.327  1.00  0.00    -0.058 SA
HETATM    8  C2  UNL     1      19.780   0.380  51.237  1.00  0.00     0.111 A 
HETATM    9  C1  UNL     1      20.233   1.120  50.123  1.00  0.00     0.171 A 
HETATM   10  N3  UNL     1      21.464   1.574  50.194  1.00  0.00    -0.198 NA
BRANCH   9  11
HETATM   11  O1  UNL     1      19.575   1.462  48.919  1.00  0.00    -0.344 OA
HETATM   12  H1  UNL     1      19.965   1.151  48.039  1.00  0.00     0.219 HD
ENDBRANCH   9  11
ENDBRANCH   1   6
BRANCH   5  13
HETATM   13  C13 UNL     1      24.958   3.715  50.957  1.00  0.00    -0.033 A 
HETATM   14  C14 UNL     1      24.704   5.073  50.864  1.00  0.00     0.011 A 
HETATM   15  C15 UNL     1      25.425   5.934  50.050  1.00  0.00     0.019 A 
HETATM   16  C16 UNL     1      26.471   5.431  49.267  1.00  0.00     0.011 A 
HETATM   17 BR1  UNL     1      27.551   6.466  48.105  1.00  0.00    -0.051 Br
HETATM   18  C17 UNL     1      26.733   4.063  49.355  1.00  0.00     0.019 A 
HETATM   19  C18 UNL     1      25.993   3.257  50.173  1.00  0.00     0.011 A 
ENDBRANCH   5  13
BRANCH   3  20
HETATM   20  C5  UNL     1      26.831   0.967  52.913  1.00  0.00    -0.010 A 
HETATM   21  C6  UNL     1      26.991  -0.399  52.815  1.00  0.00     0.016 A 
HETATM   22  C7  UNL     1      28.176  -0.981  53.144  1.00  0.00     0.043 A 
HETATM   23  C8  UNL     1      29.222  -0.184  53.580  1.00  0.00     0.116 A 
HETATM   24  F1  UNL     1      30.400  -0.749  53.909  1.00  0.00    -0.206 F 
HETATM   25  C9  UNL     1      29.006   1.166  53.657  1.00  0.00     0.043 A 
HETATM   26  C10 UNL     1      27.826   1.817  53.337  1.00  0.00     0.016 A 
ENDBRANCH   3  20
TORSDOF 4
ENDMDL
MODEL 4
REMARK VINA RESULT:      -8.0      4.275      6.602
REMARK  4 active torsions:
REMARK  status: ('A' for Active; 'I' for Inactive)
REMARK    1  A    between atoms: O1_1  and  C1_2 
REMARK    2  A    between atoms: C3_5  and  N1_6 
REMARK    3  A    between atoms: C4_8  and  C5_9 
REMARK    4  A    between atoms: C12_17  and  C13_18 
ROOT
HETATM    1  N1  UNL     1      24.803   3.067  51.318  1.00  0.00    -0.236 N 
HETATM    2  N2  UNL     1      23.881   2.039  51.400  1.00  0.00    -0.173 NA
HETATM    3  C4  UNL     1      23.524   1.784  52.618  1.00  0.00     0.067 C 
HETATM    4  C11 UNL     1      24.292   2.756  53.468  1.00  0.00     0.094 C 
HETATM    5  C12 UNL     1      25.508   2.893  52.576  1.00  0.00     0.151 C 
ENDROOT
BRANCH   1   6
HETATM    6  C3  UNL     1      25.102   4.108  50.311  1.00  0.00     0.192 A 
HETATM    7  S1  UNL     1      23.578   4.923  49.676  1.00  0.00    -0.058 SA
HETATM    8  C2  UNL     1      24.608   6.029  48.546  1.00  0.00     0.111 A 
HETATM    9  C1  UNL     1      25.905   5.571  48.864  1.00  0.00     0.171 A 
HETATM   10  N3  UNL     1      25.975   4.612  49.760  1.00  0.00    -0.198 NA
BRANCH   9  11
HETATM   11  O1  UNL     1      27.168   5.976  48.372  1.00  0.00    -0.344 OA
HETATM   12  H1  UNL     1      27.318   6.950  48.144  1.00  0.00     0.219 HD
ENDBRANCH   9  11
ENDBRANCH   1   6
BRANCH   5  13
HETATM   13  C13 UNL     1      26.298   1.673  52.634  1.00  0.00    -0.033 A 
HETATM   14  C14 UNL     1      27.313   1.803  53.566  1.00  0.00     0.011 A 
HETATM   15  C15 UNL     1      28.231   0.801  53.846  1.00  0.00     0.019 A 
HETATM   16  C16 UNL     1      28.152  -0.418  53.162  1.00  0.00     0.011 A 
HETATM   17 BR1  UNL     1      29.322  -1.885  53.423  1.00  0.00    -0.051 Br
HETATM   18  C17 UNL     1      27.132  -0.557  52.220  1.00  0.00     0.019 A 
HETATM   19  C18 UNL     1      26.253   0.461  51.982  1.00  0.00     0.011 A 
ENDBRANCH   5  13
BRANCH   3  20
HETATM   20  C5  UNL     1      22.571   0.761  53.034  1.00  0.00    -0.010 A 
HETATM   21  C6  UNL     1      21.233   1.058  52.881  1.00  0.00     0.016 A 
HETATM   22  C7  UNL     1      20.280   0.158  53.244  1.00  0.00     0.043 A 
HETATM   23  C8  UNL     1      20.670  -1.063  53.772  1.00  0.00     0.116 A 
HETATM   24  F1  UNL     1      19.735  -1.962  54.136  1.00  0.00    -0.206 F 
HETATM   25  C9  UNL     1      22.011  -1.303  53.901  1.00  0.00     0.043 A 
HETATM   26  C10 UNL     1      23.028  -0.429  53.550  1.00  0.00     0.016 A 
ENDBRANCH   3  20
TORSDOF 4
ENDMDL
MODEL 5
REMARK VINA RESULT:      -8.0      4.264      6.230
REMARK  4 active torsions:
REMARK  status: ('A' for Active; 'I' for Inactive)
REMARK    1  A    between atoms: O1_1  and  C1_2 
REMARK    2  A    between atoms: C3_5  and  N1_6 
REMARK    3  A    between atoms: C4_8  and  C5_9 
REMARK    4  A    between atoms: C12_17  and  C13_18 
ROOT
HETATM    1  N1  UNL     1      24.159   3.517  50.764  1.00  0.00    -0.236 N 
HETATM    2  N2  UNL     1      23.128   2.649  50.455  1.00  0.00    -0.173 NA
HETATM    3  C4  UNL     1      22.334   2.440  51.456  1.00  0.00     0.067 C 
HETATM    4  C11 UNL     1      22.889   3.265  52.582  1.00  0.00     0.094 C 
HETATM    5  C12 UNL     1      24.347   3.217  52.173  1.00  0.00     0.151 C 
ENDROOT
BRANCH   1   6
HETATM    6  C3  UNL     1      24.939   4.510  49.994  1.00  0.00     0.192 A 
HETATM    7  S1  UNL     1      23.863   5.620  48.994  1.00  0.00    -0.058 SA
HETATM    8  C2  UNL     1      25.375   6.539  48.338  1.00  0.00     0.111 A 
HETATM    9  C1  UNL     1      26.403   5.831  48.999  1.00  0.00     0.171 A 
HETATM   10  N3  UNL     1      26.016   4.852  49.785  1.00  0.00    -0.198 NA
BRANCH   9  11
HETATM   11  O1  UNL     1      27.807   6.000  48.958  1.00  0.00    -0.344 OA
HETATM   12  H1  UNL     1      28.262   6.123  48.062  1.00  0.00     0.219 HD
ENDBRANCH   9  11
ENDBRANCH   1   6
BRANCH   5  13
HETATM   13  C13 UNL     1      24.880   1.886  52.416  1.00  0.00    -0.033 A 
HETATM   14  C14 UNL     1      26.084   1.724  51.752  1.00  0.00     0.011 A 
HETATM   15  C15 UNL     1      26.834   0.558  51.796  1.00  0.00     0.019 A 
HETATM   16  C16 UNL     1      26.371  -0.533  52.543  1.00  0.00     0.011 A 
HETATM   17 BR1  UNL     1      27.269  -2.193  52.707  1.00  0.00    -0.051 Br
HETATM   18  C17 UNL     1      25.158  -0.378  53.215  1.00  0.00     0.019 A 
HETATM   19  C18 UNL     1      24.458   0.793  53.139  1.00  0.00     0.011 A 
ENDBRANCH   5  13
BRANCH   3  20
HETATM   20  C5  UNL     1      21.157   1.577  51.450  1.00  0.00    -0.010 A 
HETATM   21  C6  UNL     1      20.885   0.888  52.613  1.00  0.00     0.016 A 
HETATM   22  C7  UNL     1      19.806   0.063  52.690  1.00  0.00     0.043 A 
HETATM   23  C8  UNL     1      18.983  -0.078  51.584  1.00  0.00     0.116 A 
HETATM   24  F1  UNL     1      17.913  -0.893  51.648  1.00  0.00    -0.206 F 
HETATM   25  C9  UNL     1      19.303   0.630  50.457  1.00  0.00     0.043 A 
HETATM   26  C10 UNL     1      20.384   1.485  50.316  1.00  0.00     0.016 A 
ENDBRANCH   3  20
TORSDOF 4
ENDMDL
MODEL 6
REMARK VINA RESULT:      -7.9      3.389      5.328
REMARK  4 active torsions:
REMARK  status: ('A' for Active; 'I' for Inactive)
REMARK    1  A    between atoms: O1_1  and  C1_2 
REMARK    2  A    between atoms: C3_5  and  N1_6 
REMARK    3  A    between atoms: C4_8  and  C5_9 
REMARK    4  A    between atoms: C12_17  and  C13_18 
ROOT
HETATM    1  N1  UNL     1      25.722   1.124  53.160  1.00  0.00    -0.236 N 
HETATM    2  N2  UNL     1      24.510   0.787  53.735  1.00  0.00    -0.173 NA
HETATM    3  C4  UNL     1      23.654   0.342  52.871  1.00  0.00     0.067 C 
HETATM    4  C11 UNL     1      24.368   0.377  51.550  1.00  0.00     0.094 C 
HETATM    5  C12 UNL     1      25.283   1.549  51.842  1.00  0.00     0.151 C 
ENDROOT
BRANCH   1   6
HETATM    6  C3  UNL     1      27.125   1.111  53.627  1.00  0.00     0.192 A 
HETATM    7  S1  UNL     1      27.929  -0.526  53.375  1.00  0.00    -0.058 SA
HETATM    8  C2  UNL     1      29.539   0.120  54.120  1.00  0.00     0.111 A 
HETATM    9  C1  UNL     1      29.160   1.448  54.417  1.00  0.00     0.171 A 
HETATM   10  N3  UNL     1      27.926   1.778  54.109  1.00  0.00    -0.198 NA
BRANCH   9  11
HETATM   11  O1  UNL     1      29.897   2.503  55.002  1.00  0.00    -0.344 OA
HETATM   12  H1  UNL     1      29.719   2.753  55.966  1.00  0.00     0.219 HD
ENDBRANCH   9  11
ENDBRANCH   1   6
BRANCH   5  13
HETATM   13  C13 UNL     1      24.511   2.781  51.858  1.00  0.00    -0.033 A 
HETATM   14  C14 UNL     1      24.037   3.067  50.589  1.00  0.00     0.011 A 
HETATM   15  C15 UNL     1      23.265   4.179  50.291  1.00  0.00     0.019 A 
HETATM   16  C16 UNL     1      22.931   5.082  51.308  1.00  0.00     0.011 A 
HETATM   17 BR1  UNL     1      21.889   6.646  51.072  1.00  0.00    -0.051 Br
HETATM   18  C17 UNL     1      23.405   4.801  52.591  1.00  0.00     0.019 A 
HETATM   19  C18 UNL     1      24.163   3.690  52.832  1.00  0.00     0.011 A 
ENDBRANCH   5  13
BRANCH   3  20
HETATM   20  C5  UNL     1      22.292  -0.094  53.162  1.00  0.00    -0.010 A 
HETATM   21  C6  UNL     1      21.274   0.571  52.512  1.00  0.00     0.016 A 
HETATM   22  C7  UNL     1      19.976   0.225  52.728  1.00  0.00     0.043 A 
HETATM   23  C8  UNL     1      19.688  -0.804  53.610  1.00  0.00     0.116 A 
HETATM   24  F1  UNL     1      18.407  -1.154  53.831  1.00  0.00    -0.206 F 
HETATM   25  C9  UNL     1      20.739  -1.428  54.226  1.00  0.00     0.043 A 
HETATM   26  C10 UNL     1      22.079  -1.124  54.049  1.00  0.00     0.016 A 
ENDBRANCH   3  20
TORSDOF 4
ENDMDL
MODEL 7
REMARK VINA RESULT:      -7.9      3.324      5.241
REMARK  4 active torsions:
REMARK  status: ('A' for Active; 'I' for Inactive)
REMARK    1  A    between atoms: O1_1  and  C1_2 
REMARK    2  A    between atoms: C3_5  and  N1_6 
REMARK    3  A    between atoms: C4_8  and  C5_9 
REMARK    4  A    between atoms: C12_17  and  C13_18 
ROOT
HETATM    1  N1  UNL     1      24.786   2.571  50.930  1.00  0.00    -0.236 N 
HETATM    2  N2  UNL     1      25.753   3.090  50.089  1.00  0.00    -0.173 NA
HETATM    3  C4  UNL     1      25.670   4.376  49.966  1.00  0.00     0.067 C 
HETATM    4  C11 UNL     1      24.509   4.783  50.828  1.00  0.00     0.094 C 
HETATM    5  C12 UNL     1      23.700   3.509  50.699  1.00  0.00     0.151 C 
ENDROOT
BRANCH   1   6
HETATM    6  C3  UNL     1      24.729   1.412  51.847  1.00  0.00     0.192 A 
HETATM    7  S1  UNL     1      23.009   1.022  52.373  1.00  0.00    -0.058 SA
HETATM    8  C2  UNL     1      23.627  -0.418  53.424  1.00  0.00     0.111 A 
HETATM    9  C1  UNL     1      25.015  -0.329  53.177  1.00  0.00     0.171 A 
HETATM   10  N3  UNL     1      25.396   0.637  52.371  1.00  0.00    -0.198 NA
BRANCH   9  11
HETATM   11  O1  UNL     1      26.086  -1.116  53.659  1.00  0.00    -0.344 OA
HETATM   12  H1  UNL     1      26.911  -0.656  54.021  1.00  0.00     0.219 HD
ENDBRANCH   9  11
ENDBRANCH   1   6
BRANCH   5  13
HETATM   13  C13 UNL     1      23.134   3.421  49.362  1.00  0.00    -0.033 A 
HETATM   14  C14 UNL     1      22.763   4.678  48.915  1.00  0.00     0.011 A 
HETATM   15  C15 UNL     1      22.194   4.913  47.673  1.00  0.00     0.019 A 
HETATM   16  C16 UNL     1      21.968   3.840  46.802  1.00  0.00     0.011 A 
HETATM   17 BR1  UNL     1      21.203   3.988  45.075  1.00  0.00    -0.051 Br
HETATM   18  C17 UNL     1      22.340   2.570  47.244  1.00  0.00     0.019 A 
HETATM   19  C18 UNL     1      22.897   2.391  48.479  1.00  0.00     0.011 A 
ENDBRANCH   5  13
BRANCH   3  20
HETATM   20  C5  UNL     1      26.543   5.217  49.153  1.00  0.00    -0.010 A 
HETATM   21  C6  UNL     1      26.025   6.422  48.727  1.00  0.00     0.016 A 
HETATM   22  C7  UNL     1      26.774   7.264  47.965  1.00  0.00     0.043 A 
HETATM   23  C8  UNL     1      28.065   6.896  47.621  1.00  0.00     0.116 A 
HETATM   24  F1  UNL     1      28.815   7.721  46.866  1.00  0.00    -0.206 F 
HETATM   25  C9  UNL     1      28.525   5.688  48.071  1.00  0.00     0.043 A 
HETATM   26  C10 UNL     1      27.814   4.788  48.849  1.00  0.00     0.016 A 
ENDBRANCH   3  20
TORSDOF 4
ENDMDL
MODEL 8
REMARK VINA RESULT:      -7.8      1.665      2.288
REMARK  4 active torsions:
REMARK  status: ('A' for Active; 'I' for Inactive)
REMARK    1  A    between atoms: O1_1  and  C1_2 
REMARK    2  A    between atoms: C3_5  and  N1_6 
REMARK    3  A    between atoms: C4_8  and  C5_9 
REMARK    4  A    between atoms: C12_17  and  C13_18 
ROOT
HETATM    1  N1  UNL     1      25.301   1.400  52.017  1.00  0.00    -0.236 N 
HETATM    2  N2  UNL     1      25.156   2.141  50.858  1.00  0.00    -0.173 NA
HETATM    3  C4  UNL     1      24.620   3.300  51.071  1.00  0.00     0.067 C 
HETATM    4  C11 UNL     1      24.373   3.358  52.551  1.00  0.00     0.094 C 
HETATM    5  C12 UNL     1      24.162   1.876  52.783  1.00  0.00     0.151 C 
ENDROOT
BRANCH   1   6
HETATM    6  C3  UNL     1      26.274   0.387  52.478  1.00  0.00     0.192 A 
HETATM    7  S1  UNL     1      27.710   1.142  53.347  1.00  0.00    -0.058 SA
HETATM    8  C2  UNL     1      28.470  -0.562  53.632  1.00  0.00     0.111 A 
HETATM    9  C1  UNL     1      27.493  -1.375  53.016  1.00  0.00     0.171 A 
HETATM   10  N3  UNL     1      26.466  -0.746  52.492  1.00  0.00    -0.198 NA
BRANCH   9  11
HETATM   11  O1  UNL     1      27.432  -2.780  52.865  1.00  0.00    -0.344 OA
HETATM   12  H1  UNL     1      27.546  -3.369  53.680  1.00  0.00     0.219 HD
ENDBRANCH   9  11
ENDBRANCH   1   6
BRANCH   5  13
HETATM   13  C13 UNL     1      22.881   1.471  52.227  1.00  0.00    -0.033 A 
HETATM   14  C14 UNL     1      21.910   2.413  52.522  1.00  0.00     0.011 A 
HETATM   15  C15 UNL     1      20.587   2.303  52.123  1.00  0.00     0.019 A 
HETATM   16  C16 UNL     1      20.180   1.187  51.381  1.00  0.00     0.011 A 
HETATM   17 BR1  UNL     1      18.417   0.883  50.759  1.00  0.00    -0.051 Br
HETATM   18  C17 UNL     1      21.152   0.232  51.079  1.00  0.00     0.019 A 
HETATM   19  C18 UNL     1      22.443   0.388  51.497  1.00  0.00     0.011 A 
ENDBRANCH   5  13
BRANCH   3  20
HETATM   20  C5  UNL     1      24.334   4.310  50.057  1.00  0.00    -0.010 A 
HETATM   21  C6  UNL     1      25.378   5.132  49.687  1.00  0.00     0.016 A 
HETATM   22  C7  UNL     1      25.195   6.100  48.748  1.00  0.00     0.043 A 
HETATM   23  C8  UNL     1      23.946   6.250  48.167  1.00  0.00     0.116 A 
HETATM   24  F1  UNL     1      23.753   7.204  47.236  1.00  0.00    -0.206 F 
HETATM   25  C9  UNL     1      22.948   5.406  48.573  1.00  0.00     0.043 A 
HETATM   26  C10 UNL     1      23.070   4.403  49.522  1.00  0.00     0.016 A 
ENDBRANCH   3  20
TORSDOF 4
ENDMDL
MODEL 9
REMARK VINA RESULT:      -7.7      4.633      6.846
REMARK  4 active torsions:
REMARK  status: ('A' for Active; 'I' for Inactive)
REMARK    1  A    between atoms: O1_1  and  C1_2 
REMARK    2  A    between atoms: C3_5  and  N1_6 
REMARK    3  A    between atoms: C4_8  and  C5_9 
REMARK    4  A    between atoms: C12_17  and  C13_18 
ROOT
HETATM    1  N1  UNL     1      23.423   4.389  51.271  1.00  0.00    -0.236 N 
HETATM    2  N2  UNL     1      24.152   3.830  52.305  1.00  0.00    -0.173 NA
HETATM    3  C4  UNL     1      24.718   2.715  51.970  1.00  0.00     0.067 C 
HETATM    4  C11 UNL     1      24.331   2.486  50.537  1.00  0.00     0.094 C 
HETATM    5  C12 UNL     1      22.990   3.190  50.572  1.00  0.00     0.151 C 
ENDROOT
BRANCH   1   6
HETATM    6  C3  UNL     1      23.092   5.774  50.871  1.00  0.00     0.192 A 
HETATM    7  S1  UNL     1      24.596   6.787  50.558  1.00  0.00    -0.058 SA
HETATM    8  C2  UNL     1      23.531   8.286  50.133  1.00  0.00     0.111 A 
HETATM    9  C1  UNL     1      22.243   7.734  50.309  1.00  0.00     0.171 A 
HETATM   10  N3  UNL     1      22.202   6.473  50.678  1.00  0.00    -0.198 NA
BRANCH   9  11
HETATM   11  O1  UNL     1      20.965   8.319  50.155  1.00  0.00    -0.344 OA
HETATM   12  H1  UNL     1      20.164   7.718  50.004  1.00  0.00     0.219 HD
ENDBRANCH   9  11
ENDBRANCH   1   6
BRANCH   5  13
HETATM   13  C13 UNL     1      22.037   2.392  51.326  1.00  0.00    -0.033 A 
HETATM   14  C14 UNL     1      22.052   1.081  50.882  1.00  0.00     0.011 A 
HETATM   15  C15 UNL     1      21.250   0.082  51.413  1.00  0.00     0.019 A 
HETATM   16  C16 UNL     1      20.365   0.387  52.454  1.00  0.00     0.011 A 
HETATM   17 BR1  UNL     1      19.203  -0.856  53.289  1.00  0.00    -0.051 Br
HETATM   18  C17 UNL     1      20.343   1.707  52.908  1.00  0.00     0.019 A 
HETATM   19  C18 UNL     1      21.155   2.654  52.351  1.00  0.00     0.011 A 
ENDBRANCH   5  13
BRANCH   3  20
HETATM   20  C5  UNL     1      25.551   1.885  52.835  1.00  0.00    -0.010 A 
HETATM   21  C6  UNL     1      26.877   2.246  52.953  1.00  0.00     0.016 A 
HETATM   22  C7  UNL     1      27.722   1.525  53.739  1.00  0.00     0.043 A 
HETATM   23  C8  UNL     1      27.233   0.422  54.421  1.00  0.00     0.116 A 
HETATM   24  F1  UNL     1      28.059  -0.299  55.202  1.00  0.00    -0.206 F 
HETATM   25  C9  UNL     1      25.909   0.111  54.266  1.00  0.00     0.043 A 
HETATM   26  C10 UNL     1      25.000   0.804  53.482  1.00  0.00     0.016 A 
ENDBRANCH   3  20
TORSDOF 4
ENDMDL
