MODEL 1
REMARK VINA RESULT:      -7.1      0.000      0.000
REMARK  5 active torsions:
REMARK  status: ('A' for Active; 'I' for Inactive)
REMARK    1  A    between atoms: C2_2  and  C3_3 
REMARK       I    between atoms: C3_3  and  N1_5 
REMARK    2  A    between atoms: N1_5  and  C4_6 
REMARK    3  A    between atoms: N4_13  and  C9_14 
REMARK    4  A    between atoms: C9_14  and  C10_15 
REMARK    5  A    between atoms: C9_14  and  C12_17 
ROOT
HETATM    1  C12 UNL     1      25.142   3.368  49.560  1.00  0.00     0.006 C 
HETATM    2  C13 UNL     1      25.764   4.503  49.262  1.00  0.00     0.162 C 
HETATM    3 BR1  UNL     1      26.766   6.045  48.756  1.00  0.00    -0.172 Br
ENDROOT
BRANCH   1   4
HETATM    4  C9  UNL     1      23.909   3.359  50.367  1.00  0.00     0.125 C 
BRANCH   4   5
HETATM    5  N4  UNL     1      23.693   2.014  50.860  1.00  0.00    -0.208 NA
HETATM    6  N3  UNL     1      22.356   1.629  50.706  1.00  0.00    -0.311 N 
HETATM    7  C8  UNL     1      21.466   1.610  51.810  1.00  0.00     0.218 C 
HETATM    8  H8  UNL     1      22.039   1.355  49.729  1.00  0.00     0.181 HD
HETATM    9  N2  UNL     1      21.999   1.186  52.931  1.00  0.00    -0.246 NA
HETATM   10  C7  UNL     1      23.389   0.799  52.919  1.00  0.00     0.056 A 
HETATM   11  C6  UNL     1      23.737  -0.349  53.527  1.00  0.00     0.031 A 
HETATM   12  C14 UNL     1      24.199   1.809  52.202  1.00  0.00     0.138 A 
HETATM   13  C5  UNL     1      25.139  -0.746  53.518  1.00  0.00     0.027 A 
HETATM   14  C4  UNL     1      25.895   0.130  52.880  1.00  0.00     0.014 A 
HETATM   15  C15 UNL     1      25.646   1.391  52.190  1.00  0.00     0.085 A 
BRANCH  14  16
HETATM   16  N1  UNL     1      27.300  -0.182  52.823  1.00  0.00    -0.327 N 
HETATM   17  C3  UNL     1      28.225   0.274  53.804  1.00  0.00     0.244 C 
HETATM   18  O1  UNL     1      28.118   0.972  54.847  1.00  0.00    -0.268 OA
HETATM   19  H4  UNL     1      27.760  -0.767  52.064  1.00  0.00     0.169 HD
BRANCH  17  20
HETATM   20  C2  UNL     1      29.642  -0.031  53.763  1.00  0.00     0.064 C 
HETATM   21  C1  UNL     1      29.795  -1.302  53.421  1.00  0.00     0.017 C 
ENDBRANCH  17  20
ENDBRANCH  14  16
ENDBRANCH   4   5
BRANCH   4  22
HETATM   22  C10 UNL     1      23.838   4.406  51.387  1.00  0.00    -0.012 C 
HETATM   23  C11 UNL     1      22.906   5.234  51.853  1.00  0.00     0.009 C 
ENDBRANCH   4  22
ENDBRANCH   1   4
TORSDOF 5
ENDMDL
MODEL 2
REMARK VINA RESULT:      -7.0      2.008      2.755
REMARK  5 active torsions:
REMARK  status: ('A' for Active; 'I' for Inactive)
REMARK    1  A    between atoms: C2_2  and  C3_3 
REMARK       I    between atoms: C3_3  and  N1_5 
REMARK    2  A    between atoms: N1_5  and  C4_6 
REMARK    3  A    between atoms: N4_13  and  C9_14 
REMARK    4  A    between atoms: C9_14  and  C10_15 
REMARK    5  A    between atoms: C9_14  and  C12_17 
ROOT
HETATM    1  C12 UNL     1      21.972   2.767  51.602  1.00  0.00     0.006 C 
HETATM    2  C13 UNL     1      22.695   3.873  51.467  1.00  0.00     0.162 C 
HETATM    3 BR1  UNL     1      23.633   5.531  51.375  1.00  0.00    -0.172 Br
ENDROOT
BRANCH   1   4
HETATM    4  C9  UNL     1      22.317   1.532  50.875  1.00  0.00     0.125 C 
BRANCH   4   5
HETATM    5  N4  UNL     1      22.171   0.411  51.782  1.00  0.00    -0.208 NA
HETATM    6  N3  UNL     1      20.853  -0.058  51.795  1.00  0.00    -0.311 N 
HETATM    7  C8  UNL     1      19.976   0.244  52.868  1.00  0.00     0.218 C 
HETATM    8  H8  UNL     1      20.539  -0.647  50.967  1.00  0.00     0.181 HD
HETATM    9  N2  UNL     1      20.541   0.229  54.051  1.00  0.00    -0.246 NA
HETATM   10  C7  UNL     1      21.948  -0.082  54.130  1.00  0.00     0.056 A 
HETATM   11  C6  UNL     1      22.356  -0.956  55.067  1.00  0.00     0.031 A 
HETATM   12  C14 UNL     1      22.701   0.674  53.104  1.00  0.00     0.138 A 
HETATM   13  C5  UNL     1      23.776  -1.275  55.151  1.00  0.00     0.027 A 
HETATM   14  C4  UNL     1      24.482  -0.622  54.245  1.00  0.00     0.014 A 
HETATM   15  C15 UNL     1      24.166   0.336  53.191  1.00  0.00     0.085 A 
BRANCH  14  16
HETATM   16  N1  UNL     1      25.900  -0.877  54.256  1.00  0.00    -0.327 N 
HETATM   17  C3  UNL     1      26.852   0.114  54.626  1.00  0.00     0.244 C 
HETATM   18  O1  UNL     1      26.764   1.315  54.994  1.00  0.00    -0.268 OA
HETATM   19  H4  UNL     1      26.350  -1.804  53.997  1.00  0.00     0.169 HD
BRANCH  17  20
HETATM   20  C2  UNL     1      28.282  -0.125  54.643  1.00  0.00     0.064 C 
HETATM   21  C1  UNL     1      28.819   0.429  53.565  1.00  0.00     0.017 C 
ENDBRANCH  17  20
ENDBRANCH  14  16
ENDBRANCH   4   5
BRANCH   4  22
HETATM   22  C10 UNL     1      21.645   1.372  49.586  1.00  0.00    -0.012 C 
HETATM   23  C11 UNL     1      21.878   1.737  48.327  1.00  0.00     0.009 C 
ENDBRANCH   4  22
ENDBRANCH   1   4
TORSDOF 5
ENDMDL
MODEL 3
REMARK VINA RESULT:      -6.8      2.829      4.417
REMARK  5 active torsions:
REMARK  status: ('A' for Active; 'I' for Inactive)
REMARK    1  A    between atoms: C2_2  and  C3_3 
REMARK       I    between atoms: C3_3  and  N1_5 
REMARK    2  A    between atoms: N1_5  and  C4_6 
REMARK    3  A    between atoms: N4_13  and  C9_14 
REMARK    4  A    between atoms: C9_14  and  C10_15 
REMARK    5  A    between atoms: C9_14  and  C12_17 
ROOT
HETATM    1  C12 UNL     1      20.641   1.223  52.872  1.00  0.00     0.006 C 
HETATM    2  C13 UNL     1      19.591   0.523  52.458  1.00  0.00     0.162 C 
HETATM    3 BR1  UNL     1      17.992  -0.358  51.905  1.00  0.00    -0.172 Br
ENDROOT
BRANCH   1   4
HETATM    4  C9  UNL     1      22.006   0.672  52.800  1.00  0.00     0.125 C 
BRANCH   4   5
HETATM    5  N4  UNL     1      22.932   1.766  52.588  1.00  0.00    -0.208 NA
HETATM    6  N3  UNL     1      22.249   2.963  52.345  1.00  0.00    -0.311 N 
HETATM    7  C8  UNL     1      22.144   3.495  51.035  1.00  0.00     0.218 C 
HETATM    8  H8  UNL     1      21.814   3.453  53.183  1.00  0.00     0.181 HD
HETATM    9  N2  UNL     1      23.226   3.360  50.305  1.00  0.00    -0.246 NA
HETATM   10  C7  UNL     1      24.367   2.704  50.896  1.00  0.00     0.056 A 
HETATM   11  C6  UNL     1      25.579   3.264  50.733  1.00  0.00     0.031 A 
HETATM   12  C14 UNL     1      23.947   1.471  51.598  1.00  0.00     0.138 A 
HETATM   13  C5  UNL     1      26.736   2.607  51.328  1.00  0.00     0.027 A 
HETATM   14  C4  UNL     1      26.399   1.502  51.970  1.00  0.00     0.014 A 
HETATM   15  C15 UNL     1      25.145   0.800  52.216  1.00  0.00     0.085 A 
BRANCH  14  16
HETATM   16  N1  UNL     1      27.484   0.786  52.590  1.00  0.00    -0.327 N 
HETATM   17  C3  UNL     1      27.636   0.701  54.003  1.00  0.00     0.244 C 
HETATM   18  O1  UNL     1      26.981   1.151  54.980  1.00  0.00    -0.268 OA
HETATM   19  H4  UNL     1      28.248   0.269  52.063  1.00  0.00     0.169 HD
BRANCH  17  20
HETATM   20  C2  UNL     1      28.722  -0.015  54.644  1.00  0.00     0.064 C 
HETATM   21  C1  UNL     1      29.318  -0.781  53.742  1.00  0.00     0.017 C 
ENDBRANCH  17  20
ENDBRANCH  14  16
ENDBRANCH   4   5
BRANCH   4  22
HETATM   22  C10 UNL     1      22.359  -0.230  53.897  1.00  0.00    -0.012 C 
HETATM   23  C11 UNL     1      21.699  -0.969  54.786  1.00  0.00     0.009 C 
ENDBRANCH   4  22
ENDBRANCH   1   4
TORSDOF 5
ENDMDL
MODEL 4
REMARK VINA RESULT:      -6.6      1.239      1.885
REMARK  5 active torsions:
REMARK  status: ('A' for Active; 'I' for Inactive)
REMARK    1  A    between atoms: C2_2  and  C3_3 
REMARK       I    between atoms: C3_3  and  N1_5 
REMARK    2  A    between atoms: N1_5  and  C4_6 
REMARK    3  A    between atoms: N4_13  and  C9_14 
REMARK    4  A    between atoms: C9_14  and  C10_15 
REMARK    5  A    between atoms: C9_14  and  C12_17 
ROOT
HETATM    1  C12 UNL     1      23.019   4.718  51.658  1.00  0.00     0.006 C 
HETATM    2  C13 UNL     1      22.690   5.880  51.106  1.00  0.00     0.162 C 
HETATM    3 BR1  UNL     1      22.092   7.553  50.411  1.00  0.00    -0.172 Br
ENDROOT
BRANCH   1   4
HETATM    4  C9  UNL     1      24.210   3.970  51.217  1.00  0.00     0.125 C 
BRANCH   4   5
HETATM    5  N4  UNL     1      23.937   2.553  51.349  1.00  0.00    -0.208 NA
HETATM    6  N3  UNL     1      22.604   2.266  51.032  1.00  0.00    -0.311 N 
HETATM    7  C8  UNL     1      21.648   2.007  52.046  1.00  0.00     0.218 C 
HETATM    8  H8  UNL     1      22.342   2.252  50.001  1.00  0.00     0.181 HD
HETATM    9  N2  UNL     1      22.102   1.302  53.054  1.00  0.00    -0.246 NA
HETATM   10  C7  UNL     1      23.482   0.881  53.024  1.00  0.00     0.056 A 
HETATM   11  C6  UNL     1      23.767  -0.393  53.346  1.00  0.00     0.031 A 
HETATM   12  C14 UNL     1      24.355   2.008  52.624  1.00  0.00     0.138 A 
HETATM   13  C5  UNL     1      25.159  -0.824  53.316  1.00  0.00     0.027 A 
HETATM   14  C4  UNL     1      25.971   0.155  52.957  1.00  0.00     0.014 A 
HETATM   15  C15 UNL     1      25.791   1.555  52.588  1.00  0.00     0.085 A 
BRANCH  14  16
HETATM   16  N1  UNL     1      27.370  -0.183  52.901  1.00  0.00    -0.327 N 
HETATM   17  C3  UNL     1      28.286   0.182  53.928  1.00  0.00     0.244 C 
HETATM   18  O1  UNL     1      28.175   0.808  55.015  1.00  0.00    -0.268 OA
HETATM   19  H4  UNL     1      27.832  -0.722  52.111  1.00  0.00     0.169 HD
BRANCH  17  20
HETATM   20  C2  UNL     1      29.697  -0.149  53.888  1.00  0.00     0.064 C 
HETATM   21  C1  UNL     1      29.829  -1.405  53.487  1.00  0.00     0.017 C 
ENDBRANCH  17  20
ENDBRANCH  14  16
ENDBRANCH   4   5
BRANCH   4  22
HETATM   22  C10 UNL     1      24.740   4.376  49.915  1.00  0.00    -0.012 C 
HETATM   23  C11 UNL     1      25.945   4.510  49.366  1.00  0.00     0.009 C 
ENDBRANCH   4  22
ENDBRANCH   1   4
TORSDOF 5
ENDMDL
MODEL 5
REMARK VINA RESULT:      -6.2      2.973      5.620
REMARK  5 active torsions:
REMARK  status: ('A' for Active; 'I' for Inactive)
REMARK    1  A    between atoms: C2_2  and  C3_3 
REMARK       I    between atoms: C3_3  and  N1_5 
REMARK    2  A    between atoms: N1_5  and  C4_6 
REMARK    3  A    between atoms: N4_13  and  C9_14 
REMARK    4  A    between atoms: C9_14  and  C10_15 
REMARK    5  A    between atoms: C9_14  and  C12_17 
ROOT
HETATM    1  C12 UNL     1      22.762   4.559  52.028  1.00  0.00     0.006 C 
HETATM    2  C13 UNL     1      22.500   5.662  51.337  1.00  0.00     0.162 C 
HETATM    3 BR1  UNL     1      21.981   7.248  50.413  1.00  0.00    -0.172 Br
ENDROOT
BRANCH   1   4
HETATM    4  C9  UNL     1      24.063   3.875  51.916  1.00  0.00     0.125 C 
BRANCH   4   5
HETATM    5  N4  UNL     1      24.143   2.868  52.954  1.00  0.00    -0.208 NA
HETATM    6  N3  UNL     1      25.386   2.904  53.597  1.00  0.00    -0.311 N 
HETATM    7  C8  UNL     1      26.385   1.938  53.317  1.00  0.00     0.218 C 
HETATM    8  H8  UNL     1      25.546   3.686  54.300  1.00  0.00     0.181 HD
HETATM    9  N2  UNL     1      25.930   0.721  53.142  1.00  0.00    -0.246 NA
HETATM   10  C7  UNL     1      24.508   0.504  53.248  1.00  0.00     0.056 A 
HETATM   11  C6  UNL     1      24.075  -0.549  53.964  1.00  0.00     0.031 A 
HETATM   12  C14 UNL     1      23.771   1.545  52.497  1.00  0.00     0.138 A 
HETATM   13  C5  UNL     1      22.639  -0.773  54.075  1.00  0.00     0.027 A 
HETATM   14  C4  UNL     1      21.946   0.142  53.421  1.00  0.00     0.014 A 
HETATM   15  C15 UNL     1      22.288   1.312  52.620  1.00  0.00     0.085 A 
BRANCH  14  16
HETATM   16  N1  UNL     1      20.514  -0.003  53.476  1.00  0.00    -0.327 N 
HETATM   17  C3  UNL     1      19.695   0.036  52.312  1.00  0.00     0.244 C 
HETATM   18  O1  UNL     1      19.931   0.184  51.084  1.00  0.00    -0.268 OA
HETATM   19  H4  UNL     1      19.954  -0.149  54.368  1.00  0.00     0.169 HD
BRANCH  17  20
HETATM   20  C2  UNL     1      18.253  -0.107  52.349  1.00  0.00     0.064 C 
HETATM   21  C1  UNL     1      17.807  -0.253  51.109  1.00  0.00     0.017 C 
ENDBRANCH  17  20
ENDBRANCH  14  16
ENDBRANCH   4   5
BRANCH   4  22
HETATM   22  C10 UNL     1      24.389   3.398  50.571  1.00  0.00    -0.012 C 
HETATM   23  C11 UNL     1      25.449   3.438  49.767  1.00  0.00     0.009 C 
ENDBRANCH   4  22
ENDBRANCH   1   4
TORSDOF 5
ENDMDL
MODEL 6
REMARK VINA RESULT:      -6.0      3.894      6.263
REMARK  5 active torsions:
REMARK  status: ('A' for Active; 'I' for Inactive)
REMARK    1  A    between atoms: C2_2  and  C3_3 
REMARK       I    between atoms: C3_3  and  N1_5 
REMARK    2  A    between atoms: N1_5  and  C4_6 
REMARK    3  A    between atoms: N4_13  and  C9_14 
REMARK    4  A    between atoms: C9_14  and  C10_15 
REMARK    5  A    between atoms: C9_14  and  C12_17 
ROOT
HETATM    1  C12 UNL     1      24.443   1.796  52.846  1.00  0.00     0.006 C 
HETATM    2  C13 UNL     1      23.702   0.701  52.973  1.00  0.00     0.162 C 
HETATM    3 BR1  UNL     1      22.589  -0.814  53.297  1.00  0.00    -0.172 Br
ENDROOT
BRANCH   1   4
HETATM    4  C9  UNL     1      25.282   2.018  51.654  1.00  0.00     0.125 C 
BRANCH   4   5
HETATM    5  N4  UNL     1      25.287   3.436  51.356  1.00  0.00    -0.208 NA
HETATM    6  N3  UNL     1      24.243   4.094  52.016  1.00  0.00    -0.311 N 
HETATM    7  C8  UNL     1      23.071   4.490  51.323  1.00  0.00     0.218 C 
HETATM    8  H8  UNL     1      24.366   4.281  53.056  1.00  0.00     0.181 HD
HETATM    9  N2  UNL     1      23.283   4.945  50.112  1.00  0.00    -0.246 NA
HETATM   10  C7  UNL     1      24.643   4.990  49.630  1.00  0.00     0.056 A 
HETATM   11  C6  UNL     1      25.062   6.105  49.006  1.00  0.00     0.031 A 
HETATM   12  C14 UNL     1      25.340   3.721  49.937  1.00  0.00     0.138 A 
HETATM   13  C5  UNL     1      26.434   6.156  48.518  1.00  0.00     0.027 A 
HETATM   14  C4  UNL     1      27.092   5.040  48.779  1.00  0.00     0.014 A 
HETATM   15  C15 UNL     1      26.759   3.782  49.437  1.00  0.00     0.085 A 
BRANCH  14  16
HETATM   16  N1  UNL     1      28.460   5.004  48.330  1.00  0.00    -0.327 N 
HETATM   17  C3  UNL     1      29.278   6.168  48.274  1.00  0.00     0.244 C 
HETATM   18  O1  UNL     1      29.089   7.382  48.552  1.00  0.00    -0.268 OA
HETATM   19  H4  UNL     1      28.969   4.128  48.009  1.00  0.00     0.169 HD
BRANCH  17  20
HETATM   20  C2  UNL     1      30.656   6.150  47.824  1.00  0.00     0.064 C 
HETATM   21  C1  UNL     1      31.021   4.893  47.618  1.00  0.00     0.017 C 
ENDBRANCH  17  20
ENDBRANCH  14  16
ENDBRANCH   4   5
BRANCH   4  22
HETATM   22  C10 UNL     1      26.605   1.397  51.713  1.00  0.00    -0.012 C 
HETATM   23  C11 UNL     1      27.397   0.907  52.665  1.00  0.00     0.009 C 
ENDBRANCH   4  22
ENDBRANCH   1   4
TORSDOF 5
ENDMDL
MODEL 7
REMARK VINA RESULT:      -6.0      2.982      5.518
REMARK  5 active torsions:
REMARK  status: ('A' for Active; 'I' for Inactive)
REMARK    1  A    between atoms: C2_2  and  C3_3 
REMARK       I    between atoms: C3_3  and  N1_5 
REMARK    2  A    between atoms: N1_5  and  C4_6 
REMARK    3  A    between atoms: N4_13  and  C9_14 
REMARK    4  A    between atoms: C9_14  and  C10_15 
REMARK    5  A    between atoms: C9_14  and  C12_17 
ROOT
HETATM    1  C12 UNL     1      26.064   2.332  53.779  1.00  0.00     0.006 C 
HETATM    2  C13 UNL     1      27.363   2.064  53.847  1.00  0.00     0.162 C 
HETATM    3 BR1  UNL     1      29.249   1.827  54.001  1.00  0.00    -0.172 Br
ENDROOT
BRANCH   1   4
HETATM    4  C9  UNL     1      25.099   1.328  53.297  1.00  0.00     0.125 C 
BRANCH   4   5
HETATM    5  N4  UNL     1      24.052   2.012  52.566  1.00  0.00    -0.208 NA
HETATM    6  N3  UNL     1      22.787   1.671  53.060  1.00  0.00    -0.311 N 
HETATM    7  C8  UNL     1      21.949   0.762  52.367  1.00  0.00     0.218 C 
HETATM    8  H8  UNL     1      22.486   2.121  53.976  1.00  0.00     0.181 HD
HETATM    9  N2  UNL     1      21.978   0.883  51.062  1.00  0.00    -0.246 NA
HETATM   10  C7  UNL     1      22.832   1.896  50.491  1.00  0.00     0.056 A 
HETATM   11  C6  UNL     1      22.333   2.678  49.517  1.00  0.00     0.031 A 
HETATM   12  C14 UNL     1      24.167   1.864  51.130  1.00  0.00     0.138 A 
HETATM   13  C5  UNL     1      23.191   3.703  48.938  1.00  0.00     0.027 A 
HETATM   14  C4  UNL     1      24.392   3.709  49.488  1.00  0.00     0.014 A 
HETATM   15  C15 UNL     1      25.047   2.930  50.533  1.00  0.00     0.085 A 
BRANCH  14  16
HETATM   16  N1  UNL     1      25.309   4.694  48.973  1.00  0.00    -0.327 N 
HETATM   17  C3  UNL     1      25.545   5.935  49.628  1.00  0.00     0.244 C 
HETATM   18  O1  UNL     1      25.100   6.465  50.681  1.00  0.00    -0.268 OA
HETATM   19  H4  UNL     1      25.877   4.585  48.082  1.00  0.00     0.169 HD
BRANCH  17  20
HETATM   20  C2  UNL     1      26.463   6.938  49.125  1.00  0.00     0.064 C 
HETATM   21  C1  UNL     1      27.404   6.335  48.413  1.00  0.00     0.017 C 
ENDBRANCH  17  20
ENDBRANCH  14  16
ENDBRANCH   4   5
BRANCH   4  22
HETATM   22  C10 UNL     1      25.697   0.192  52.595  1.00  0.00    -0.012 C 
HETATM   23  C11 UNL     1      26.113  -1.030  52.920  1.00  0.00     0.009 C 
ENDBRANCH   4  22
ENDBRANCH   1   4
TORSDOF 5
ENDMDL
MODEL 8
REMARK VINA RESULT:      -5.8      3.856      6.477
REMARK  5 active torsions:
REMARK  status: ('A' for Active; 'I' for Inactive)
REMARK    1  A    between atoms: C2_2  and  C3_3 
REMARK       I    between atoms: C3_3  and  N1_5 
REMARK    2  A    between atoms: N1_5  and  C4_6 
REMARK    3  A    between atoms: N4_13  and  C9_14 
REMARK    4  A    between atoms: C9_14  and  C10_15 
REMARK    5  A    between atoms: C9_14  and  C12_17 
ROOT
HETATM    1  C12 UNL     1      23.226   1.912  51.344  1.00  0.00     0.006 C 
HETATM    2  C13 UNL     1      22.573   1.685  50.210  1.00  0.00     0.162 C 
HETATM    3 BR1  UNL     1      21.509   1.320  48.670  1.00  0.00    -0.172 Br
ENDROOT
BRANCH   1   4
HETATM    4  C9  UNL     1      24.629   2.366  51.342  1.00  0.00     0.125 C 
BRANCH   4   5
HETATM    5  N4  UNL     1      24.658   3.767  51.711  1.00  0.00    -0.208 NA
HETATM    6  N3  UNL     1      23.805   4.021  52.791  1.00  0.00    -0.311 N 
HETATM    7  C8  UNL     1      22.544   4.641  52.602  1.00  0.00     0.218 C 
HETATM    8  H8  UNL     1      24.143   3.729  53.756  1.00  0.00     0.181 HD
HETATM    9  N2  UNL     1      22.538   5.597  51.703  1.00  0.00    -0.246 NA
HETATM   10  C7  UNL     1      23.775   5.903  51.027  1.00  0.00     0.056 A 
HETATM   11  C6  UNL     1      24.126   7.194  50.892  1.00  0.00     0.031 A 
HETATM   12  C14 UNL     1      24.444   4.657  50.589  1.00  0.00     0.138 A 
HETATM   13  C5  UNL     1      25.375   7.509  50.211  1.00  0.00     0.027 A 
HETATM   14  C4  UNL     1      26.006   6.420  49.809  1.00  0.00     0.014 A 
HETATM   15  C15 UNL     1      25.737   4.989  49.891  1.00  0.00     0.085 A 
BRANCH  14  16
HETATM   16  N1  UNL     1      27.253   6.639  49.123  1.00  0.00    -0.327 N 
HETATM   17  C3  UNL     1      27.327   7.287  47.858  1.00  0.00     0.244 C 
HETATM   18  O1  UNL     1      26.469   7.784  47.080  1.00  0.00    -0.268 OA
HETATM   19  H4  UNL     1      28.206   6.344  49.489  1.00  0.00     0.169 HD
BRANCH  17  20
HETATM   20  C2  UNL     1      28.573   7.515  47.152  1.00  0.00     0.064 C 
HETATM   21  C1  UNL     1      29.506   6.731  47.672  1.00  0.00     0.017 C 
ENDBRANCH  17  20
ENDBRANCH  14  16
ENDBRANCH   4   5
BRANCH   4  22
HETATM   22  C10 UNL     1      25.548   1.513  52.095  1.00  0.00    -0.012 C 
HETATM   23  C11 UNL     1      26.361   0.495  51.820  1.00  0.00     0.009 C 
ENDBRANCH   4  22
ENDBRANCH   1   4
TORSDOF 5
ENDMDL
MODEL 9
REMARK VINA RESULT:      -5.8      7.856     10.025
REMARK  5 active torsions:
REMARK  status: ('A' for Active; 'I' for Inactive)
REMARK    1  A    between atoms: C2_2  and  C3_3 
REMARK       I    between atoms: C3_3  and  N1_5 
REMARK    2  A    between atoms: N1_5  and  C4_6 
REMARK    3  A    between atoms: N4_13  and  C9_14 
REMARK    4  A    between atoms: C9_14  and  C10_15 
REMARK    5  A    between atoms: C9_14  and  C12_17 
ROOT
HETATM    1  C12 UNL     1      28.276   8.405  46.845  1.00  0.00     0.006 C 
HETATM    2  C13 UNL     1      27.548   8.409  45.734  1.00  0.00     0.162 C 
HETATM    3 BR1  UNL     1      26.508   8.574  44.144  1.00  0.00    -0.172 Br
ENDROOT
BRANCH   1   4
HETATM    4  C9  UNL     1      28.685   7.143  47.488  1.00  0.00     0.125 C 
BRANCH   4   5
HETATM    5  N4  UNL     1      29.932   7.369  48.190  1.00  0.00    -0.208 NA
HETATM    6  N3  UNL     1      29.733   8.156  49.330  1.00  0.00    -0.311 N 
HETATM    7  C8  UNL     1      30.086   9.529  49.346  1.00  0.00     0.218 C 
HETATM    8  H8  UNL     1      29.306   7.680  50.180  1.00  0.00     0.181 HD
HETATM    9  N2  UNL     1      31.198   9.811  48.712  1.00  0.00    -0.246 NA
HETATM   10  C7  UNL     1      31.919   8.729  48.087  1.00  0.00     0.056 A 
HETATM   11  C6  UNL     1      33.251   8.664  48.263  1.00  0.00     0.031 A 
HETATM   12  C14 UNL     1      30.990   7.861  47.330  1.00  0.00     0.138 A 
HETATM   13  C5  UNL     1      33.984   7.572  47.634  1.00  0.00     0.027 A 
HETATM   14  C4  UNL     1      33.185   6.771  46.952  1.00  0.00     0.014 A 
HETATM   15  C15 UNL     1      31.751   6.731  46.689  1.00  0.00     0.085 A 
BRANCH  14  16
HETATM   16  N1  UNL     1      33.828   5.661  46.296  1.00  0.00    -0.327 N 
HETATM   17  C3  UNL     1      34.394   4.571  47.015  1.00  0.00     0.244 C 
HETATM   18  O1  UNL     1      34.491   4.288  48.238  1.00  0.00    -0.268 OA
HETATM   19  H4  UNL     1      33.935   5.559  45.243  1.00  0.00     0.169 HD
BRANCH  17  20
HETATM   20  C2  UNL     1      35.045   3.446  46.371  1.00  0.00     0.064 C 
HETATM   21  C1  UNL     1      35.161   3.706  45.076  1.00  0.00     0.017 C 
ENDBRANCH  17  20
ENDBRANCH  14  16
ENDBRANCH   4   5
BRANCH   4  22
HETATM   22  C10 UNL     1      27.641   6.495  48.282  1.00  0.00    -0.012 C 
HETATM   23  C11 UNL     1      27.339   5.250  48.643  1.00  0.00     0.009 C 
ENDBRANCH   4  22
ENDBRANCH   1   4
TORSDOF 5
ENDMDL
