MODEL 1
REMARK VINA RESULT:      -7.9      0.000      0.000
REMARK  4 active torsions:
REMARK  status: ('A' for Active; 'I' for Inactive)
REMARK    1  A    between atoms: O1_2  and  C2_3 
REMARK    2  A    between atoms: N1_8  and  N2_9 
REMARK    3  A    between atoms: C7_10  and  C8_11 
REMARK    4  A    between atoms: C14_19  and  O2_20 
ROOT
HETATM    1  C2  UNL     1      25.928   6.802  49.684  1.00  0.00     0.069 C 
HETATM    2  C3  UNL     1      26.273   5.561  49.394  1.00  0.00     0.036 C 
HETATM    3  C4  UNL     1      26.113   4.121  49.325  1.00  0.00     0.000 C 
HETATM    4  C5  UNL     1      25.164   3.277  49.683  1.00  0.00    -0.005 C 
HETATM    5  C6  UNL     1      23.895   3.655  50.310  1.00  0.00     0.187 C 
HETATM    6  N1  UNL     1      23.617   3.099  51.586  1.00  0.00    -0.236 N 
HETATM    7  S1  UNL     1      22.099   2.175  51.792  1.00  0.00    -0.001 SA
HETATM    8  C13 UNL     1      20.782   3.007  50.912  1.00  0.00     0.127 C 
HETATM    9  C14 UNL     1      20.175   4.106  50.421  1.00  0.00     0.172 C 
HETATM   10  N3  UNL     1      21.207   4.924  50.939  1.00  0.00    -0.219 NA
HETATM   11  C16 UNL     1      21.358   6.180  50.745  1.00  0.00     0.209 C 
HETATM   12  N4  UNL     1      22.492   6.813  51.377  1.00  0.00    -0.360 N 
HETATM   13  C17 UNL     1      23.621   7.557  50.887  1.00  0.00     0.091 C 
HETATM   14  C18 UNL     1      24.804   7.503  50.299  1.00  0.00     0.053 C 
HETATM   15  H19 UNL     1      22.372   6.623  52.425  1.00  0.00     0.166 HD
ENDROOT
BRANCH   6  16
HETATM   16  N2  UNL     1      24.505   3.286  52.650  1.00  0.00    -0.181 NA
HETATM   17  C7  UNL     1      25.366   2.417  53.020  1.00  0.00     0.124 C 
BRANCH  17  18
HETATM   18  C8  UNL     1      25.590   1.082  52.421  1.00  0.00     0.074 A 
HETATM   19  C9  UNL     1      24.963  -0.023  53.170  1.00  0.00    -0.011 A 
HETATM   20  C10 UNL     1      25.898  -0.872  53.581  1.00  0.00     0.015 A 
HETATM   21  C11 UNL     1      27.211  -0.402  53.142  1.00  0.00     0.007 A 
HETATM   22 BR1  UNL     1      28.977  -1.073  53.348  1.00  0.00    -0.051 Br
HETATM   23  C12 UNL     1      27.037   0.729  52.469  1.00  0.00     0.006 A 
ENDBRANCH  17  18
ENDBRANCH   6  16
BRANCH   9  24
HETATM   24  O2  UNL     1      18.963   3.976  49.715  1.00  0.00    -0.339 OA
HETATM   25  C15 UNL     1      17.745   4.454  50.254  1.00  0.00     0.211 C 
ENDBRANCH   9  24
BRANCH   1  26
HETATM   26  O1  UNL     1      26.924   7.751  49.299  1.00  0.00    -0.356 OA
HETATM   27  C1  UNL     1      27.108   8.901  50.075  1.00  0.00     0.210 C 
ENDBRANCH   1  26
TORSDOF 4
ENDMDL
MODEL 2
REMARK VINA RESULT:      -7.4      4.000      7.891
REMARK  4 active torsions:
REMARK  status: ('A' for Active; 'I' for Inactive)
REMARK    1  A    between atoms: O1_2  and  C2_3 
REMARK    2  A    between atoms: N1_8  and  N2_9 
REMARK    3  A    between atoms: C7_10  and  C8_11 
REMARK    4  A    between atoms: C14_19  and  O2_20 
ROOT
HETATM    1  C2  UNL     1      19.322   0.233  51.207  1.00  0.00     0.069 C 
HETATM    2  C3  UNL     1      19.989   0.821  50.232  1.00  0.00     0.036 C 
HETATM    3  C4  UNL     1      21.131   1.451  49.597  1.00  0.00     0.000 C 
HETATM    4  C5  UNL     1      22.363   1.730  49.977  1.00  0.00    -0.005 C 
HETATM    5  C6  UNL     1      22.926   1.427  51.295  1.00  0.00     0.187 C 
HETATM    6  N1  UNL     1      23.408   2.525  52.057  1.00  0.00    -0.236 N 
HETATM    7  S1  UNL     1      25.107   2.482  52.616  1.00  0.00    -0.001 SA
HETATM    8  C13 UNL     1      25.507   0.822  53.151  1.00  0.00     0.127 C 
HETATM    9  C14 UNL     1      25.190  -0.378  53.677  1.00  0.00     0.172 C 
HETATM   10  N3  UNL     1      23.844   0.032  53.833  1.00  0.00    -0.219 NA
HETATM   11  C16 UNL     1      22.862  -0.698  54.208  1.00  0.00     0.209 C 
HETATM   12  N4  UNL     1      21.568  -0.064  54.297  1.00  0.00    -0.360 N 
HETATM   13  C17 UNL     1      20.292  -0.308  53.678  1.00  0.00     0.091 C 
HETATM   14  C18 UNL     1      19.555  -0.183  52.588  1.00  0.00     0.053 C 
HETATM   15  H19 UNL     1      21.697   0.746  54.987  1.00  0.00     0.166 HD
ENDROOT
BRANCH   6  16
HETATM   16  N2  UNL     1      22.566   3.596  52.368  1.00  0.00    -0.181 NA
HETATM   17  C7  UNL     1      22.729   4.783  51.923  1.00  0.00     0.124 C 
BRANCH  17  18
HETATM   18  C8  UNL     1      23.806   5.249  51.021  1.00  0.00     0.074 A 
HETATM   19  C9  UNL     1      24.172   6.665  51.207  1.00  0.00    -0.011 A 
HETATM   20  C10 UNL     1      23.956   7.335  50.081  1.00  0.00     0.015 A 
HETATM   21  C11 UNL     1      23.434   6.424  49.064  1.00  0.00     0.007 A 
HETATM   22 BR1  UNL     1      22.903   6.650  47.253  1.00  0.00    -0.051 Br
HETATM   23  C12 UNL     1      23.346   5.215  49.604  1.00  0.00     0.006 A 
ENDBRANCH  17  18
ENDBRANCH   6  16
BRANCH   9  24
HETATM   24  O2  UNL     1      26.188  -1.362  53.817  1.00  0.00    -0.339 OA
HETATM   25  C15 UNL     1      26.949  -1.798  52.707  1.00  0.00     0.211 C 
ENDBRANCH   9  24
BRANCH   1  26
HETATM   26  O1  UNL     1      17.985  -0.101  50.832  1.00  0.00    -0.356 OA
HETATM   27  C1  UNL     1      17.082  -0.517  51.818  1.00  0.00     0.210 C 
ENDBRANCH   1  26
TORSDOF 4
ENDMDL
MODEL 3
REMARK VINA RESULT:      -7.3      3.792      6.462
REMARK  4 active torsions:
REMARK  status: ('A' for Active; 'I' for Inactive)
REMARK    1  A    between atoms: O1_2  and  C2_3 
REMARK    2  A    between atoms: N1_8  and  N2_9 
REMARK    3  A    between atoms: C7_10  and  C8_11 
REMARK    4  A    between atoms: C14_19  and  O2_20 
ROOT
HETATM    1  C2  UNL     1      24.481   5.709  50.177  1.00  0.00     0.069 C 
HETATM    2  C3  UNL     1      23.401   5.615  50.931  1.00  0.00     0.036 C 
HETATM    3  C4  UNL     1      22.494   4.997  51.878  1.00  0.00     0.000 C 
HETATM    4  C5  UNL     1      22.493   3.863  52.553  1.00  0.00    -0.005 C 
HETATM    5  C6  UNL     1      23.543   2.844  52.489  1.00  0.00     0.187 C 
HETATM    6  N1  UNL     1      23.155   1.545  52.068  1.00  0.00    -0.236 N 
HETATM    7  S1  UNL     1      23.510   0.166  53.152  1.00  0.00    -0.001 SA
HETATM    8  C13 UNL     1      25.132   0.388  53.872  1.00  0.00     0.127 C 
HETATM    9  C14 UNL     1      26.403   0.838  53.850  1.00  0.00     0.172 C 
HETATM   10  N3  UNL     1      26.203   1.378  52.557  1.00  0.00    -0.219 NA
HETATM   11  C16 UNL     1      27.024   2.107  51.898  1.00  0.00     0.209 C 
HETATM   12  N4  UNL     1      26.606   2.548  50.588  1.00  0.00    -0.360 N 
HETATM   13  C17 UNL     1      26.431   3.839  49.978  1.00  0.00     0.091 C 
HETATM   14  C18 UNL     1      25.665   4.910  49.869  1.00  0.00     0.053 C 
HETATM   15  H19 UNL     1      26.403   1.650  50.040  1.00  0.00     0.166 HD
ENDROOT
BRANCH   6  16
HETATM   16  N2  UNL     1      22.527   1.357  50.833  1.00  0.00    -0.181 NA
HETATM   17  C7  UNL     1      21.275   1.146  50.696  1.00  0.00     0.124 C 
BRANCH  17  18
HETATM   18  C8  UNL     1      20.269   1.058  51.778  1.00  0.00     0.074 A 
HETATM   19  C9  UNL     1      19.348  -0.087  51.648  1.00  0.00    -0.011 A 
HETATM   20  C10 UNL     1      18.100   0.353  51.536  1.00  0.00     0.015 A 
HETATM   21  C11 UNL     1      18.092   1.814  51.582  1.00  0.00     0.007 A 
HETATM   22 BR1  UNL     1      16.713   3.119  51.486  1.00  0.00    -0.051 Br
HETATM   23  C12 UNL     1      19.346   2.227  51.723  1.00  0.00     0.006 A 
ENDBRANCH  17  18
ENDBRANCH   6  16
BRANCH   9  24
HETATM   24  O2  UNL     1      27.242   0.608  54.958  1.00  0.00    -0.339 OA
HETATM   25  C15 UNL     1      28.596   0.232  54.786  1.00  0.00     0.211 C 
ENDBRANCH   9  24
BRANCH   1  26
HETATM   26  O1  UNL     1      24.529   6.930  49.439  1.00  0.00    -0.356 OA
HETATM   27  C1  UNL     1      24.097   8.114  50.047  1.00  0.00     0.210 C 
ENDBRANCH   1  26
TORSDOF 4
ENDMDL
MODEL 4
REMARK VINA RESULT:      -7.3      3.312      6.072
REMARK  4 active torsions:
REMARK  status: ('A' for Active; 'I' for Inactive)
REMARK    1  A    between atoms: O1_2  and  C2_3 
REMARK    2  A    between atoms: N1_8  and  N2_9 
REMARK    3  A    between atoms: C7_10  and  C8_11 
REMARK    4  A    between atoms: C14_19  and  O2_20 
ROOT
HETATM    1  C2  UNL     1      23.954   0.281  53.466  1.00  0.00     0.069 C 
HETATM    2  C3  UNL     1      24.474   1.494  53.445  1.00  0.00     0.036 C 
HETATM    3  C4  UNL     1      24.537   2.905  53.118  1.00  0.00     0.000 C 
HETATM    4  C5  UNL     1      23.746   3.741  52.472  1.00  0.00    -0.005 C 
HETATM    5  C6  UNL     1      22.462   3.385  51.864  1.00  0.00     0.187 C 
HETATM    6  N1  UNL     1      22.328   3.603  50.468  1.00  0.00    -0.236 N 
HETATM    7  S1  UNL     1      20.981   4.635  49.900  1.00  0.00    -0.001 SA
HETATM    8  C13 UNL     1      19.515   4.264  50.857  1.00  0.00     0.127 C 
HETATM    9  C14 UNL     1      18.725   3.436  51.568  1.00  0.00     0.172 C 
HETATM   10  N3  UNL     1      19.639   2.374  51.373  1.00  0.00    -0.219 NA
HETATM   11  C16 UNL     1      19.585   1.211  51.904  1.00  0.00     0.209 C 
HETATM   12  N4  UNL     1      20.633   0.279  51.557  1.00  0.00    -0.360 N 
HETATM   13  C17 UNL     1      21.612  -0.450  52.319  1.00  0.00     0.091 C 
HETATM   14  C18 UNL     1      22.763  -0.400  52.967  1.00  0.00     0.053 C 
HETATM   15  H19 UNL     1      20.589   0.190  50.490  1.00  0.00     0.166 HD
ENDROOT
BRANCH   6  16
HETATM   16  N2  UNL     1      23.221   3.012  49.569  1.00  0.00    -0.181 NA
HETATM   17  C7  UNL     1      24.309   3.558  49.182  1.00  0.00     0.124 C 
BRANCH  17  18
HETATM   18  C8  UNL     1      24.828   4.883  49.592  1.00  0.00     0.074 A 
HETATM   19  C9  UNL     1      24.364   5.996  48.743  1.00  0.00    -0.011 A 
HETATM   20  C10 UNL     1      25.408   6.590  48.175  1.00  0.00     0.015 A 
HETATM   21  C11 UNL     1      26.639   5.924  48.599  1.00  0.00     0.007 A 
HETATM   22 BR1  UNL     1      28.478   6.204  48.212  1.00  0.00    -0.051 Br
HETATM   23  C12 UNL     1      26.308   4.935  49.420  1.00  0.00     0.006 A 
ENDBRANCH  17  18
ENDBRANCH   6  16
BRANCH   9  24
HETATM   24  O2  UNL     1      17.519   3.921  52.112  1.00  0.00    -0.339 OA
HETATM   25  C15 UNL     1      16.277   3.323  51.790  1.00  0.00     0.211 C 
ENDBRANCH   9  24
BRANCH   1  26
HETATM   26  O1  UNL     1      24.774  -0.654  54.169  1.00  0.00    -0.356 OA
HETATM   27  C1  UNL     1      26.022  -0.242  54.651  1.00  0.00     0.210 C 
ENDBRANCH   1  26
TORSDOF 4
ENDMDL
MODEL 5
REMARK VINA RESULT:      -6.5      8.003     10.925
REMARK  4 active torsions:
REMARK  status: ('A' for Active; 'I' for Inactive)
REMARK    1  A    between atoms: O1_2  and  C2_3 
REMARK    2  A    between atoms: N1_8  and  N2_9 
REMARK    3  A    between atoms: C7_10  and  C8_11 
REMARK    4  A    between atoms: C14_19  and  O2_20 
ROOT
HETATM    1  C2  UNL     1      34.807   6.128  48.587  1.00  0.00     0.069 C 
HETATM    2  C3  UNL     1      33.829   5.304  48.262  1.00  0.00     0.036 C 
HETATM    3  C4  UNL     1      32.600   4.896  47.610  1.00  0.00     0.000 C 
HETATM    4  C5  UNL     1      31.741   5.486  46.801  1.00  0.00    -0.005 C 
HETATM    5  C6  UNL     1      31.852   6.864  46.317  1.00  0.00     0.187 C 
HETATM    6  N1  UNL     1      30.781   7.743  46.625  1.00  0.00    -0.236 N 
HETATM    7  S1  UNL     1      29.955   8.574  45.272  1.00  0.00    -0.001 SA
HETATM    8  C13 UNL     1      31.175   9.093  44.071  1.00  0.00     0.127 C 
HETATM    9  C14 UNL     1      32.407   9.505  43.715  1.00  0.00     0.172 C 
HETATM   10  N3  UNL     1      32.829   9.454  45.064  1.00  0.00    -0.219 NA
HETATM   11  C16 UNL     1      34.020   9.629  45.500  1.00  0.00     0.209 C 
HETATM   12  N4  UNL     1      34.219   9.531  46.928  1.00  0.00    -0.360 N 
HETATM   13  C17 UNL     1      35.041   8.699  47.766  1.00  0.00     0.091 C 
HETATM   14  C18 UNL     1      35.201   7.508  48.317  1.00  0.00     0.053 C 
HETATM   15  H19 UNL     1      33.568  10.268  47.354  1.00  0.00     0.166 HD
ENDROOT
BRANCH   6  16
HETATM   16  N2  UNL     1      30.399   7.958  47.953  1.00  0.00    -0.181 NA
HETATM   17  C7  UNL     1      29.326   7.496  48.469  1.00  0.00     0.124 C 
BRANCH  17  18
HETATM   18  C8  UNL     1      28.302   6.669  47.790  1.00  0.00     0.074 A 
HETATM   19  C9  UNL     1      26.932   7.202  47.903  1.00  0.00    -0.011 A 
HETATM   20  C10 UNL     1      26.159   6.319  48.527  1.00  0.00     0.015 A 
HETATM   21  C11 UNL     1      26.948   5.140  48.876  1.00  0.00     0.007 A 
HETATM   22 BR1  UNL     1      26.541   3.506  49.758  1.00  0.00    -0.051 Br
HETATM   23  C12 UNL     1      28.190   5.338  48.450  1.00  0.00     0.006 A 
ENDBRANCH  17  18
ENDBRANCH   6  16
BRANCH   9  24
HETATM   24  O2  UNL     1      32.690   9.765  42.359  1.00  0.00    -0.339 OA
HETATM   25  C15 UNL     1      33.831   9.215  41.729  1.00  0.00     0.211 C 
ENDBRANCH   9  24
BRANCH   1  26
HETATM   26  O1  UNL     1      35.768   5.523  49.453  1.00  0.00    -0.356 OA
HETATM   27  C1  UNL     1      36.931   6.228  49.784  1.00  0.00     0.210 C 
ENDBRANCH   1  26
TORSDOF 4
ENDMDL
MODEL 6
REMARK VINA RESULT:      -6.4      4.288      5.668
REMARK  4 active torsions:
REMARK  status: ('A' for Active; 'I' for Inactive)
REMARK    1  A    between atoms: O1_2  and  C2_3 
REMARK    2  A    between atoms: N1_8  and  N2_9 
REMARK    3  A    between atoms: C7_10  and  C8_11 
REMARK    4  A    between atoms: C14_19  and  O2_20 
ROOT
HETATM    1  C2  UNL     1      20.347   3.663  49.616  1.00  0.00     0.069 C 
HETATM    2  C3  UNL     1      21.163   2.628  49.682  1.00  0.00     0.036 C 
HETATM    3  C4  UNL     1      21.586   1.294  50.061  1.00  0.00     0.000 C 
HETATM    4  C5  UNL     1      21.033   0.304  50.736  1.00  0.00    -0.005 C 
HETATM    5  C6  UNL     1      19.694   0.337  51.330  1.00  0.00     0.187 C 
HETATM    6  N1  UNL     1      19.607   0.141  52.734  1.00  0.00    -0.236 N 
HETATM    7  S1  UNL     1      18.568  -1.184  53.339  1.00  0.00    -0.001 SA
HETATM    8  C13 UNL     1      17.066  -1.241  52.368  1.00  0.00     0.127 C 
HETATM    9  C14 UNL     1      16.095  -0.672  51.626  1.00  0.00     0.172 C 
HETATM   10  N3  UNL     1      16.701   0.597  51.783  1.00  0.00    -0.219 NA
HETATM   11  C16 UNL     1      16.352   1.687  51.210  1.00  0.00     0.209 C 
HETATM   12  N4  UNL     1      17.119   2.870  51.522  1.00  0.00    -0.360 N 
HETATM   13  C17 UNL     1      17.884   3.801  50.734  1.00  0.00     0.091 C 
HETATM   14  C18 UNL     1      19.014   4.028  50.089  1.00  0.00     0.053 C 
HETATM   15  H19 UNL     1      17.043   2.983  52.585  1.00  0.00     0.166 HD
ENDROOT
BRANCH   6  16
HETATM   16  N2  UNL     1      20.307   0.975  53.611  1.00  0.00    -0.181 NA
HETATM   17  C7  UNL     1      21.432   0.673  54.136  1.00  0.00     0.124 C 
BRANCH  17  18
HETATM   18  C8  UNL     1      22.196  -0.578  53.933  1.00  0.00     0.074 A 
HETATM   19  C9  UNL     1      22.607  -1.239  55.185  1.00  0.00    -0.011 A 
HETATM   20  C10 UNL     1      23.932  -1.315  55.237  1.00  0.00     0.015 A 
HETATM   21  C11 UNL     1      24.502  -0.715  54.033  1.00  0.00     0.007 A 
HETATM   22 BR1  UNL     1      26.281  -0.461  53.414  1.00  0.00    -0.051 Br
HETATM   23  C12 UNL     1      23.501  -0.287  53.274  1.00  0.00     0.006 A 
ENDBRANCH  17  18
ENDBRANCH   6  16
BRANCH   9  24
HETATM   24  O2  UNL     1      15.062  -1.472  51.100  1.00  0.00    -0.339 OA
HETATM   25  C15 UNL     1      14.729  -2.717  51.684  1.00  0.00     0.211 C 
ENDBRANCH   9  24
BRANCH   1  26
HETATM   26  O1  UNL     1      20.903   4.753  48.879  1.00  0.00    -0.356 OA
HETATM   27  C1  UNL     1      20.077   5.821  48.511  1.00  0.00     0.210 C 
ENDBRANCH   1  26
TORSDOF 4
ENDMDL
MODEL 7
REMARK VINA RESULT:      -6.3      3.916      6.510
REMARK  4 active torsions:
REMARK  status: ('A' for Active; 'I' for Inactive)
REMARK    1  A    between atoms: O1_2  and  C2_3 
REMARK    2  A    between atoms: N1_8  and  N2_9 
REMARK    3  A    between atoms: C7_10  and  C8_11 
REMARK    4  A    between atoms: C14_19  and  O2_20 
ROOT
HETATM    1  C2  UNL     1      20.238   1.841  51.694  1.00  0.00     0.069 C 
HETATM    2  C3  UNL     1      19.577   2.983  51.708  1.00  0.00     0.036 C 
HETATM    3  C4  UNL     1      19.203   4.305  51.244  1.00  0.00     0.000 C 
HETATM    4  C5  UNL     1      19.574   5.072  50.236  1.00  0.00    -0.005 C 
HETATM    5  C6  UNL     1      20.578   4.713  49.232  1.00  0.00     0.187 C 
HETATM    6  N1  UNL     1      21.708   5.565  49.116  1.00  0.00    -0.236 N 
HETATM    7  S1  UNL     1      22.064   6.283  47.516  1.00  0.00    -0.001 SA
HETATM    8  C13 UNL     1      21.780   5.055  46.246  1.00  0.00     0.127 C 
HETATM    9  C14 UNL     1      21.744   3.786  45.791  1.00  0.00     0.172 C 
HETATM   10  N3  UNL     1      22.163   3.307  47.054  1.00  0.00    -0.219 NA
HETATM   11  C16 UNL     1      22.249   2.082  47.417  1.00  0.00     0.209 C 
HETATM   12  N4  UNL     1      22.704   1.825  48.763  1.00  0.00    -0.360 N 
HETATM   13  C17 UNL     1      22.137   1.141  49.895  1.00  0.00     0.091 C 
HETATM   14  C18 UNL     1      21.272   1.193  50.892  1.00  0.00     0.053 C 
HETATM   15  H19 UNL     1      23.669   2.287  48.827  1.00  0.00     0.166 HD
ENDROOT
BRANCH   6  16
HETATM   16  N2  UNL     1      22.521   5.818  50.225  1.00  0.00    -0.181 NA
HETATM   17  C7  UNL     1      23.752   5.484  50.296  1.00  0.00     0.124 C 
BRANCH  17  18
HETATM   18  C8  UNL     1      24.540   4.783  49.256  1.00  0.00     0.074 A 
HETATM   19  C9  UNL     1      25.313   3.634  49.764  1.00  0.00    -0.011 A 
HETATM   20  C10 UNL     1      26.609   3.839  49.553  1.00  0.00     0.015 A 
HETATM   21  C11 UNL     1      26.798   5.130  48.895  1.00  0.00     0.007 A 
HETATM   22 BR1  UNL     1      28.331   6.080  48.293  1.00  0.00    -0.051 Br
HETATM   23  C12 UNL     1      25.603   5.681  48.720  1.00  0.00     0.006 A 
ENDBRANCH  17  18
ENDBRANCH   6  16
BRANCH   9  24
HETATM   24  O2  UNL     1      21.361   3.536  44.458  1.00  0.00    -0.339 OA
HETATM   25  C15 UNL     1      20.753   4.541  43.669  1.00  0.00     0.211 C 
ENDBRANCH   9  24
BRANCH   1  26
HETATM   26  O1  UNL     1      19.855   0.974  52.763  1.00  0.00    -0.356 OA
HETATM   27  C1  UNL     1      20.797   0.636  53.741  1.00  0.00     0.210 C 
ENDBRANCH   1  26
TORSDOF 4
ENDMDL
MODEL 8
REMARK VINA RESULT:      -6.3      4.067      7.105
REMARK  4 active torsions:
REMARK  status: ('A' for Active; 'I' for Inactive)
REMARK    1  A    between atoms: O1_2  and  C2_3 
REMARK    2  A    between atoms: N1_8  and  N2_9 
REMARK    3  A    between atoms: C7_10  and  C8_11 
REMARK    4  A    between atoms: C14_19  and  O2_20 
ROOT
HETATM    1  C2  UNL     1      27.515   7.442  48.740  1.00  0.00     0.069 C 
HETATM    2  C3  UNL     1      26.630   8.211  49.346  1.00  0.00     0.036 C 
HETATM    3  C4  UNL     1      25.451   8.507  50.137  1.00  0.00     0.000 C 
HETATM    4  C5  UNL     1      24.535   7.776  50.743  1.00  0.00    -0.005 C 
HETATM    5  C6  UNL     1      24.500   6.312  50.754  1.00  0.00     0.187 C 
HETATM    6  N1  UNL     1      23.341   5.691  50.217  1.00  0.00    -0.236 N 
HETATM    7  S1  UNL     1      22.433   4.555  51.259  1.00  0.00    -0.001 SA
HETATM    8  C13 UNL     1      23.592   3.556  52.187  1.00  0.00     0.127 C 
HETATM    9  C14 UNL     1      24.774   2.930  52.349  1.00  0.00     0.172 C 
HETATM   10  N3  UNL     1      25.198   3.372  51.073  1.00  0.00    -0.219 NA
HETATM   11  C16 UNL     1      26.363   3.230  50.563  1.00  0.00     0.209 C 
HETATM   12  N4  UNL     1      26.571   3.763  49.237  1.00  0.00    -0.360 N 
HETATM   13  C17 UNL     1      27.476   4.735  48.683  1.00  0.00     0.091 C 
HETATM   14  C18 UNL     1      27.761   6.017  48.538  1.00  0.00     0.053 C 
HETATM   15  H19 UNL     1      25.846   3.272  48.620  1.00  0.00     0.166 HD
ENDROOT
BRANCH   6  16
HETATM   16  N2  UNL     1      22.938   5.956  48.905  1.00  0.00    -0.181 NA
HETATM   17  C7  UNL     1      21.988   6.753  48.599  1.00  0.00     0.124 C 
BRANCH  17  18
HETATM   18  C8  UNL     1      21.148   7.530  49.539  1.00  0.00     0.074 A 
HETATM   19  C9  UNL     1      19.704   7.460  49.248  1.00  0.00    -0.011 A 
HETATM   20  C10 UNL     1      19.240   8.679  48.993  1.00  0.00     0.015 A 
HETATM   21  C11 UNL     1      20.330   9.647  49.093  1.00  0.00     0.007 A 
HETATM   22 BR1  UNL     1      20.431  11.532  48.868  1.00  0.00    -0.051 Br
HETATM   23  C12 UNL     1      21.437   8.987  49.409  1.00  0.00     0.006 A 
ENDBRANCH  17  18
ENDBRANCH   6  16
BRANCH   9  24
HETATM   24  O2  UNL     1      25.028   2.219  53.538  1.00  0.00    -0.339 OA
HETATM   25  C15 UNL     1      25.395   0.852  53.512  1.00  0.00     0.211 C 
ENDBRANCH   9  24
BRANCH   1  26
HETATM   26  O1  UNL     1      28.534   8.196  48.082  1.00  0.00    -0.356 OA
HETATM   27  C1  UNL     1      29.878   7.918  48.360  1.00  0.00     0.210 C 
ENDBRANCH   1  26
TORSDOF 4
ENDMDL
MODEL 9
REMARK VINA RESULT:      -6.1      2.507      5.629
REMARK  4 active torsions:
REMARK  status: ('A' for Active; 'I' for Inactive)
REMARK    1  A    between atoms: O1_2  and  C2_3 
REMARK    2  A    between atoms: N1_8  and  N2_9 
REMARK    3  A    between atoms: C7_10  and  C8_11 
REMARK    4  A    between atoms: C14_19  and  O2_20 
ROOT
HETATM    1  C2  UNL     1      19.016   4.605  49.753  1.00  0.00     0.069 C 
HETATM    2  C3  UNL     1      19.498   4.346  50.954  1.00  0.00     0.036 C 
HETATM    3  C4  UNL     1      20.527   4.163  51.959  1.00  0.00     0.000 C 
HETATM    4  C5  UNL     1      21.844   4.244  51.961  1.00  0.00    -0.005 C 
HETATM    5  C6  UNL     1      22.667   4.579  50.797  1.00  0.00     0.187 C 
HETATM    6  N1  UNL     1      23.630   3.618  50.390  1.00  0.00    -0.236 N 
HETATM    7  S1  UNL     1      25.341   4.130  50.282  1.00  0.00    -0.001 SA
HETATM    8  C13 UNL     1      25.418   5.774  49.580  1.00  0.00     0.127 C 
HETATM    9  C14 UNL     1      24.958   6.762  48.786  1.00  0.00     0.172 C 
HETATM   10  N3  UNL     1      23.882   5.944  48.369  1.00  0.00    -0.219 NA
HETATM   11  C16 UNL     1      22.895   6.296  47.633  1.00  0.00     0.209 C 
HETATM   12  N4  UNL     1      21.906   5.287  47.333  1.00  0.00    -0.360 N 
HETATM   13  C17 UNL     1      20.488   5.182  47.554  1.00  0.00     0.091 C 
HETATM   14  C18 UNL     1      19.525   4.940  48.426  1.00  0.00     0.053 C 
HETATM   15  H19 UNL     1      22.447   4.496  46.854  1.00  0.00     0.166 HD
ENDROOT
BRANCH   6  16
HETATM   16  N2  UNL     1      23.239   2.314  50.071  1.00  0.00    -0.181 NA
HETATM   17  C7  UNL     1      23.297   1.333  50.888  1.00  0.00     0.124 C 
BRANCH  17  18
HETATM   18  C8  UNL     1      23.775   1.375  52.288  1.00  0.00     0.074 A 
HETATM   19  C9  UNL     1      25.027   0.630  52.516  1.00  0.00    -0.011 A 
HETATM   20  C10 UNL     1      24.816  -0.339  53.400  1.00  0.00     0.015 A 
HETATM   21  C11 UNL     1      23.418  -0.315  53.826  1.00  0.00     0.007 A 
HETATM   22 BR1  UNL     1      22.401  -1.368  55.039  1.00  0.00    -0.051 Br
HETATM   23  C12 UNL     1      22.811   0.677  53.186  1.00  0.00     0.006 A 
ENDBRANCH  17  18
ENDBRANCH   6  16
BRANCH   9  24
HETATM   24  O2  UNL     1      25.649   7.988  48.731  1.00  0.00    -0.339 OA
HETATM   25  C15 UNL     1      24.960   9.210  48.547  1.00  0.00     0.211 C 
ENDBRANCH   9  24
BRANCH   1  26
HETATM   26  O1  UNL     1      17.589   4.542  49.710  1.00  0.00    -0.356 OA
HETATM   27  C1  UNL     1      16.905   3.851  50.717  1.00  0.00     0.210 C 
ENDBRANCH   1  26
TORSDOF 4
ENDMDL
