MODEL 1
REMARK VINA RESULT:      -8.8      0.000      0.000
REMARK  0 active torsions:
REMARK  status: ('A' for Active; 'I' for Inactive)
ROOT
HETATM    1  C1  UNL     1      20.607   1.225  52.292  1.00  0.00     0.007 C 
HETATM    2  C2  UNL     1      20.925   2.448  51.835  1.00  0.00     0.073 C 
HETATM    3  C3  UNL     1      22.007   3.420  52.102  1.00  0.00     0.339 C 
HETATM    4  N1  UNL     1      22.594   3.594  50.770  1.00  0.00     0.121 N 
HETATM    5  C4  UNL     1      23.573   2.577  50.514  1.00  0.00     0.303 C 
HETATM    6  C5  UNL     1      24.264   2.316  51.842  1.00  0.00     0.012 C 
HETATM    7  C6  UNL     1      24.705   1.641  52.932  1.00  0.00    -0.036 C 
HETATM    8  C7  UNL     1      25.484   2.548  53.871  1.00  0.00     0.160 C 
HETATM    9  N2  UNL     1      26.904   2.351  53.701  1.00  0.00    -0.370 N 
HETATM   10  C8  UNL     1      27.607   1.120  53.598  1.00  0.00     0.136 A 
HETATM   11  N3  UNL     1      28.952   1.332  53.575  1.00  0.00    -0.224 NA
HETATM   12  C9  UNL     1      29.788   0.268  53.481  1.00  0.00     0.234 A 
HETATM   13  N4  UNL     1      29.294  -0.979  53.410  1.00  0.00    -0.253 NA
HETATM   14  C10 UNL     1      27.969  -1.236  53.428  1.00  0.00     0.133 A 
HETATM   15  C11 UNL     1      27.091  -0.156  53.525  1.00  0.00     0.028 A 
HETATM   16  C12 UNL     1      25.656  -0.518  53.539  1.00  0.00     0.024 C 
HETATM   17  C13 UNL     1      24.544   0.219  53.288  1.00  0.00    -0.050 C 
HETATM   18  C14 UNL     1      23.478  -0.831  53.484  1.00  0.00     0.039 C 
HETATM   19  C15 UNL     1      22.256  -0.516  52.699  1.00  0.00     0.008 C 
HETATM   20  C16 UNL     1      21.603   0.749  53.295  1.00  0.00     0.030 C 
HETATM   21  C17 UNL     1      21.424   3.564  49.907  1.00  0.00     0.447 C 
HETATM   22  O1  UNL     1      20.345   3.322  50.877  1.00  0.00    -0.324 OA
HETATM   23  H9  UNL     1      27.524   3.172  53.642  1.00  0.00     0.161 HD
ENDROOT
TORSDOF 0
ENDMDL
MODEL 2
REMARK VINA RESULT:      -8.7      3.395      5.197
REMARK  0 active torsions:
REMARK  status: ('A' for Active; 'I' for Inactive)
ROOT
HETATM    1  C1  UNL     1      26.617   4.315  49.588  1.00  0.00     0.007 C 
HETATM    2  C2  UNL     1      25.482   4.964  49.280  1.00  0.00     0.073 C 
HETATM    3  C3  UNL     1      24.060   4.582  49.136  1.00  0.00     0.339 C 
HETATM    4  N1  UNL     1      23.409   5.459  50.113  1.00  0.00     0.121 N 
HETATM    5  C4  UNL     1      23.434   4.866  51.419  1.00  0.00     0.303 C 
HETATM    6  C5  UNL     1      23.261   3.372  51.204  1.00  0.00     0.012 C 
HETATM    7  C6  UNL     1      23.535   2.045  51.239  1.00  0.00    -0.036 C 
HETATM    8  C7  UNL     1      22.430   1.231  50.584  1.00  0.00     0.160 C 
HETATM    9  N2  UNL     1      21.572   0.647  51.586  1.00  0.00    -0.370 N 
HETATM   10  C8  UNL     1      21.955  -0.017  52.783  1.00  0.00     0.136 A 
HETATM   11  N3  UNL     1      20.869  -0.546  53.412  1.00  0.00    -0.224 NA
HETATM   12  C9  UNL     1      21.041  -1.222  54.575  1.00  0.00     0.234 A 
HETATM   13  N4  UNL     1      22.270  -1.366  55.101  1.00  0.00    -0.253 NA
HETATM   14  C10 UNL     1      23.374  -0.859  54.513  1.00  0.00     0.133 A 
HETATM   15  C11 UNL     1      23.218  -0.160  53.315  1.00  0.00     0.028 A 
HETATM   16  C12 UNL     1      24.474   0.365  52.733  1.00  0.00     0.024 C 
HETATM   17  C13 UNL     1      24.696   1.337  51.812  1.00  0.00    -0.050 C 
HETATM   18  C14 UNL     1      26.203   1.306  51.749  1.00  0.00     0.039 C 
HETATM   19  C15 UNL     1      26.755   2.621  51.328  1.00  0.00     0.008 C 
HETATM   20  C16 UNL     1      26.356   2.871  49.858  1.00  0.00     0.030 C 
HETATM   21  C17 UNL     1      24.165   6.695  49.974  1.00  0.00     0.447 C 
HETATM   22  O1  UNL     1      25.173   6.316  48.972  1.00  0.00    -0.324 OA
HETATM   23  H9  UNL     1      20.550   0.692  51.465  1.00  0.00     0.161 HD
ENDROOT
TORSDOF 0
ENDMDL
MODEL 3
REMARK VINA RESULT:      -8.6      1.416      1.988
REMARK  0 active torsions:
REMARK  status: ('A' for Active; 'I' for Inactive)
ROOT
HETATM    1  C1  UNL     1      19.964   2.061  49.950  1.00  0.00     0.007 C 
HETATM    2  C2  UNL     1      20.552   3.194  49.530  1.00  0.00     0.073 C 
HETATM    3  C3  UNL     1      21.571   4.114  50.079  1.00  0.00     0.339 C 
HETATM    4  N1  UNL     1      22.603   4.082  49.038  1.00  0.00     0.121 N 
HETATM    5  C4  UNL     1      23.493   2.976  49.245  1.00  0.00     0.303 C 
HETATM    6  C5  UNL     1      23.643   2.835  50.751  1.00  0.00     0.012 C 
HETATM    7  C6  UNL     1      23.598   2.270  51.982  1.00  0.00    -0.036 C 
HETATM    8  C7  UNL     1      24.093   3.231  53.052  1.00  0.00     0.160 C 
HETATM    9  N2  UNL     1      25.452   2.917  53.424  1.00  0.00    -0.370 N 
HETATM   10  C8  UNL     1      26.008   1.637  53.693  1.00  0.00     0.136 A 
HETATM   11  N3  UNL     1      27.290   1.752  54.137  1.00  0.00    -0.224 NA
HETATM   12  C9  UNL     1      27.986   0.629  54.447  1.00  0.00     0.234 A 
HETATM   13  N4  UNL     1      27.416  -0.581  54.316  1.00  0.00    -0.253 NA
HETATM   14  C10 UNL     1      26.149  -0.741  53.880  1.00  0.00     0.133 A 
HETATM   15  C11 UNL     1      25.416   0.401  53.555  1.00  0.00     0.028 A 
HETATM   16  C12 UNL     1      24.037   0.143  53.084  1.00  0.00     0.024 C 
HETATM   17  C13 UNL     1      23.169   0.917  52.384  1.00  0.00    -0.050 C 
HETATM   18  C14 UNL     1      21.996  -0.024  52.278  1.00  0.00     0.039 C 
HETATM   19  C15 UNL     1      21.167   0.274  51.080  1.00  0.00     0.008 C 
HETATM   20  C16 UNL     1      20.489   1.646  51.284  1.00  0.00     0.030 C 
HETATM   21  C17 UNL     1      21.813   4.026  47.817  1.00  0.00     0.447 C 
HETATM   22  O1  UNL     1      20.443   3.981  48.352  1.00  0.00    -0.324 OA
HETATM   23  H9  UNL     1      26.139   3.679  53.518  1.00  0.00     0.161 HD
ENDROOT
TORSDOF 0
ENDMDL
MODEL 4
REMARK VINA RESULT:      -8.5      3.403      6.844
REMARK  0 active torsions:
REMARK  status: ('A' for Active; 'I' for Inactive)
ROOT
HETATM    1  C1  UNL     1      28.618   1.934  53.161  1.00  0.00     0.007 C 
HETATM    2  C2  UNL     1      29.013   0.743  53.641  1.00  0.00     0.073 C 
HETATM    3  C3  UNL     1      28.425  -0.276  54.537  1.00  0.00     0.339 C 
HETATM    4  N1  UNL     1      28.423  -1.467  53.683  1.00  0.00     0.121 N 
HETATM    5  C4  UNL     1      27.242  -1.503  52.869  1.00  0.00     0.303 C 
HETATM    6  C5  UNL     1      26.124  -0.935  53.728  1.00  0.00     0.012 C 
HETATM    7  C6  UNL     1      25.117  -0.116  54.121  1.00  0.00    -0.036 C 
HETATM    8  C7  UNL     1      24.545  -0.545  55.463  1.00  0.00     0.160 C 
HETATM    9  N2  UNL     1      23.312  -1.271  55.277  1.00  0.00    -0.370 N 
HETATM   10  C8  UNL     1      22.225  -0.939  54.422  1.00  0.00     0.136 A 
HETATM   11  N3  UNL     1      21.182  -1.794  54.612  1.00  0.00    -0.224 NA
HETATM   12  C9  UNL     1      20.051  -1.631  53.882  1.00  0.00     0.234 A 
HETATM   13  N4  UNL     1      19.962  -0.638  52.981  1.00  0.00    -0.253 NA
HETATM   14  C10 UNL     1      20.971   0.231  52.759  1.00  0.00     0.133 A 
HETATM   15  C11 UNL     1      22.143   0.081  53.500  1.00  0.00     0.028 A 
HETATM   16  C12 UNL     1      23.201   1.072  53.199  1.00  0.00     0.024 C 
HETATM   17  C13 UNL     1      24.537   1.057  53.442  1.00  0.00    -0.050 C 
HETATM   18  C14 UNL     1      24.931   2.384  52.843  1.00  0.00     0.039 C 
HETATM   19  C15 UNL     1      26.351   2.379  52.400  1.00  0.00     0.008 C 
HETATM   20  C16 UNL     1      27.253   2.285  53.649  1.00  0.00     0.030 C 
HETATM   21  C17 UNL     1      29.677  -1.332  52.957  1.00  0.00     0.447 C 
HETATM   22  O1  UNL     1      30.181  -0.048  53.471  1.00  0.00    -0.324 OA
HETATM   23  H9  UNL     1      23.153  -2.141  55.805  1.00  0.00     0.161 HD
ENDROOT
TORSDOF 0
ENDMDL
MODEL 5
REMARK VINA RESULT:      -8.3      1.839      3.326
REMARK  0 active torsions:
REMARK  status: ('A' for Active; 'I' for Inactive)
ROOT
HETATM    1  C1  UNL     1      23.056   4.373  48.733  1.00  0.00     0.007 C 
HETATM    2  C2  UNL     1      22.018   4.047  49.520  1.00  0.00     0.073 C 
HETATM    3  C3  UNL     1      21.728   2.958  50.478  1.00  0.00     0.339 C 
HETATM    4  N1  UNL     1      21.461   3.701  51.713  1.00  0.00     0.121 N 
HETATM    5  C4  UNL     1      22.685   3.982  52.407  1.00  0.00     0.303 C 
HETATM    6  C5  UNL     1      23.578   2.772  52.187  1.00  0.00     0.012 C 
HETATM    7  C6  UNL     1      24.652   2.042  51.799  1.00  0.00    -0.036 C 
HETATM    8  C7  UNL     1      24.473   0.569  52.133  1.00  0.00     0.160 C 
HETATM    9  N2  UNL     1      25.209   0.229  53.327  1.00  0.00    -0.370 N 
HETATM   10  C8  UNL     1      26.539   0.597  53.665  1.00  0.00     0.136 A 
HETATM   11  N3  UNL     1      26.934  -0.018  54.814  1.00  0.00    -0.224 NA
HETATM   12  C9  UNL     1      28.181   0.213  55.294  1.00  0.00     0.234 A 
HETATM   13  N4  UNL     1      29.017   1.040  54.643  1.00  0.00    -0.253 NA
HETATM   14  C10 UNL     1      28.669   1.670  53.501  1.00  0.00     0.133 A 
HETATM   15  C11 UNL     1      27.390   1.446  52.991  1.00  0.00     0.028 A 
HETATM   16  C12 UNL     1      27.083   2.173  51.738  1.00  0.00     0.024 C 
HETATM   17  C13 UNL     1      25.901   2.476  51.145  1.00  0.00    -0.050 C 
HETATM   18  C14 UNL     1      26.394   3.227  49.933  1.00  0.00     0.039 C 
HETATM   19  C15 UNL     1      25.376   4.193  49.441  1.00  0.00     0.008 C 
HETATM   20  C16 UNL     1      24.175   3.398  48.886  1.00  0.00     0.030 C 
HETATM   21  C17 UNL     1      20.739   4.867  51.225  1.00  0.00     0.447 C 
HETATM   22  O1  UNL     1      20.750   4.637  49.772  1.00  0.00    -0.324 OA
HETATM   23  H9  UNL     1      24.758  -0.348  54.051  1.00  0.00     0.161 HD
ENDROOT
TORSDOF 0
ENDMDL
MODEL 6
REMARK VINA RESULT:      -8.2      2.506      4.265
REMARK  0 active torsions:
REMARK  status: ('A' for Active; 'I' for Inactive)
ROOT
HETATM    1  C1  UNL     1      24.249   5.328  49.059  1.00  0.00     0.007 C 
HETATM    2  C2  UNL     1      22.966   5.530  49.401  1.00  0.00     0.073 C 
HETATM    3  C3  UNL     1      21.869   4.680  49.909  1.00  0.00     0.339 C 
HETATM    4  N1  UNL     1      21.524   5.347  51.168  1.00  0.00     0.121 N 
HETATM    5  C4  UNL     1      22.370   4.887  52.231  1.00  0.00     0.303 C 
HETATM    6  C5  UNL     1      22.616   3.412  51.962  1.00  0.00     0.012 C 
HETATM    7  C6  UNL     1      23.291   2.262  51.717  1.00  0.00    -0.036 C 
HETATM    8  C7  UNL     1      22.345   1.080  51.581  1.00  0.00     0.160 C 
HETATM    9  N2  UNL     1      22.324   0.307  52.800  1.00  0.00    -0.370 N 
HETATM   10  C8  UNL     1      23.432  -0.105  53.590  1.00  0.00     0.136 A 
HETATM   11  N3  UNL     1      23.028  -0.928  54.596  1.00  0.00    -0.224 NA
HETATM   12  C9  UNL     1      23.951  -1.425  55.456  1.00  0.00     0.234 A 
HETATM   13  N4  UNL     1      25.250  -1.109  55.316  1.00  0.00    -0.253 NA
HETATM   14  C10 UNL     1      25.695  -0.297  54.333  1.00  0.00     0.133 A 
HETATM   15  C11 UNL     1      24.761   0.225  53.438  1.00  0.00     0.028 A 
HETATM   16  C12 UNL     1      25.326   1.105  52.391  1.00  0.00     0.024 C 
HETATM   17  C13 UNL     1      24.743   2.031  51.588  1.00  0.00    -0.050 C 
HETATM   18  C14 UNL     1      25.945   2.509  50.813  1.00  0.00     0.039 C 
HETATM   19  C15 UNL     1      25.759   3.902  50.327  1.00  0.00     0.008 C 
HETATM   20  C16 UNL     1      24.642   3.903  49.261  1.00  0.00     0.030 C 
HETATM   21  C17 UNL     1      21.665   6.754  50.823  1.00  0.00     0.447 C 
HETATM   22  O1  UNL     1      22.123   6.673  49.427  1.00  0.00    -0.324 OA
HETATM   23  H9  UNL     1      21.421  -0.006  53.185  1.00  0.00     0.161 HD
ENDROOT
TORSDOF 0
ENDMDL
MODEL 7
REMARK VINA RESULT:      -8.2      3.056      4.258
REMARK  0 active torsions:
REMARK  status: ('A' for Active; 'I' for Inactive)
ROOT
HETATM    1  C1  UNL     1      21.345  -1.077  54.117  1.00  0.00     0.007 C 
HETATM    2  C2  UNL     1      20.278  -0.404  53.657  1.00  0.00     0.073 C 
HETATM    3  C3  UNL     1      20.014   0.992  53.248  1.00  0.00     0.339 C 
HETATM    4  N1  UNL     1      19.559   0.824  51.865  1.00  0.00     0.121 N 
HETATM    5  C4  UNL     1      20.678   0.775  50.968  1.00  0.00     0.303 C 
HETATM    6  C5  UNL     1      21.707   1.742  51.530  1.00  0.00     0.012 C 
HETATM    7  C6  UNL     1      22.882   2.192  52.036  1.00  0.00    -0.036 C 
HETATM    8  C7  UNL     1      22.825   3.683  52.331  1.00  0.00     0.160 C 
HETATM    9  N2  UNL     1      23.479   4.431  51.284  1.00  0.00    -0.370 N 
HETATM   10  C8  UNL     1      24.727   4.153  50.664  1.00  0.00     0.136 A 
HETATM   11  N3  UNL     1      25.075   5.154  49.809  1.00  0.00    -0.224 NA
HETATM   12  C9  UNL     1      26.242   5.064  49.124  1.00  0.00     0.234 A 
HETATM   13  N4  UNL     1      27.045   3.999  49.288  1.00  0.00    -0.253 NA
HETATM   14  C10 UNL     1      26.741   2.985  50.125  1.00  0.00     0.133 A 
HETATM   15  C11 UNL     1      25.545   3.058  50.839  1.00  0.00     0.028 A 
HETATM   16  C12 UNL     1      25.282   1.909  51.734  1.00  0.00     0.024 C 
HETATM   17  C13 UNL     1      24.135   1.461  52.304  1.00  0.00    -0.050 C 
HETATM   18  C14 UNL     1      24.658   0.260  53.052  1.00  0.00     0.039 C 
HETATM   19  C15 UNL     1      23.596  -0.761  53.250  1.00  0.00     0.008 C 
HETATM   20  C16 UNL     1      22.540  -0.189  54.218  1.00  0.00     0.030 C 
HETATM   21  C17 UNL     1      18.769  -0.396  51.943  1.00  0.00     0.447 C 
HETATM   22  O1  UNL     1      18.939  -0.769  53.356  1.00  0.00    -0.324 OA
HETATM   23  H9  UNL     1      23.024   5.274  50.907  1.00  0.00     0.161 HD
ENDROOT
TORSDOF 0
ENDMDL
MODEL 8
REMARK VINA RESULT:      -8.1      3.358      6.987
REMARK  0 active torsions:
REMARK  status: ('A' for Active; 'I' for Inactive)
ROOT
HETATM    1  C1  UNL     1      26.221   2.404  53.186  1.00  0.00     0.007 C 
HETATM    2  C2  UNL     1      26.566   1.226  53.732  1.00  0.00     0.073 C 
HETATM    3  C3  UNL     1      25.872   0.197  54.536  1.00  0.00     0.339 C 
HETATM    4  N1  UNL     1      26.028  -0.998  53.703  1.00  0.00     0.121 N 
HETATM    5  C4  UNL     1      24.986  -1.067  52.719  1.00  0.00     0.303 C 
HETATM    6  C5  UNL     1      23.737  -0.522  53.393  1.00  0.00     0.012 C 
HETATM    7  C6  UNL     1      22.663   0.274  53.621  1.00  0.00    -0.036 C 
HETATM    8  C7  UNL     1      21.904  -0.162  54.864  1.00  0.00     0.160 C 
HETATM    9  N2  UNL     1      20.730  -0.918  54.500  1.00  0.00    -0.370 N 
HETATM   10  C8  UNL     1      19.779  -0.618  53.487  1.00  0.00     0.136 A 
HETATM   11  N3  UNL     1      18.740  -1.496  53.524  1.00  0.00    -0.224 NA
HETATM   12  C9  UNL     1      17.729  -1.365  52.628  1.00  0.00     0.234 A 
HETATM   13  N4  UNL     1      17.756  -0.379  51.715  1.00  0.00    -0.253 NA
HETATM   14  C10 UNL     1      18.765   0.513  51.641  1.00  0.00     0.133 A 
HETATM   15  C11 UNL     1      19.814   0.396  52.554  1.00  0.00     0.028 A 
HETATM   16  C12 UNL     1      20.883   1.410  52.408  1.00  0.00     0.024 C 
HETATM   17  C13 UNL     1      22.166   1.429  52.851  1.00  0.00    -0.050 C 
HETATM   18  C14 UNL     1      22.616   2.762  52.307  1.00  0.00     0.039 C 
HETATM   19  C15 UNL     1      24.086   2.789  52.086  1.00  0.00     0.008 C 
HETATM   20  C16 UNL     1      24.789   2.724  53.458  1.00  0.00     0.030 C 
HETATM   21  C17 UNL     1      27.374  -0.836  53.175  1.00  0.00     0.447 C 
HETATM   22  O1  UNL     1      27.764   0.462  53.748  1.00  0.00    -0.324 OA
HETATM   23  H9  UNL     1      20.513  -1.790  55.005  1.00  0.00     0.161 HD
ENDROOT
TORSDOF 0
ENDMDL
MODEL 9
REMARK VINA RESULT:      -7.6      3.497      6.366
REMARK  0 active torsions:
REMARK  status: ('A' for Active; 'I' for Inactive)
ROOT
HETATM    1  C1  UNL     1      26.266   2.642  51.449  1.00  0.00     0.007 C 
HETATM    2  C2  UNL     1      25.766   3.474  50.520  1.00  0.00     0.073 C 
HETATM    3  C3  UNL     1      24.641   3.425  49.562  1.00  0.00     0.339 C 
HETATM    4  N1  UNL     1      23.857   4.600  49.952  1.00  0.00     0.121 N 
HETATM    5  C4  UNL     1      22.957   4.274  51.021  1.00  0.00     0.303 C 
HETATM    6  C5  UNL     1      22.491   2.851  50.757  1.00  0.00     0.012 C 
HETATM    7  C6  UNL     1      22.278   1.528  50.959  1.00  0.00    -0.036 C 
HETATM    8  C7  UNL     1      21.553   0.895  49.782  1.00  0.00     0.160 C 
HETATM    9  N2  UNL     1      20.151   0.732  50.081  1.00  0.00    -0.370 N 
HETATM   10  C8  UNL     1      19.567   0.232  51.276  1.00  0.00     0.136 A 
HETATM   11  N3  UNL     1      18.218   0.106  51.139  1.00  0.00    -0.224 NA
HETATM   12  C9  UNL     1      17.487  -0.361  52.182  1.00  0.00     0.234 A 
HETATM   13  N4  UNL     1      18.088  -0.695  53.336  1.00  0.00    -0.253 NA
HETATM   14  C10 UNL     1      19.421  -0.586  53.517  1.00  0.00     0.133 A 
HETATM   15  C11 UNL     1      20.191  -0.108  52.457  1.00  0.00     0.028 A 
HETATM   16  C12 UNL     1      21.643  -0.017  52.732  1.00  0.00     0.024 C 
HETATM   17  C13 UNL     1      22.629   0.683  52.116  1.00  0.00    -0.050 C 
HETATM   18  C14 UNL     1      23.811   0.280  52.963  1.00  0.00     0.039 C 
HETATM   19  C15 UNL     1      24.873   1.321  52.942  1.00  0.00     0.008 C 
HETATM   20  C16 UNL     1      25.473   1.380  51.522  1.00  0.00     0.030 C 
HETATM   21  C17 UNL     1      24.890   5.570  50.280  1.00  0.00     0.447 C 
HETATM   22  O1  UNL     1      26.114   4.779  50.078  1.00  0.00    -0.324 OA
HETATM   23  H9  UNL     1      19.449   0.998  49.374  1.00  0.00     0.161 HD
ENDROOT
TORSDOF 0
ENDMDL
