MODEL 1
REMARK VINA RESULT:      -7.6      0.000      0.000
REMARK  8 active torsions:
REMARK  status: ('A' for Active; 'I' for Inactive)
REMARK    1  A    between atoms: C2_2  and  C3_3 
REMARK    2  A    between atoms: C3_3  and  C4_4 
REMARK    3  A    between atoms: C4_4  and  C5_5 
REMARK    4  A    between atoms: C5_5  and  C6_6 
REMARK    5  A    between atoms: C6_6  and  C7_7 
REMARK    6  A    between atoms: C7_7  and  N1_8 
REMARK    7  A    between atoms: N1_8  and  C8_9 
REMARK    8  A    between atoms: C15_20  and  O1_21 
ROOT
HETATM    1  C8  UNL     1      26.315   2.232  52.208  1.00  0.00     0.136 C 
HETATM    2  N2  UNL     1      27.602   2.037  52.365  1.00  0.00    -0.213 NA
HETATM    3  C9  UNL     1      28.082   0.906  53.082  1.00  0.00     0.156 C 
HETATM    4  N3  UNL     1      29.294   0.495  53.215  1.00  0.00    -0.249 NA
HETATM    5  C10 UNL     1      29.643  -0.703  53.993  1.00  0.00     0.323 C 
HETATM    6  N4  UNL     1      28.753  -1.761  53.569  1.00  0.00    -0.175 NA
HETATM    7  N5  UNL     1      27.537  -1.408  53.483  1.00  0.00    -0.178 NA
HETATM    8  C11 UNL     1      27.222  -0.025  53.814  1.00  0.00     0.235 C 
HETATM    9  C12 UNL     1      25.800   0.221  53.541  1.00  0.00    -0.010 A 
HETATM   10  C13 UNL     1      24.901  -0.677  54.082  1.00  0.00     0.013 A 
HETATM   11  C14 UNL     1      23.546  -0.478  53.880  1.00  0.00     0.037 A 
HETATM   12  C15 UNL     1      23.112   0.617  53.138  1.00  0.00     0.069 A 
HETATM   13  C17 UNL     1      24.037   1.511  52.599  1.00  0.00     0.052 A 
HETATM   14  C18 UNL     1      25.364   1.312  52.800  1.00  0.00     0.021 A 
ENDROOT
BRANCH   1  15
HETATM   15  N1  UNL     1      25.875   3.371  51.483  1.00  0.00    -0.373 N 
HETATM   16  H10 UNL     1      25.225   4.084  51.879  1.00  0.00     0.161 HD
BRANCH  15  17
HETATM   17  C7  UNL     1      26.385   3.513  50.113  1.00  0.00     0.139 C 
BRANCH  17  18
HETATM   18  C6  UNL     1      25.342   4.184  49.349  1.00  0.00     0.091 C 
BRANCH  18  19
HETATM   19  C5  UNL     1      24.085   3.780  49.473  1.00  0.00    -0.148 C 
BRANCH  19  20
HETATM   20  C4  UNL     1      22.871   3.269  49.344  1.00  0.00     0.051 C 
BRANCH  20  21
HETATM   21  C3  UNL     1      22.648   2.472  48.164  1.00  0.00     0.003 C 
BRANCH  21  22
HETATM   22  C2  UNL     1      21.812   1.426  48.227  1.00  0.00    -0.030 C 
HETATM   23  C1  UNL     1      21.490   0.949  49.597  1.00  0.00     0.036 C 
ENDBRANCH  21  22
ENDBRANCH  20  21
ENDBRANCH  19  20
ENDBRANCH  18  19
ENDBRANCH  17  18
ENDBRANCH  15  17
ENDBRANCH   1  15
BRANCH  12  24
HETATM   24  O1  UNL     1      21.733   0.673  53.028  1.00  0.00    -0.356 OA
HETATM   25  C16 UNL     1      20.953  -0.360  53.549  1.00  0.00     0.210 C 
ENDBRANCH  12  24
TORSDOF 8
ENDMDL
MODEL 2
REMARK VINA RESULT:      -7.5      2.018      4.595
REMARK  8 active torsions:
REMARK  status: ('A' for Active; 'I' for Inactive)
REMARK    1  A    between atoms: C2_2  and  C3_3 
REMARK    2  A    between atoms: C3_3  and  C4_4 
REMARK    3  A    between atoms: C4_4  and  C5_5 
REMARK    4  A    between atoms: C5_5  and  C6_6 
REMARK    5  A    between atoms: C6_6  and  C7_7 
REMARK    6  A    between atoms: C7_7  and  N1_8 
REMARK    7  A    between atoms: N1_8  and  C8_9 
REMARK    8  A    between atoms: C15_20  and  O1_21 
ROOT
HETATM    1  C8  UNL     1      24.436  -0.026  53.313  1.00  0.00     0.136 C 
HETATM    2  N2  UNL     1      25.357  -0.490  54.125  1.00  0.00    -0.213 NA
HETATM    3  C9  UNL     1      26.674   0.046  54.108  1.00  0.00     0.156 C 
HETATM    4  N3  UNL     1      27.648  -0.194  54.913  1.00  0.00    -0.249 NA
HETATM    5  C10 UNL     1      28.967   0.440  54.772  1.00  0.00     0.323 C 
HETATM    6  N4  UNL     1      28.741   1.859  54.599  1.00  0.00    -0.175 NA
HETATM    7  N5  UNL     1      27.825   2.136  53.767  1.00  0.00    -0.178 NA
HETATM    8  C11 UNL     1      27.151   1.018  53.122  1.00  0.00     0.235 C 
HETATM    9  C12 UNL     1      26.054   1.532  52.293  1.00  0.00    -0.010 A 
HETATM   10  C13 UNL     1      26.368   2.547  51.410  1.00  0.00     0.013 A 
HETATM   11  C14 UNL     1      25.378   3.052  50.585  1.00  0.00     0.037 A 
HETATM   12  C15 UNL     1      24.088   2.532  50.655  1.00  0.00     0.069 A 
HETATM   13  C17 UNL     1      23.793   1.508  51.555  1.00  0.00     0.052 A 
HETATM   14  C18 UNL     1      24.766   1.017  52.362  1.00  0.00     0.021 A 
ENDROOT
BRANCH   1  15
HETATM   15  N1  UNL     1      23.131  -0.585  53.362  1.00  0.00    -0.373 N 
HETATM   16  H10 UNL     1      22.524  -0.690  52.522  1.00  0.00     0.161 HD
BRANCH  15  17
HETATM   17  C7  UNL     1      22.656  -1.024  54.681  1.00  0.00     0.139 C 
BRANCH  17  18
HETATM   18  C6  UNL     1      21.291  -1.498  54.493  1.00  0.00     0.091 C 
BRANCH  18  19
HETATM   19  C5  UNL     1      20.458  -0.795  53.737  1.00  0.00    -0.148 C 
BRANCH  19  20
HETATM   20  C4  UNL     1      19.506  -0.339  52.938  1.00  0.00     0.051 C 
BRANCH  20  21
HETATM   21  C3  UNL     1      19.786   0.912  52.280  1.00  0.00     0.003 C 
BRANCH  21  22
HETATM   22  C2  UNL     1      20.435   1.876  52.949  1.00  0.00    -0.030 C 
HETATM   23  C1  UNL     1      20.540   3.180  52.243  1.00  0.00     0.036 C 
ENDBRANCH  21  22
ENDBRANCH  20  21
ENDBRANCH  19  20
ENDBRANCH  18  19
ENDBRANCH  17  18
ENDBRANCH  15  17
ENDBRANCH   1  15
BRANCH  12  24
HETATM   24  O1  UNL     1      23.219   3.142  49.766  1.00  0.00    -0.356 OA
HETATM   25  C16 UNL     1      23.647   4.239  49.020  1.00  0.00     0.210 C 
ENDBRANCH  12  24
TORSDOF 8
ENDMDL
MODEL 3
REMARK VINA RESULT:      -7.5      1.808      3.399
REMARK  8 active torsions:
REMARK  status: ('A' for Active; 'I' for Inactive)
REMARK    1  A    between atoms: C2_2  and  C3_3 
REMARK    2  A    between atoms: C3_3  and  C4_4 
REMARK    3  A    between atoms: C4_4  and  C5_5 
REMARK    4  A    between atoms: C5_5  and  C6_6 
REMARK    5  A    between atoms: C6_6  and  C7_7 
REMARK    6  A    between atoms: C7_7  and  N1_8 
REMARK    7  A    between atoms: N1_8  and  C8_9 
REMARK    8  A    between atoms: C15_20  and  O1_21 
ROOT
HETATM    1  C8  UNL     1      26.285   2.324  52.016  1.00  0.00     0.136 C 
HETATM    2  N2  UNL     1      27.556   2.141  52.282  1.00  0.00    -0.213 NA
HETATM    3  C9  UNL     1      27.982   1.020  53.047  1.00  0.00     0.156 C 
HETATM    4  N3  UNL     1      29.182   0.621  53.285  1.00  0.00    -0.249 NA
HETATM    5  C10 UNL     1      29.473  -0.567  54.101  1.00  0.00     0.323 C 
HETATM    6  N4  UNL     1      28.630  -1.637  53.613  1.00  0.00    -0.175 NA
HETATM    7  N5  UNL     1      27.424  -1.294  53.422  1.00  0.00    -0.178 NA
HETATM    8  C11 UNL     1      27.071   0.088  53.713  1.00  0.00     0.235 C 
HETATM    9  C12 UNL     1      25.675   0.320  53.319  1.00  0.00    -0.010 A 
HETATM   10  C13 UNL     1      24.740  -0.581  53.791  1.00  0.00     0.013 A 
HETATM   11  C14 UNL     1      23.406  -0.395  53.473  1.00  0.00     0.037 A 
HETATM   12  C15 UNL     1      23.028   0.690  52.688  1.00  0.00     0.069 A 
HETATM   13  C17 UNL     1      23.988   1.587  52.221  1.00  0.00     0.052 A 
HETATM   14  C18 UNL     1      25.294   1.401  52.534  1.00  0.00     0.021 A 
ENDROOT
BRANCH   1  15
HETATM   15  N1  UNL     1      25.899   3.454  51.246  1.00  0.00    -0.373 N 
HETATM   16  H10 UNL     1      25.334   4.241  51.630  1.00  0.00     0.161 HD
BRANCH  15  17
HETATM   17  C7  UNL     1      26.340   3.473  49.844  1.00  0.00     0.139 C 
BRANCH  17  18
HETATM   18  C6  UNL     1      25.792   4.686  49.254  1.00  0.00     0.091 C 
BRANCH  18  19
HETATM   19  C5  UNL     1      26.615   5.663  48.895  1.00  0.00    -0.148 C 
BRANCH  19  20
HETATM   20  C4  UNL     1      27.207   6.751  48.430  1.00  0.00     0.051 C 
BRANCH  20  21
HETATM   21  C3  UNL     1      28.499   6.552  47.824  1.00  0.00     0.003 C 
BRANCH  21  22
HETATM   22  C2  UNL     1      29.245   5.501  48.195  1.00  0.00    -0.030 C 
HETATM   23  C1  UNL     1      30.714   5.715  48.149  1.00  0.00     0.036 C 
ENDBRANCH  21  22
ENDBRANCH  20  21
ENDBRANCH  19  20
ENDBRANCH  18  19
ENDBRANCH  17  18
ENDBRANCH  15  17
ENDBRANCH   1  15
BRANCH  12  24
HETATM   24  O1  UNL     1      21.662   0.734  52.462  1.00  0.00    -0.356 OA
HETATM   25  C16 UNL     1      20.786   0.176  53.393  1.00  0.00     0.210 C 
ENDBRANCH  12  24
TORSDOF 8
ENDMDL
MODEL 4
REMARK VINA RESULT:      -7.1      2.968      5.016
REMARK  8 active torsions:
REMARK  status: ('A' for Active; 'I' for Inactive)
REMARK    1  A    between atoms: C2_2  and  C3_3 
REMARK    2  A    between atoms: C3_3  and  C4_4 
REMARK    3  A    between atoms: C4_4  and  C5_5 
REMARK    4  A    between atoms: C5_5  and  C6_6 
REMARK    5  A    between atoms: C6_6  and  C7_7 
REMARK    6  A    between atoms: C7_7  and  N1_8 
REMARK    7  A    between atoms: N1_8  and  C8_9 
REMARK    8  A    between atoms: C15_20  and  O1_21 
ROOT
HETATM    1  C8  UNL     1      23.150   2.262  52.419  1.00  0.00     0.136 C 
HETATM    2  N2  UNL     1      22.001   1.679  52.669  1.00  0.00    -0.213 NA
HETATM    3  C9  UNL     1      21.958   0.378  53.242  1.00  0.00     0.156 C 
HETATM    4  N3  UNL     1      20.937  -0.277  53.669  1.00  0.00    -0.249 NA
HETATM    5  C10 UNL     1      21.045  -1.627  54.243  1.00  0.00     0.323 C 
HETATM    6  N4  UNL     1      22.116  -1.592  55.215  1.00  0.00    -0.175 NA
HETATM    7  N5  UNL     1      23.163  -1.004  54.807  1.00  0.00    -0.178 NA
HETATM    8  C11 UNL     1      23.137  -0.463  53.455  1.00  0.00     0.235 C 
HETATM    9  C12 UNL     1      24.382   0.277  53.212  1.00  0.00    -0.010 A 
HETATM   10  C13 UNL     1      25.561  -0.381  53.502  1.00  0.00     0.013 A 
HETATM   11  C14 UNL     1      26.766   0.259  53.266  1.00  0.00     0.037 A 
HETATM   12  C15 UNL     1      26.771   1.549  52.742  1.00  0.00     0.069 A 
HETATM   13  C17 UNL     1      25.569   2.196  52.458  1.00  0.00     0.052 A 
HETATM   14  C18 UNL     1      24.391   1.565  52.691  1.00  0.00     0.021 A 
ENDROOT
BRANCH   1  15
HETATM   15  N1  UNL     1      23.151   3.563  51.850  1.00  0.00    -0.373 N 
HETATM   16  H10 UNL     1      23.603   4.384  52.306  1.00  0.00     0.161 HD
BRANCH  15  17
HETATM   17  C7  UNL     1      22.474   3.713  50.555  1.00  0.00     0.139 C 
BRANCH  17  18
HETATM   18  C6  UNL     1      23.420   3.272  49.538  1.00  0.00     0.091 C 
BRANCH  18  19
HETATM   19  C5  UNL     1      24.573   3.914  49.403  1.00  0.00    -0.148 C 
BRANCH  19  20
HETATM   20  C4  UNL     1      25.573   4.778  49.333  1.00  0.00     0.051 C 
BRANCH  20  21
HETATM   21  C3  UNL     1      25.211   6.167  49.458  1.00  0.00     0.003 C 
BRANCH  21  22
HETATM   22  C2  UNL     1      24.912   6.662  50.668  1.00  0.00    -0.030 C 
HETATM   23  C1  UNL     1      23.633   7.414  50.749  1.00  0.00     0.036 C 
ENDBRANCH  21  22
ENDBRANCH  20  21
ENDBRANCH  19  20
ENDBRANCH  18  19
ENDBRANCH  17  18
ENDBRANCH  15  17
ENDBRANCH   1  15
BRANCH  12  24
HETATM   24  O1  UNL     1      28.052   2.046  52.565  1.00  0.00    -0.356 OA
HETATM   25  C16 UNL     1      28.805   2.435  53.673  1.00  0.00     0.210 C 
ENDBRANCH  12  24
TORSDOF 8
ENDMDL
MODEL 5
REMARK VINA RESULT:      -7.1      1.728      2.054
REMARK  8 active torsions:
REMARK  status: ('A' for Active; 'I' for Inactive)
REMARK    1  A    between atoms: C2_2  and  C3_3 
REMARK    2  A    between atoms: C3_3  and  C4_4 
REMARK    3  A    between atoms: C4_4  and  C5_5 
REMARK    4  A    between atoms: C5_5  and  C6_6 
REMARK    5  A    between atoms: C6_6  and  C7_7 
REMARK    6  A    between atoms: C7_7  and  N1_8 
REMARK    7  A    between atoms: N1_8  and  C8_9 
REMARK    8  A    between atoms: C15_20  and  O1_21 
ROOT
HETATM    1  C8  UNL     1      25.927   2.288  51.251  1.00  0.00     0.136 C 
HETATM    2  N2  UNL     1      27.171   2.373  51.658  1.00  0.00    -0.213 NA
HETATM    3  C9  UNL     1      27.613   1.643  52.796  1.00  0.00     0.156 C 
HETATM    4  N3  UNL     1      28.810   1.508  53.247  1.00  0.00    -0.249 NA
HETATM    5  C10 UNL     1      29.120   0.715  54.446  1.00  0.00     0.323 C 
HETATM    6  N4  UNL     1      28.445  -0.557  54.302  1.00  0.00    -0.175 NA
HETATM    7  N5  UNL     1      27.242  -0.460  53.914  1.00  0.00    -0.178 NA
HETATM    8  C11 UNL     1      26.726   0.881  53.676  1.00  0.00     0.235 C 
HETATM    9  C12 UNL     1      25.369   0.781  53.124  1.00  0.00    -0.010 A 
HETATM   10  C13 UNL     1      24.477  -0.020  53.811  1.00  0.00     0.013 A 
HETATM   11  C14 UNL     1      23.176  -0.129  53.350  1.00  0.00     0.037 A 
HETATM   12  C15 UNL     1      22.788   0.567  52.209  1.00  0.00     0.069 A 
HETATM   13  C17 UNL     1      23.704   1.370  51.530  1.00  0.00     0.052 A 
HETATM   14  C18 UNL     1      24.977   1.474  51.985  1.00  0.00     0.021 A 
ENDROOT
BRANCH   1  15
HETATM   15  N1  UNL     1      25.524   3.029  50.109  1.00  0.00    -0.373 N 
HETATM   16  H10 UNL     1      24.592   2.919  49.656  1.00  0.00     0.161 HD
BRANCH  15  17
HETATM   17  C7  UNL     1      26.500   3.987  49.571  1.00  0.00     0.139 C 
BRANCH  17  18
HETATM   18  C6  UNL     1      25.800   5.256  49.429  1.00  0.00     0.091 C 
BRANCH  18  19
HETATM   19  C5  UNL     1      24.944   5.634  50.370  1.00  0.00    -0.148 C 
BRANCH  19  20
HETATM   20  C4  UNL     1      23.995   6.183  51.111  1.00  0.00     0.051 C 
BRANCH  20  21
HETATM   21  C3  UNL     1      23.181   5.266  51.867  1.00  0.00     0.003 C 
BRANCH  21  22
HETATM   22  C2  UNL     1      21.911   5.053  51.493  1.00  0.00    -0.030 C 
HETATM   23  C1  UNL     1      21.220   3.938  52.192  1.00  0.00     0.036 C 
ENDBRANCH  21  22
ENDBRANCH  20  21
ENDBRANCH  19  20
ENDBRANCH  18  19
ENDBRANCH  17  18
ENDBRANCH  15  17
ENDBRANCH   1  15
BRANCH  12  24
HETATM   24  O1  UNL     1      21.459   0.353  51.881  1.00  0.00    -0.356 OA
HETATM   25  C16 UNL     1      20.554  -0.031  52.870  1.00  0.00     0.210 C 
ENDBRANCH  12  24
TORSDOF 8
ENDMDL
MODEL 6
REMARK VINA RESULT:      -6.6      1.544      2.144
REMARK  8 active torsions:
REMARK  status: ('A' for Active; 'I' for Inactive)
REMARK    1  A    between atoms: C2_2  and  C3_3 
REMARK    2  A    between atoms: C3_3  and  C4_4 
REMARK    3  A    between atoms: C4_4  and  C5_5 
REMARK    4  A    between atoms: C5_5  and  C6_6 
REMARK    5  A    between atoms: C6_6  and  C7_7 
REMARK    6  A    between atoms: C7_7  and  N1_8 
REMARK    7  A    between atoms: N1_8  and  C8_9 
REMARK    8  A    between atoms: C15_20  and  O1_21 
ROOT
HETATM    1  C8  UNL     1      24.306   2.550  52.750  1.00  0.00     0.136 C 
HETATM    2  N2  UNL     1      25.528   2.623  53.224  1.00  0.00    -0.213 NA
HETATM    3  C9  UNL     1      26.132   1.496  53.848  1.00  0.00     0.156 C 
HETATM    4  N3  UNL     1      27.348   1.354  54.242  1.00  0.00    -0.249 NA
HETATM    5  C10 UNL     1      27.835   0.120  54.877  1.00  0.00     0.323 C 
HETATM    6  N4  UNL     1      27.397  -0.985  54.053  1.00  0.00    -0.175 NA
HETATM    7  N5  UNL     1      26.183  -0.908  53.692  1.00  0.00    -0.178 NA
HETATM    8  C11 UNL     1      25.426   0.250  54.148  1.00  0.00     0.235 C 
HETATM    9  C12 UNL     1      24.092   0.221  53.535  1.00  0.00    -0.010 A 
HETATM   10  C13 UNL     1      23.383  -0.960  53.649  1.00  0.00     0.013 A 
HETATM   11  C14 UNL     1      22.109  -1.034  53.114  1.00  0.00     0.037 A 
HETATM   12  C15 UNL     1      21.563   0.075  52.473  1.00  0.00     0.069 A 
HETATM   13  C17 UNL     1      22.296   1.257  52.368  1.00  0.00     0.052 A 
HETATM   14  C18 UNL     1      23.544   1.325  52.894  1.00  0.00     0.021 A 
ENDROOT
BRANCH   1  15
HETATM   15  N1  UNL     1      23.739   3.695  52.131  1.00  0.00    -0.373 N 
HETATM   16  H10 UNL     1      22.786   4.052  52.356  1.00  0.00     0.161 HD
BRANCH  15  17
HETATM   17  C7  UNL     1      24.571   4.379  51.131  1.00  0.00     0.139 C 
BRANCH  17  18
HETATM   18  C6  UNL     1      23.716   4.621  49.976  1.00  0.00     0.091 C 
BRANCH  18  19
HETATM   19  C5  UNL     1      23.289   3.591  49.257  1.00  0.00    -0.148 C 
BRANCH  19  20
HETATM   20  C4  UNL     1      22.825   2.444  48.788  1.00  0.00     0.051 C 
BRANCH  20  21
HETATM   21  C3  UNL     1      22.252   2.494  47.466  1.00  0.00     0.003 C 
BRANCH  21  22
HETATM   22  C2  UNL     1      21.891   3.678  46.950  1.00  0.00    -0.030 C 
HETATM   23  C1  UNL     1      21.836   3.735  45.466  1.00  0.00     0.036 C 
ENDBRANCH  21  22
ENDBRANCH  20  21
ENDBRANCH  19  20
ENDBRANCH  18  19
ENDBRANCH  17  18
ENDBRANCH  15  17
ENDBRANCH   1  15
BRANCH  12  24
HETATM   24  O1  UNL     1      20.285  -0.162  51.996  1.00  0.00    -0.356 OA
HETATM   25  C16 UNL     1      19.548   0.882  51.437  1.00  0.00     0.210 C 
ENDBRANCH  12  24
TORSDOF 8
ENDMDL
MODEL 7
REMARK VINA RESULT:      -6.4      2.397      3.276
REMARK  8 active torsions:
REMARK  status: ('A' for Active; 'I' for Inactive)
REMARK    1  A    between atoms: C2_2  and  C3_3 
REMARK    2  A    between atoms: C3_3  and  C4_4 
REMARK    3  A    between atoms: C4_4  and  C5_5 
REMARK    4  A    between atoms: C5_5  and  C6_6 
REMARK    5  A    between atoms: C6_6  and  C7_7 
REMARK    6  A    between atoms: C7_7  and  N1_8 
REMARK    7  A    between atoms: N1_8  and  C8_9 
REMARK    8  A    between atoms: C15_20  and  O1_21 
ROOT
HETATM    1  C8  UNL     1      24.917   2.575  52.656  1.00  0.00     0.136 C 
HETATM    2  N2  UNL     1      26.152   2.644  53.092  1.00  0.00    -0.213 NA
HETATM    3  C9  UNL     1      26.734   1.555  53.796  1.00  0.00     0.156 C 
HETATM    4  N3  UNL     1      27.955   1.403  54.172  1.00  0.00    -0.249 NA
HETATM    5  C10 UNL     1      28.418   0.211  54.900  1.00  0.00     0.323 C 
HETATM    6  N4  UNL     1      27.921  -0.943  54.185  1.00  0.00    -0.175 NA
HETATM    7  N5  UNL     1      26.701  -0.855  53.848  1.00  0.00    -0.178 NA
HETATM    8  C11 UNL     1      25.996   0.364  54.219  1.00  0.00     0.235 C 
HETATM    9  C12 UNL     1      24.646   0.330  53.643  1.00  0.00    -0.010 A 
HETATM   10  C13 UNL     1      23.901  -0.810  53.875  1.00  0.00     0.013 A 
HETATM   11  C14 UNL     1      22.611  -0.884  53.379  1.00  0.00     0.037 A 
HETATM   12  C15 UNL     1      22.086   0.185  52.658  1.00  0.00     0.069 A 
HETATM   13  C17 UNL     1      22.855   1.326  52.435  1.00  0.00     0.052 A 
HETATM   14  C18 UNL     1      24.119   1.395  52.923  1.00  0.00     0.021 A 
ENDROOT
BRANCH   1  15
HETATM   15  N1  UNL     1      24.372   3.683  51.954  1.00  0.00    -0.373 N 
HETATM   16  H10 UNL     1      24.527   3.845  50.936  1.00  0.00     0.161 HD
BRANCH  15  17
HETATM   17  C7  UNL     1      23.555   4.619  52.738  1.00  0.00     0.139 C 
BRANCH  17  18
HETATM   18  C6  UNL     1      22.399   4.949  51.916  1.00  0.00     0.091 C 
BRANCH  18  19
HETATM   19  C5  UNL     1      22.406   6.071  51.207  1.00  0.00    -0.148 C 
BRANCH  19  20
HETATM   20  C4  UNL     1      22.482   7.307  50.741  1.00  0.00     0.051 C 
BRANCH  20  21
HETATM   21  C3  UNL     1      23.796   7.898  50.742  1.00  0.00     0.003 C 
BRANCH  21  22
HETATM   22  C2  UNL     1      24.368   8.231  49.576  1.00  0.00    -0.030 C 
HETATM   23  C1  UNL     1      23.518   9.034  48.658  1.00  0.00     0.036 C 
ENDBRANCH  21  22
ENDBRANCH  20  21
ENDBRANCH  19  20
ENDBRANCH  18  19
ENDBRANCH  17  18
ENDBRANCH  15  17
ENDBRANCH   1  15
BRANCH  12  24
HETATM   24  O1  UNL     1      20.788  -0.046  52.233  1.00  0.00    -0.356 OA
HETATM   25  C16 UNL     1      19.803  -0.384  53.162  1.00  0.00     0.210 C 
ENDBRANCH  12  24
TORSDOF 8
ENDMDL
MODEL 8
REMARK VINA RESULT:      -6.4      2.971      4.610
REMARK  8 active torsions:
REMARK  status: ('A' for Active; 'I' for Inactive)
REMARK    1  A    between atoms: C2_2  and  C3_3 
REMARK    2  A    between atoms: C3_3  and  C4_4 
REMARK    3  A    between atoms: C4_4  and  C5_5 
REMARK    4  A    between atoms: C5_5  and  C6_6 
REMARK    5  A    between atoms: C6_6  and  C7_7 
REMARK    6  A    between atoms: C7_7  and  N1_8 
REMARK    7  A    between atoms: N1_8  and  C8_9 
REMARK    8  A    between atoms: C15_20  and  O1_21 
ROOT
HETATM    1  C8  UNL     1      23.109   2.140  52.689  1.00  0.00     0.136 C 
HETATM    2  N2  UNL     1      22.005   1.492  52.976  1.00  0.00    -0.213 NA
HETATM    3  C9  UNL     1      22.056   0.183  53.531  1.00  0.00     0.156 C 
HETATM    4  N3  UNL     1      21.090  -0.532  53.989  1.00  0.00    -0.249 NA
HETATM    5  C10 UNL     1      21.294  -1.881  54.538  1.00  0.00     0.323 C 
HETATM    6  N4  UNL     1      22.399  -1.799  55.467  1.00  0.00    -0.175 NA
HETATM    7  N5  UNL     1      23.395  -1.149  55.027  1.00  0.00    -0.178 NA
HETATM    8  C11 UNL     1      23.286  -0.594  53.685  1.00  0.00     0.235 C 
HETATM    9  C12 UNL     1      24.478   0.216  53.404  1.00  0.00    -0.010 A 
HETATM   10  C13 UNL     1      25.702  -0.380  53.637  1.00  0.00     0.013 A 
HETATM   11  C14 UNL     1      26.860   0.328  53.363  1.00  0.00     0.037 A 
HETATM   12  C15 UNL     1      26.774   1.623  52.858  1.00  0.00     0.069 A 
HETATM   13  C17 UNL     1      25.527   2.206  52.631  1.00  0.00     0.052 A 
HETATM   14  C18 UNL     1      24.396   1.509  52.901  1.00  0.00     0.021 A 
ENDROOT
BRANCH   1  15
HETATM   15  N1  UNL     1      23.017   3.446  52.139  1.00  0.00    -0.373 N 
HETATM   16  H10 UNL     1      23.398   4.293  52.613  1.00  0.00     0.161 HD
BRANCH  15  17
HETATM   17  C7  UNL     1      22.345   3.564  50.838  1.00  0.00     0.139 C 
BRANCH  17  18
HETATM   18  C6  UNL     1      22.960   2.576  49.963  1.00  0.00     0.091 C 
BRANCH  18  19
HETATM   19  C5  UNL     1      22.736   2.636  48.656  1.00  0.00    -0.148 C 
BRANCH  19  20
HETATM   20  C4  UNL     1      22.250   2.639  47.425  1.00  0.00     0.051 C 
BRANCH  20  21
HETATM   21  C3  UNL     1      20.971   3.281  47.257  1.00  0.00     0.003 C 
BRANCH  21  22
HETATM   22  C2  UNL     1      19.869   2.684  47.733  1.00  0.00    -0.030 C 
HETATM   23  C1  UNL     1      19.070   3.493  48.689  1.00  0.00     0.036 C 
ENDBRANCH  21  22
ENDBRANCH  20  21
ENDBRANCH  19  20
ENDBRANCH  18  19
ENDBRANCH  17  18
ENDBRANCH  15  17
ENDBRANCH   1  15
BRANCH  12  24
HETATM   24  O1  UNL     1      28.017   2.192  52.638  1.00  0.00    -0.356 OA
HETATM   25  C16 UNL     1      28.869   2.437  53.715  1.00  0.00     0.210 C 
ENDBRANCH  12  24
TORSDOF 8
ENDMDL
MODEL 9
REMARK VINA RESULT:      -6.3      2.815      4.852
REMARK  8 active torsions:
REMARK  status: ('A' for Active; 'I' for Inactive)
REMARK    1  A    between atoms: C2_2  and  C3_3 
REMARK    2  A    between atoms: C3_3  and  C4_4 
REMARK    3  A    between atoms: C4_4  and  C5_5 
REMARK    4  A    between atoms: C5_5  and  C6_6 
REMARK    5  A    between atoms: C6_6  and  C7_7 
REMARK    6  A    between atoms: C7_7  and  N1_8 
REMARK    7  A    between atoms: N1_8  and  C8_9 
REMARK    8  A    between atoms: C15_20  and  O1_21 
ROOT
HETATM    1  C8  UNL     1      25.925   3.341  50.236  1.00  0.00     0.136 C 
HETATM    2  N2  UNL     1      27.031   3.122  50.906  1.00  0.00    -0.213 NA
HETATM    3  C9  UNL     1      27.054   2.195  51.984  1.00  0.00     0.156 C 
HETATM    4  N3  UNL     1      28.066   1.767  52.654  1.00  0.00    -0.249 NA
HETATM    5  C10 UNL     1      27.937   0.799  53.752  1.00  0.00     0.323 C 
HETATM    6  N4  UNL     1      27.106  -0.283  53.271  1.00  0.00    -0.175 NA
HETATM    7  N5  UNL     1      26.066   0.101  52.655  1.00  0.00    -0.178 NA
HETATM    8  C11 UNL     1      25.863   1.538  52.525  1.00  0.00     0.235 C 
HETATM    9  C12 UNL     1      24.682   1.781  51.688  1.00  0.00    -0.010 A 
HETATM   10  C13 UNL     1      23.527   1.107  52.034  1.00  0.00     0.013 A 
HETATM   11  C14 UNL     1      22.375   1.320  51.296  1.00  0.00     0.037 A 
HETATM   12  C15 UNL     1      22.398   2.204  50.221  1.00  0.00     0.069 A 
HETATM   13  C17 UNL     1      23.576   2.873  49.887  1.00  0.00     0.052 A 
HETATM   14  C18 UNL     1      24.701   2.662  50.613  1.00  0.00     0.021 A 
ENDROOT
BRANCH   1  15
HETATM   15  N1  UNL     1      25.943   4.272  49.163  1.00  0.00    -0.373 N 
HETATM   16  H10 UNL     1      25.961   3.987  48.161  1.00  0.00     0.161 HD
BRANCH  15  17
HETATM   17  C7  UNL     1      25.933   5.694  49.530  1.00  0.00     0.139 C 
BRANCH  17  18
HETATM   18  C6  UNL     1      26.910   6.351  48.672  1.00  0.00     0.091 C 
BRANCH  18  19
HETATM   19  C5  UNL     1      28.033   5.717  48.364  1.00  0.00    -0.148 C 
BRANCH  19  20
HETATM   20  C4  UNL     1      29.270   5.334  48.090  1.00  0.00     0.051 C 
BRANCH  20  21
HETATM   21  C3  UNL     1      30.276   6.364  48.164  1.00  0.00     0.003 C 
BRANCH  21  22
HETATM   22  C2  UNL     1      31.161   6.348  49.171  1.00  0.00    -0.030 C 
HETATM   23  C1  UNL     1      31.773   7.661  49.501  1.00  0.00     0.036 C 
ENDBRANCH  21  22
ENDBRANCH  20  21
ENDBRANCH  19  20
ENDBRANCH  18  19
ENDBRANCH  17  18
ENDBRANCH  15  17
ENDBRANCH   1  15
BRANCH  12  24
HETATM   24  O1  UNL     1      21.170   2.305  49.588  1.00  0.00    -0.356 OA
HETATM   25  C16 UNL     1      20.661   3.561  49.258  1.00  0.00     0.210 C 
ENDBRANCH  12  24
TORSDOF 8
ENDMDL
