MODEL 1
REMARK VINA RESULT:      -8.4      0.000      0.000
REMARK  2 active torsions:
REMARK  status: ('A' for Active; 'I' for Inactive)
REMARK    1  A    between atoms: C11_12  and  C12_13 
REMARK    2  A    between atoms: C12_13  and  C13_14 
ROOT
HETATM    1  C1  UNL     1      22.096   2.859  47.086  1.00  0.00     0.044 C 
HETATM    2  C2  UNL     1      21.124   3.226  48.120  1.00  0.00    -0.079 C 
HETATM    3  C3  UNL     1      21.140   4.541  48.134  1.00  0.00     0.004 C 
HETATM    4  C4  UNL     1      21.557   5.836  47.730  1.00  0.00     0.014 C 
HETATM    5  C5  UNL     1      21.694   6.777  48.610  1.00  0.00    -0.009 C 
HETATM    6  C6  UNL     1      22.421   6.540  49.659  1.00  0.00     0.099 C 
HETATM    7  N1  UNL     1      22.893   5.241  50.076  1.00  0.00    -0.375 N 
HETATM    8  C7  UNL     1      21.988   4.809  51.064  1.00  0.00     0.129 C 
HETATM    9  C8  UNL     1      22.502   4.587  52.479  1.00  0.00     0.079 C 
HETATM   10  C9  UNL     1      23.454   3.454  52.368  1.00  0.00     0.034 C 
HETATM   11  C10 UNL     1      24.567   2.817  52.503  1.00  0.00     0.005 C 
HETATM   12  C11 UNL     1      25.732   1.909  52.551  1.00  0.00     0.014 C 
HETATM   13  C17 UNL     1      26.913   2.517  51.803  1.00  0.00     0.037 C 
HETATM   14  C18 UNL     1      26.453   2.826  50.362  1.00  0.00     0.194 C 
HETATM   15  O2  UNL     1      25.361   3.733  50.439  1.00  0.00    -0.304 OA
HETATM   16  N2  UNL     1      24.731   3.878  49.290  1.00  0.00    -0.188 NA
HETATM   17  C19 UNL     1      24.030   5.145  49.195  1.00  0.00     0.240 C 
HETATM   18  N3  UNL     1      22.861   2.415  51.665  1.00  0.00    -0.247 NA
HETATM   19  C20 UNL     1      21.925   1.619  51.860  1.00  0.00     0.232 C 
HETATM   20  N4  UNL     1      22.003   0.902  50.630  1.00  0.00    -0.258 NA
HETATM   21  C21 UNL     1      21.382   1.202  49.538  1.00  0.00     0.095 C 
HETATM   22  C22 UNL     1      20.447   2.108  48.808  1.00  0.00     0.080 C 
HETATM   23  H26 UNL     1      25.409   3.810  48.502  1.00  0.00     0.155 HD
ENDROOT
BRANCH  12  24
HETATM   24  C12 UNL     1      26.179   1.736  53.983  1.00  0.00     0.040 C 
BRANCH  24  25
HETATM   25  C13 UNL     1      26.466   0.300  54.355  1.00  0.00     0.122 C 
HETATM   26  C14 UNL     1      25.696  -0.555  53.386  1.00  0.00     0.034 C 
HETATM   27  C15 UNL     1      26.772  -1.049  52.438  1.00  0.00     0.029 C 
HETATM   28  C16 UNL     1      27.988  -0.983  53.341  1.00  0.00     0.168 C 
HETATM   29  O1  UNL     1      27.810   0.099  54.171  1.00  0.00    -0.386 OA
ENDBRANCH  24  25
ENDBRANCH  12  24
TORSDOF 2
ENDMDL
MODEL 2
REMARK VINA RESULT:      -8.4      1.684      3.379
REMARK  2 active torsions:
REMARK  status: ('A' for Active; 'I' for Inactive)
REMARK    1  A    between atoms: C11_12  and  C12_13 
REMARK    2  A    between atoms: C12_13  and  C13_14 
ROOT
HETATM    1  C1  UNL     1      19.618   4.064  50.350  1.00  0.00     0.044 C 
HETATM    2  C2  UNL     1      20.757   4.805  49.799  1.00  0.00    -0.079 C 
HETATM    3  C3  UNL     1      20.960   4.264  48.617  1.00  0.00     0.004 C 
HETATM    4  C4  UNL     1      20.719   3.365  47.546  1.00  0.00     0.014 C 
HETATM    5  C5  UNL     1      21.714   2.859  46.887  1.00  0.00    -0.009 C 
HETATM    6  C6  UNL     1      22.668   2.284  47.555  1.00  0.00     0.099 C 
HETATM    7  N1  UNL     1      22.860   2.370  48.983  1.00  0.00    -0.375 N 
HETATM    8  C7  UNL     1      23.834   3.368  49.175  1.00  0.00     0.129 C 
HETATM    9  C8  UNL     1      25.165   2.981  49.802  1.00  0.00     0.079 C 
HETATM   10  C9  UNL     1      24.828   2.563  51.185  1.00  0.00     0.034 C 
HETATM   11  C10 UNL     1      24.796   1.797  52.223  1.00  0.00     0.005 C 
HETATM   12  C11 UNL     1      24.635   1.092  53.512  1.00  0.00     0.014 C 
HETATM   13  C17 UNL     1      23.904  -0.230  53.309  1.00  0.00     0.037 C 
HETATM   14  C18 UNL     1      22.557   0.073  52.620  1.00  0.00     0.194 C 
HETATM   15  O2  UNL     1      22.837   0.711  51.380  1.00  0.00    -0.304 OA
HETATM   16  N2  UNL     1      21.765   1.234  50.818  1.00  0.00    -0.188 NA
HETATM   17  C19 UNL     1      21.901   1.370  49.379  1.00  0.00     0.240 C 
HETATM   18  N3  UNL     1      24.025   3.524  51.781  1.00  0.00    -0.247 NA
HETATM   19  C20 UNL     1      24.165   4.700  52.163  1.00  0.00     0.232 C 
HETATM   20  N4  UNL     1      22.842   4.920  52.647  1.00  0.00    -0.258 NA
HETATM   21  C21 UNL     1      21.849   5.373  51.957  1.00  0.00     0.095 C 
HETATM   22  C22 UNL     1      21.321   5.870  50.652  1.00  0.00     0.080 C 
HETATM   23  H26 UNL     1      20.932   0.643  51.022  1.00  0.00     0.155 HD
ENDROOT
BRANCH  12  24
HETATM   24  C12 UNL     1      25.994   0.747  54.072  1.00  0.00     0.040 C 
BRANCH  24  25
HETATM   25  C13 UNL     1      26.971   0.265  53.026  1.00  0.00     0.122 C 
HETATM   26  C14 UNL     1      28.154   1.194  53.084  1.00  0.00     0.034 C 
HETATM   27  C15 UNL     1      29.201   0.368  53.807  1.00  0.00     0.029 C 
HETATM   28  C16 UNL     1      28.739  -1.032  53.456  1.00  0.00     0.168 C 
HETATM   29  O1  UNL     1      27.365  -0.996  53.395  1.00  0.00    -0.386 OA
ENDBRANCH  24  25
ENDBRANCH  12  24
TORSDOF 2
ENDMDL
MODEL 3
REMARK VINA RESULT:      -7.8      9.116     12.464
REMARK  2 active torsions:
REMARK  status: ('A' for Active; 'I' for Inactive)
REMARK    1  A    between atoms: C11_12  and  C12_13 
REMARK    2  A    between atoms: C12_13  and  C13_14 
ROOT
HETATM    1  C1  UNL     1      32.956   4.762  43.920  1.00  0.00     0.044 C 
HETATM    2  C2  UNL     1      34.225   5.335  44.379  1.00  0.00    -0.079 C 
HETATM    3  C3  UNL     1      34.679   4.469  45.259  1.00  0.00     0.004 C 
HETATM    4  C4  UNL     1      34.657   3.284  46.039  1.00  0.00     0.014 C 
HETATM    5  C5  UNL     1      35.091   3.304  47.260  1.00  0.00    -0.009 C 
HETATM    6  C6  UNL     1      34.621   4.206  48.068  1.00  0.00     0.099 C 
HETATM    7  N1  UNL     1      33.844   5.358  47.677  1.00  0.00    -0.375 N 
HETATM    8  C7  UNL     1      34.758   6.427  47.611  1.00  0.00     0.129 C 
HETATM    9  C8  UNL     1      34.579   7.600  48.562  1.00  0.00     0.079 C 
HETATM   10  C9  UNL     1      33.294   8.225  48.161  1.00  0.00     0.034 C 
HETATM   11  C10 UNL     1      32.101   8.694  48.309  1.00  0.00     0.005 C 
HETATM   12  C11 UNL     1      30.745   9.277  48.247  1.00  0.00     0.014 C 
HETATM   13  C17 UNL     1      29.705   8.256  48.695  1.00  0.00     0.037 C 
HETATM   14  C18 UNL     1      29.860   7.002  47.808  1.00  0.00     0.194 C 
HETATM   15  O2  UNL     1      31.183   6.509  47.979  1.00  0.00    -0.304 OA
HETATM   16  N2  UNL     1      31.507   5.590  47.091  1.00  0.00    -0.188 NA
HETATM   17  C19 UNL     1      32.562   4.710  47.561  1.00  0.00     0.240 C 
HETATM   18  N3  UNL     1      33.281   8.426  46.789  1.00  0.00    -0.247 NA
HETATM   19  C20 UNL     1      33.892   9.148  45.982  1.00  0.00     0.232 C 
HETATM   20  N4  UNL     1      33.254   8.707  44.785  1.00  0.00    -0.258 NA
HETATM   21  C21 UNL     1      33.640   7.727  44.039  1.00  0.00     0.095 C 
HETATM   22  C22 UNL     1      34.615   6.626  43.777  1.00  0.00     0.080 C 
HETATM   23  H26 UNL     1      30.672   5.015  46.854  1.00  0.00     0.155 HD
ENDROOT
BRANCH  12  24
HETATM   24  C12 UNL     1      30.647  10.435  49.211  1.00  0.00     0.040 C 
BRANCH  24  25
HETATM   25  C13 UNL     1      30.737  11.786  48.541  1.00  0.00     0.122 C 
HETATM   26  C14 UNL     1      30.236  11.600  47.134  1.00  0.00     0.034 C 
HETATM   27  C15 UNL     1      28.847  12.209  47.184  1.00  0.00     0.029 C 
HETATM   28  C16 UNL     1      29.019  13.198  48.320  1.00  0.00     0.168 C 
HETATM   29  O1  UNL     1      29.890  12.627  49.218  1.00  0.00    -0.386 OA
ENDBRANCH  24  25
ENDBRANCH  12  24
TORSDOF 2
ENDMDL
MODEL 4
REMARK VINA RESULT:      -7.8      1.975      3.933
REMARK  2 active torsions:
REMARK  status: ('A' for Active; 'I' for Inactive)
REMARK    1  A    between atoms: C11_12  and  C12_13 
REMARK    2  A    between atoms: C12_13  and  C13_14 
ROOT
HETATM    1  C1  UNL     1      21.086   7.619  50.437  1.00  0.00     0.044 C 
HETATM    2  C2  UNL     1      22.053   7.229  49.407  1.00  0.00    -0.079 C 
HETATM    3  C3  UNL     1      21.314   6.855  48.385  1.00  0.00     0.004 C 
HETATM    4  C4  UNL     1      20.106   6.603  47.685  1.00  0.00     0.014 C 
HETATM    5  C5  UNL     1      20.015   5.576  46.899  1.00  0.00    -0.009 C 
HETATM    6  C6  UNL     1      20.343   4.410  47.366  1.00  0.00     0.099 C 
HETATM    7  N1  UNL     1      21.044   4.170  48.605  1.00  0.00    -0.375 N 
HETATM    8  C7  UNL     1      22.394   3.994  48.248  1.00  0.00     0.129 C 
HETATM    9  C8  UNL     1      23.052   2.650  48.519  1.00  0.00     0.079 C 
HETATM   10  C9  UNL     1      23.071   2.523  49.998  1.00  0.00     0.034 C 
HETATM   11  C10 UNL     1      22.860   1.980  51.149  1.00  0.00     0.005 C 
HETATM   12  C11 UNL     1      22.722   1.550  52.556  1.00  0.00     0.014 C 
HETATM   13  C17 UNL     1      21.253   1.338  52.906  1.00  0.00     0.037 C 
HETATM   14  C18 UNL     1      20.500   2.651  52.603  1.00  0.00     0.194 C 
HETATM   15  O2  UNL     1      20.670   2.941  51.221  1.00  0.00    -0.304 OA
HETATM   16  N2  UNL     1      20.278   4.158  50.901  1.00  0.00    -0.188 NA
HETATM   17  C19 UNL     1      19.918   4.276  49.499  1.00  0.00     0.240 C 
HETATM   18  N3  UNL     1      23.586   3.683  50.559  1.00  0.00    -0.247 NA
HETATM   19  C20 UNL     1      24.691   4.251  50.587  1.00  0.00     0.232 C 
HETATM   20  N4  UNL     1      24.325   5.379  51.380  1.00  0.00    -0.258 NA
HETATM   21  C21 UNL     1      23.875   6.504  50.934  1.00  0.00     0.095 C 
HETATM   22  C22 UNL     1      23.480   7.351  49.769  1.00  0.00     0.080 C 
HETATM   23  H26 UNL     1      19.459   4.433  51.482  1.00  0.00     0.155 HD
ENDROOT
BRANCH  12  24
HETATM   24  C12 UNL     1      23.402   0.215  52.746  1.00  0.00     0.040 C 
BRANCH  24  25
HETATM   25  C13 UNL     1      24.675   0.298  53.555  1.00  0.00     0.122 C 
HETATM   26  C14 UNL     1      25.638  -0.682  52.942  1.00  0.00     0.034 C 
HETATM   27  C15 UNL     1      26.591   0.214  52.172  1.00  0.00     0.029 C 
HETATM   28  C16 UNL     1      26.466   1.498  52.967  1.00  0.00     0.168 C 
HETATM   29  O1  UNL     1      25.164   1.571  53.405  1.00  0.00    -0.386 OA
ENDBRANCH  24  25
ENDBRANCH  12  24
TORSDOF 2
ENDMDL
MODEL 5
REMARK VINA RESULT:      -7.8      1.853      2.364
REMARK  2 active torsions:
REMARK  status: ('A' for Active; 'I' for Inactive)
REMARK    1  A    between atoms: C11_12  and  C12_13 
REMARK    2  A    between atoms: C12_13  and  C13_14 
ROOT
HETATM    1  C1  UNL     1      22.202   4.361  46.832  1.00  0.00     0.044 C 
HETATM    2  C2  UNL     1      20.997   4.410  47.666  1.00  0.00    -0.079 C 
HETATM    3  C3  UNL     1      20.986   5.630  48.157  1.00  0.00     0.004 C 
HETATM    4  C4  UNL     1      21.468   6.949  48.358  1.00  0.00     0.014 C 
HETATM    5  C5  UNL     1      21.366   7.507  49.523  1.00  0.00    -0.009 C 
HETATM    6  C6  UNL     1      21.814   6.861  50.558  1.00  0.00     0.099 C 
HETATM    7  N1  UNL     1      22.189   5.467  50.578  1.00  0.00    -0.375 N 
HETATM    8  C7  UNL     1      21.075   4.782  51.098  1.00  0.00     0.129 C 
HETATM    9  C8  UNL     1      21.225   4.038  52.416  1.00  0.00     0.079 C 
HETATM   10  C9  UNL     1      22.193   2.950  52.134  1.00  0.00     0.034 C 
HETATM   11  C10 UNL     1      23.249   2.225  52.291  1.00  0.00     0.005 C 
HETATM   12  C11 UNL     1      24.381   1.275  52.284  1.00  0.00     0.014 C 
HETATM   13  C17 UNL     1      25.700   2.019  52.109  1.00  0.00     0.037 C 
HETATM   14  C18 UNL     1      25.607   2.849  50.811  1.00  0.00     0.194 C 
HETATM   15  O2  UNL     1      24.515   3.750  50.948  1.00  0.00    -0.304 OA
HETATM   16  N2  UNL     1      24.188   4.337  49.814  1.00  0.00    -0.188 NA
HETATM   17  C19 UNL     1      23.511   5.604  50.019  1.00  0.00     0.240 C 
HETATM   18  N3  UNL     1      21.812   2.272  50.985  1.00  0.00    -0.247 NA
HETATM   19  C20 UNL     1      20.871   1.531  50.651  1.00  0.00     0.232 C 
HETATM   20  N4  UNL     1      21.264   1.291  49.302  1.00  0.00    -0.258 NA
HETATM   21  C21 UNL     1      20.929   2.002  48.277  1.00  0.00     0.095 C 
HETATM   22  C22 UNL     1      20.189   3.175  47.723  1.00  0.00     0.080 C 
HETATM   23  H26 UNL     1      25.042   4.502  49.240  1.00  0.00     0.155 HD
ENDROOT
BRANCH  12  24
HETATM   24  C12 UNL     1      24.461   0.575  53.620  1.00  0.00     0.040 C 
BRANCH  24  25
HETATM   25  C13 UNL     1      23.844  -0.805  53.614  1.00  0.00     0.122 C 
HETATM   26  C14 UNL     1      23.406  -1.084  55.026  1.00  0.00     0.034 C 
HETATM   27  C15 UNL     1      21.902  -0.893  54.960  1.00  0.00     0.029 C 
HETATM   28  C16 UNL     1      21.649  -1.202  53.498  1.00  0.00     0.168 C 
HETATM   29  O1  UNL     1      22.742  -0.749  52.798  1.00  0.00    -0.386 OA
ENDBRANCH  24  25
ENDBRANCH  12  24
TORSDOF 2
ENDMDL
MODEL 6
REMARK VINA RESULT:      -7.6      2.557      6.237
REMARK  2 active torsions:
REMARK  status: ('A' for Active; 'I' for Inactive)
REMARK    1  A    between atoms: C11_12  and  C12_13 
REMARK    2  A    between atoms: C12_13  and  C13_14 
ROOT
HETATM    1  C1  UNL     1      20.954   1.641  52.429  1.00  0.00     0.044 C 
HETATM    2  C2  UNL     1      21.855   0.851  51.585  1.00  0.00    -0.079 C 
HETATM    3  C3  UNL     1      22.822   0.477  52.395  1.00  0.00     0.004 C 
HETATM    4  C4  UNL     1      23.516   0.391  53.629  1.00  0.00     0.014 C 
HETATM    5  C5  UNL     1      24.811   0.428  53.648  1.00  0.00    -0.009 C 
HETATM    6  C6  UNL     1      25.410   1.401  53.032  1.00  0.00     0.099 C 
HETATM    7  N1  UNL     1      24.787   2.317  52.107  1.00  0.00    -0.375 N 
HETATM    8  C7  UNL     1      25.081   1.819  50.824  1.00  0.00     0.129 C 
HETATM    9  C8  UNL     1      25.925   2.668  49.886  1.00  0.00     0.079 C 
HETATM   10  C9  UNL     1      25.097   3.867  49.604  1.00  0.00     0.034 C 
HETATM   11  C10 UNL     1      24.809   5.121  49.518  1.00  0.00     0.005 C 
HETATM   12  C11 UNL     1      24.269   6.486  49.341  1.00  0.00     0.014 C 
HETATM   13  C17 UNL     1      24.287   7.241  50.666  1.00  0.00     0.037 C 
HETATM   14  C18 UNL     1      23.492   6.409  51.696  1.00  0.00     0.194 C 
HETATM   15  O2  UNL     1      24.123   5.140  51.810  1.00  0.00    -0.304 OA
HETATM   16  N2  UNL     1      23.396   4.263  52.474  1.00  0.00    -0.188 NA
HETATM   17  C19 UNL     1      24.199   3.213  53.072  1.00  0.00     0.240 C 
HETATM   18  N3  UNL     1      23.818   3.475  49.237  1.00  0.00    -0.247 NA
HETATM   19  C20 UNL     1      23.304   2.884  48.270  1.00  0.00     0.232 C 
HETATM   20  N4  UNL     1      21.948   2.904  48.712  1.00  0.00    -0.258 NA
HETATM   21  C21 UNL     1      21.374   2.002  49.435  1.00  0.00     0.095 C 
HETATM   22  C22 UNL     1      21.463   0.704  50.168  1.00  0.00     0.080 C 
HETATM   23  H26 UNL     1      22.858   4.743  53.226  1.00  0.00     0.155 HD
ENDROOT
BRANCH  12  24
HETATM   24  C12 UNL     1      25.155   7.262  48.397  1.00  0.00     0.040 C 
BRANCH  24  25
HETATM   25  C13 UNL     1      26.533   7.536  48.953  1.00  0.00     0.122 C 
HETATM   26  C14 UNL     1      27.495   6.713  48.140  1.00  0.00     0.034 C 
HETATM   27  C15 UNL     1      28.140   7.742  47.230  1.00  0.00     0.029 C 
HETATM   28  C16 UNL     1      27.980   8.992  48.071  1.00  0.00     0.168 C 
HETATM   29  O1  UNL     1      26.790   8.868  48.750  1.00  0.00    -0.386 OA
ENDBRANCH  24  25
ENDBRANCH  12  24
TORSDOF 2
ENDMDL
MODEL 7
REMARK VINA RESULT:      -7.6      5.184      7.353
REMARK  2 active torsions:
REMARK  status: ('A' for Active; 'I' for Inactive)
REMARK    1  A    between atoms: C11_12  and  C12_13 
REMARK    2  A    between atoms: C12_13  and  C13_14 
ROOT
HETATM    1  C1  UNL     1      29.236   8.727  45.070  1.00  0.00     0.044 C 
HETATM    2  C2  UNL     1      28.597   9.797  45.841  1.00  0.00    -0.079 C 
HETATM    3  C3  UNL     1      29.520  10.184  46.695  1.00  0.00     0.004 C 
HETATM    4  C4  UNL     1      30.795  10.170  47.318  1.00  0.00     0.014 C 
HETATM    5  C5  UNL     1      30.893  10.354  48.597  1.00  0.00    -0.009 C 
HETATM    6  C6  UNL     1      30.163   9.624  49.385  1.00  0.00     0.099 C 
HETATM    7  N1  UNL     1      29.059   8.792  48.971  1.00  0.00    -0.375 N 
HETATM    8  C7  UNL     1      27.899   9.552  49.214  1.00  0.00     0.129 C 
HETATM    9  C8  UNL     1      26.890   9.041  50.231  1.00  0.00     0.079 C 
HETATM   10  C9  UNL     1      26.358   7.786  49.645  1.00  0.00     0.034 C 
HETATM   11  C10 UNL     1      26.043   6.536  49.593  1.00  0.00     0.005 C 
HETATM   12  C11 UNL     1      25.605   5.151  49.317  1.00  0.00     0.014 C 
HETATM   13  C17 UNL     1      26.783   4.189  49.425  1.00  0.00     0.037 C 
HETATM   14  C18 UNL     1      27.883   4.675  48.457  1.00  0.00     0.194 C 
HETATM   15  O2  UNL     1      28.250   5.994  48.842  1.00  0.00    -0.304 OA
HETATM   16  N2  UNL     1      29.002   6.600  47.945  1.00  0.00    -0.188 NA
HETATM   17  C19 UNL     1      29.819   7.652  48.522  1.00  0.00     0.240 C 
HETATM   18  N3  UNL     1      25.977   8.010  48.330  1.00  0.00    -0.247 NA
HETATM   19  C20 UNL     1      25.092   8.664  47.751  1.00  0.00     0.232 C 
HETATM   20  N4  UNL     1      25.433   8.332  46.407  1.00  0.00    -0.258 NA
HETATM   21  C21 UNL     1      26.258   8.979  45.653  1.00  0.00     0.095 C 
HETATM   22  C22 UNL     1      27.203  10.122  45.479  1.00  0.00     0.080 C 
HETATM   23  H26 UNL     1      29.625   5.909  47.477  1.00  0.00     0.155 HD
ENDROOT
BRANCH  12  24
HETATM   24  C12 UNL     1      24.605   4.719  50.362  1.00  0.00     0.040 C 
BRANCH  24  25
HETATM   25  C13 UNL     1      24.713   3.259  50.732  1.00  0.00     0.122 C 
HETATM   26  C14 UNL     1      24.442   3.169  52.209  1.00  0.00     0.034 C 
HETATM   27  C15 UNL     1      23.027   2.623  52.263  1.00  0.00     0.029 C 
HETATM   28  C16 UNL     1      22.968   1.880  50.943  1.00  0.00     0.168 C 
HETATM   29  O1  UNL     1      23.726   2.597  50.047  1.00  0.00    -0.386 OA
ENDBRANCH  24  25
ENDBRANCH  12  24
TORSDOF 2
ENDMDL
MODEL 8
REMARK VINA RESULT:      -7.6      2.649      7.091
REMARK  2 active torsions:
REMARK  status: ('A' for Active; 'I' for Inactive)
REMARK    1  A    between atoms: C11_12  and  C12_13 
REMARK    2  A    between atoms: C12_13  and  C13_14 
ROOT
HETATM    1  C1  UNL     1      24.827   0.876  51.974  1.00  0.00     0.044 C 
HETATM    2  C2  UNL     1      24.017   1.540  53.001  1.00  0.00    -0.079 C 
HETATM    3  C3  UNL     1      23.074   0.670  53.290  1.00  0.00     0.004 C 
HETATM    4  C4  UNL     1      22.368  -0.556  53.185  1.00  0.00     0.014 C 
HETATM    5  C5  UNL     1      21.074  -0.568  53.266  1.00  0.00    -0.009 C 
HETATM    6  C6  UNL     1      20.400   0.235  52.499  1.00  0.00     0.099 C 
HETATM    7  N1  UNL     1      20.955   1.329  51.738  1.00  0.00    -0.375 N 
HETATM    8  C7  UNL     1      20.732   2.482  52.514  1.00  0.00     0.129 C 
HETATM    9  C8  UNL     1      19.831   3.574  51.957  1.00  0.00     0.079 C 
HETATM   10  C9  UNL     1      20.552   4.096  50.770  1.00  0.00     0.034 C 
HETATM   11  C10 UNL     1      20.725   4.439  49.538  1.00  0.00     0.005 C 
HETATM   12  C11 UNL     1      21.141   4.893  48.194  1.00  0.00     0.014 C 
HETATM   13  C17 UNL     1      21.031   3.751  47.189  1.00  0.00     0.037 C 
HETATM   14  C18 UNL     1      21.879   2.573  47.715  1.00  0.00     0.194 C 
HETATM   15  O2  UNL     1      21.364   2.200  48.987  1.00  0.00    -0.304 OA
HETATM   16  N2  UNL     1      22.156   1.371  49.637  1.00  0.00    -0.188 NA
HETATM   17  C19 UNL     1      21.440   0.569  50.613  1.00  0.00     0.240 C 
HETATM   18  N3  UNL     1      21.867   4.376  51.108  1.00  0.00    -0.247 NA
HETATM   19  C20 UNL     1      22.451   5.201  51.834  1.00  0.00     0.232 C 
HETATM   20  N4  UNL     1      23.791   4.773  51.597  1.00  0.00    -0.258 NA
HETATM   21  C21 UNL     1      24.432   3.881  52.275  1.00  0.00     0.095 C 
HETATM   22  C22 UNL     1      24.447   2.896  53.398  1.00  0.00     0.080 C 
HETATM   23  H26 UNL     1      22.633   0.734  48.965  1.00  0.00     0.155 HD
ENDROOT
BRANCH  12  24
HETATM   24  C12 UNL     1      20.206   5.976  47.714  1.00  0.00     0.040 C 
BRANCH  24  25
HETATM   25  C13 UNL     1      20.782   7.367  47.837  1.00  0.00     0.122 C 
HETATM   26  C14 UNL     1      19.927   8.098  48.836  1.00  0.00     0.034 C 
HETATM   27  C15 UNL     1      20.792   8.108  50.083  1.00  0.00     0.029 C 
HETATM   28  C16 UNL     1      22.172   8.015  49.462  1.00  0.00     0.168 C 
HETATM   29  O1  UNL     1      22.052   7.233  48.337  1.00  0.00    -0.386 OA
ENDBRANCH  24  25
ENDBRANCH  12  24
TORSDOF 2
ENDMDL
MODEL 9
REMARK VINA RESULT:      -7.5      2.531      6.926
REMARK  2 active torsions:
REMARK  status: ('A' for Active; 'I' for Inactive)
REMARK    1  A    between atoms: C11_12  and  C12_13 
REMARK    2  A    between atoms: C12_13  and  C13_14 
ROOT
HETATM    1  C1  UNL     1      20.516   1.573  51.844  1.00  0.00     0.044 C 
HETATM    2  C2  UNL     1      21.617   1.052  51.028  1.00  0.00    -0.079 C 
HETATM    3  C3  UNL     1      22.646   1.015  51.847  1.00  0.00     0.004 C 
HETATM    4  C4  UNL     1      23.326   1.191  53.079  1.00  0.00     0.014 C 
HETATM    5  C5  UNL     1      24.552   1.611  53.089  1.00  0.00    -0.009 C 
HETATM    6  C6  UNL     1      24.840   2.692  52.429  1.00  0.00     0.099 C 
HETATM    7  N1  UNL     1      23.979   3.342  51.470  1.00  0.00    -0.375 N 
HETATM    8  C7  UNL     1      24.416   2.899  50.207  1.00  0.00     0.129 C 
HETATM    9  C8  UNL     1      24.976   3.921  49.229  1.00  0.00     0.079 C 
HETATM   10  C9  UNL     1      23.832   4.807  48.902  1.00  0.00     0.034 C 
HETATM   11  C10 UNL     1      23.186   5.915  48.765  1.00  0.00     0.005 C 
HETATM   12  C11 UNL     1      22.266   7.049  48.534  1.00  0.00     0.014 C 
HETATM   13  C17 UNL     1      22.050   7.830  49.826  1.00  0.00     0.037 C 
HETATM   14  C18 UNL     1      21.531   6.844  50.895  1.00  0.00     0.194 C 
HETATM   15  O2  UNL     1      22.509   5.825  51.059  1.00  0.00    -0.304 OA
HETATM   16  N2  UNL     1      22.070   4.801  51.763  1.00  0.00    -0.188 NA
HETATM   17  C19 UNL     1      23.145   4.062  52.400  1.00  0.00     0.240 C 
HETATM   18  N3  UNL     1      22.729   4.038  48.559  1.00  0.00    -0.247 NA
HETATM   19  C20 UNL     1      22.420   3.281  47.622  1.00  0.00     0.232 C 
HETATM   20  N4  UNL     1      21.116   2.917  48.071  1.00  0.00    -0.258 NA
HETATM   21  C21 UNL     1      20.831   1.916  48.834  1.00  0.00     0.095 C 
HETATM   22  C22 UNL     1      21.296   0.736  49.621  1.00  0.00     0.080 C 
HETATM   23  H26 UNL     1      21.410   5.132  52.498  1.00  0.00     0.155 HD
ENDROOT
BRANCH  12  24
HETATM   24  C12 UNL     1      22.889   8.013  47.553  1.00  0.00     0.040 C 
BRANCH  24  25
HETATM   25  C13 UNL     1      22.168   8.070  46.226  1.00  0.00     0.122 C 
HETATM   26  C14 UNL     1      23.045   7.359  45.232  1.00  0.00     0.034 C 
HETATM   27  C15 UNL     1      22.344   6.025  45.053  1.00  0.00     0.029 C 
HETATM   28  C16 UNL     1      20.920   6.412  45.399  1.00  0.00     0.168 C 
HETATM   29  O1  UNL     1      20.995   7.376  46.377  1.00  0.00    -0.386 OA
ENDBRANCH  24  25
ENDBRANCH  12  24
TORSDOF 2
ENDMDL
