MODEL 1
REMARK VINA RESULT:      -7.5      0.000      0.000
REMARK  8 active torsions:
REMARK  status: ('A' for Active; 'I' for Inactive)
REMARK    1  A    between atoms: C2_2  and  C3_3 
REMARK    2  A    between atoms: C2_2  and  N4_20 
REMARK    3  A    between atoms: C3_3  and  N1_4 
REMARK    4  A    between atoms: N1_4  and  C4_5 
REMARK    5  A    between atoms: C4_5  and  C6_7 
REMARK       I    between atoms: C6_7  and  N2_9 
REMARK    6  A    between atoms: N2_9  and  C7_10 
REMARK    7  A    between atoms: C12_17  and  C13_18 
REMARK    8  A    between atoms: C13_18  and  N3_19 
ROOT
HETATM    1  C6  UNL     1      25.846   3.385  50.430  1.00  0.00     0.254 C 
HETATM    2  O1  UNL     1      26.959   2.864  50.780  1.00  0.00    -0.271 OA
HETATM    3  N2  UNL     1      25.938   4.455  49.511  1.00  0.00    -0.335 N 
HETATM    4  H10 UNL     1      24.988   4.844  49.259  1.00  0.00     0.168 HD
ENDROOT
BRANCH   1   5
HETATM    5  C4  UNL     1      24.541   2.900  50.949  1.00  0.00     0.308 C 
HETATM    6  C5  UNL     1      23.506   3.090  49.878  1.00  0.00     0.053 C 
BRANCH   5   7
HETATM    7  N1  UNL     1      24.579   1.590  51.496  1.00  0.00     0.102 N 
HETATM    8  H5  UNL     1      24.104   0.891  50.920  1.00  0.00     0.317 HD
BRANCH   7   9
HETATM    9  C3  UNL     1      24.324   1.543  52.897  1.00  0.00     0.326 C 
BRANCH   9  10
HETATM   10  C2  UNL     1      24.621   0.180  53.465  1.00  0.00     0.026 C 
HETATM   11  C1  UNL     1      23.592  -0.604  53.755  1.00  0.00     0.039 C 
BRANCH  10  12
HETATM   12  N4  UNL     1      25.971  -0.209  53.665  1.00  0.00    -0.380 N 
HETATM   13  C14 UNL     1      26.670   0.428  54.774  1.00  0.00     0.153 C 
HETATM   14  C15 UNL     1      28.102   0.006  54.886  1.00  0.00     0.291 C 
HETATM   15  N5  UNL     1      28.572  -0.223  53.528  1.00  0.00     0.087 N 
HETATM   16  C16 UNL     1      30.000  -0.184  53.406  1.00  0.00     0.310 C 
HETATM   17  C17 UNL     1      27.987  -1.490  53.123  1.00  0.00     0.291 C 
HETATM   18  C18 UNL     1      26.542  -1.206  52.754  1.00  0.00     0.153 C 
ENDBRANCH  10  12
ENDBRANCH   9  10
ENDBRANCH   7   9
ENDBRANCH   5   7
ENDBRANCH   1   5
BRANCH   3  19
HETATM   19  C7  UNL     1      27.171   4.940  48.998  1.00  0.00     0.103 C 
HETATM   20  C8  UNL     1      27.325   6.071  48.340  1.00  0.00    -0.010 A 
HETATM   21  C9  UNL     1      26.155   6.871  48.127  1.00  0.00     0.014 A 
HETATM   22  C12 UNL     1      28.640   6.451  47.858  1.00  0.00     0.020 A 
HETATM   23  C10 UNL     1      26.065   8.006  47.507  1.00  0.00     0.012 A 
HETATM   24  P1  UNL     1      27.597   8.740  46.780  1.00  0.00    -0.040 P 
HETATM   25  C11 UNL     1      28.923   7.546  47.183  1.00  0.00     0.129 A 
HETATM   26  H14 UNL     1      27.880  10.053  47.335  1.00  0.00     0.069 HD
HETATM   27  F1  UNL     1      30.150   7.879  46.745  1.00  0.00    -0.205 F 
BRANCH  22  28
HETATM   28  C13 UNL     1      29.819   5.588  48.105  1.00  0.00     0.309 C 
BRANCH  28  29
HETATM   29  N3  UNL     1      30.471   6.056  49.313  1.00  0.00     0.082 N 
HETATM   30  H17 UNL     1      31.201   5.429  49.665  1.00  0.00     0.313 HD
HETATM   31  H18 UNL     1      30.742   7.064  49.244  1.00  0.00     0.313 HD
ENDBRANCH  28  29
ENDBRANCH  22  28
ENDBRANCH   3  19
TORSDOF 8
ENDMDL
MODEL 2
REMARK VINA RESULT:      -7.3      4.190      8.439
REMARK  8 active torsions:
REMARK  status: ('A' for Active; 'I' for Inactive)
REMARK    1  A    between atoms: C2_2  and  C3_3 
REMARK    2  A    between atoms: C2_2  and  N4_20 
REMARK    3  A    between atoms: C3_3  and  N1_4 
REMARK    4  A    between atoms: N1_4  and  C4_5 
REMARK    5  A    between atoms: C4_5  and  C6_7 
REMARK       I    between atoms: C6_7  and  N2_9 
REMARK    6  A    between atoms: N2_9  and  C7_10 
REMARK    7  A    between atoms: C12_17  and  C13_18 
REMARK    8  A    between atoms: C13_18  and  N3_19 
ROOT
HETATM    1  C6  UNL     1      26.379   4.805  49.282  1.00  0.00     0.254 C 
HETATM    2  O1  UNL     1      25.140   4.768  48.970  1.00  0.00    -0.271 OA
HETATM    3  N2  UNL     1      26.784   3.883  50.274  1.00  0.00    -0.335 N 
HETATM    4  H10 UNL     1      27.816   3.960  50.489  1.00  0.00     0.168 HD
ENDROOT
BRANCH   1   5
HETATM    5  C4  UNL     1      27.333   5.751  48.648  1.00  0.00     0.308 C 
HETATM    6  C5  UNL     1      26.827   7.148  48.862  1.00  0.00     0.053 C 
BRANCH   5   7
HETATM    7  N1  UNL     1      28.687   5.558  49.027  1.00  0.00     0.102 N 
HETATM    8  H5  UNL     1      28.965   6.101  49.848  1.00  0.00     0.317 HD
BRANCH   7   9
HETATM    9  C3  UNL     1      29.597   5.547  47.931  1.00  0.00     0.326 C 
BRANCH   9  10
HETATM   10  C2  UNL     1      30.999   5.875  48.375  1.00  0.00     0.026 C 
HETATM   11  C1  UNL     1      31.166   6.931  49.158  1.00  0.00     0.039 C 
BRANCH  10  12
HETATM   12  N4  UNL     1      32.073   5.054  47.945  1.00  0.00    -0.380 N 
HETATM   13  C14 UNL     1      33.406   5.450  48.382  1.00  0.00     0.153 C 
HETATM   14  C15 UNL     1      34.488   4.566  47.844  1.00  0.00     0.291 C 
HETATM   15  N5  UNL     1      34.055   4.144  46.519  1.00  0.00     0.087 N 
HETATM   16  C16 UNL     1      35.130   3.687  45.688  1.00  0.00     0.310 C 
HETATM   17  C17 UNL     1      33.029   3.141  46.748  1.00  0.00     0.291 C 
HETATM   18  C18 UNL     1      31.758   3.891  47.108  1.00  0.00     0.153 C 
ENDBRANCH  10  12
ENDBRANCH   9  10
ENDBRANCH   7   9
ENDBRANCH   5   7
ENDBRANCH   1   5
BRANCH   3  19
HETATM   19  C7  UNL     1      25.895   2.967  50.898  1.00  0.00     0.103 C 
HETATM   20  C8  UNL     1      26.202   2.187  51.915  1.00  0.00    -0.010 A 
HETATM   21  C9  UNL     1      27.537   2.272  52.427  1.00  0.00     0.014 A 
HETATM   22  C12 UNL     1      25.203   1.285  52.459  1.00  0.00     0.020 A 
HETATM   23  C10 UNL     1      28.062   1.603  53.406  1.00  0.00     0.012 A 
HETATM   24  P1  UNL     1      27.013   0.368  54.295  1.00  0.00    -0.040 P 
HETATM   25  C11 UNL     1      25.386   0.452  53.463  1.00  0.00     0.129 A 
HETATM   26  H14 UNL     1      26.901   0.677  55.710  1.00  0.00     0.069 HD
HETATM   27  F1  UNL     1      24.446  -0.375  53.951  1.00  0.00    -0.205 F 
BRANCH  22  28
HETATM   28  C13 UNL     1      23.834   1.236  51.893  1.00  0.00     0.309 C 
BRANCH  28  29
HETATM   29  N3  UNL     1      22.990   2.107  52.689  1.00  0.00     0.082 N 
HETATM   30  H17 UNL     1      22.812   1.764  53.638  1.00  0.00     0.313 HD
HETATM   31  H18 UNL     1      23.288   3.106  52.623  1.00  0.00     0.313 HD
ENDBRANCH  28  29
ENDBRANCH  22  28
ENDBRANCH   3  19
TORSDOF 8
ENDMDL
MODEL 3
REMARK VINA RESULT:      -7.3      4.228      8.972
REMARK  8 active torsions:
REMARK  status: ('A' for Active; 'I' for Inactive)
REMARK    1  A    between atoms: C2_2  and  C3_3 
REMARK    2  A    between atoms: C2_2  and  N4_20 
REMARK    3  A    between atoms: C3_3  and  N1_4 
REMARK    4  A    between atoms: N1_4  and  C4_5 
REMARK    5  A    between atoms: C4_5  and  C6_7 
REMARK       I    between atoms: C6_7  and  N2_9 
REMARK    6  A    between atoms: N2_9  and  C7_10 
REMARK    7  A    between atoms: C12_17  and  C13_18 
REMARK    8  A    between atoms: C13_18  and  N3_19 
ROOT
HETATM    1  C6  UNL     1      26.009   2.970  50.667  1.00  0.00     0.254 C 
HETATM    2  O1  UNL     1      27.122   2.664  51.216  1.00  0.00    -0.271 OA
HETATM    3  N2  UNL     1      24.888   2.235  51.116  1.00  0.00    -0.335 N 
HETATM    4  H10 UNL     1      23.998   2.532  50.628  1.00  0.00     0.168 HD
ENDROOT
BRANCH   1   5
HETATM    5  C4  UNL     1      25.896   4.027  49.629  1.00  0.00     0.308 C 
HETATM    6  C5  UNL     1      24.495   4.564  49.653  1.00  0.00     0.053 C 
BRANCH   5   7
HETATM    7  N1  UNL     1      26.904   5.025  49.699  1.00  0.00     0.102 N 
HETATM    8  H5  UNL     1      26.554   5.942  49.987  1.00  0.00     0.317 HD
BRANCH   7   9
HETATM    9  C3  UNL     1      27.813   5.004  48.602  1.00  0.00     0.326 C 
BRANCH   9  10
HETATM   10  C2  UNL     1      28.166   6.398  48.153  1.00  0.00     0.026 C 
HETATM   11  C1  UNL     1      27.176   7.266  48.000  1.00  0.00     0.039 C 
BRANCH  10  12
HETATM   12  N4  UNL     1      29.526   6.725  47.913  1.00  0.00    -0.380 N 
HETATM   13  C14 UNL     1      30.460   5.608  47.854  1.00  0.00     0.153 C 
HETATM   14  C15 UNL     1      31.880   6.038  47.652  1.00  0.00     0.291 C 
HETATM   15  N5  UNL     1      32.028   7.310  48.346  1.00  0.00     0.087 N 
HETATM   16  C16 UNL     1      33.391   7.638  48.648  1.00  0.00     0.310 C 
HETATM   17  C17 UNL     1      31.365   8.291  47.504  1.00  0.00     0.291 C 
HETATM   18  C18 UNL     1      29.874   8.141  47.748  1.00  0.00     0.153 C 
ENDBRANCH  10  12
ENDBRANCH   9  10
ENDBRANCH   7   9
ENDBRANCH   5   7
ENDBRANCH   1   5
BRANCH   3  19
HETATM   19  C7  UNL     1      24.965   1.219  52.106  1.00  0.00     0.103 C 
HETATM   20  C8  UNL     1      23.946   0.769  52.810  1.00  0.00    -0.010 A 
HETATM   21  C9  UNL     1      22.663   1.352  52.554  1.00  0.00     0.014 A 
HETATM   22  C12 UNL     1      24.159  -0.270  53.801  1.00  0.00     0.020 A 
HETATM   23  C10 UNL     1      21.531   1.076  53.123  1.00  0.00     0.012 A 
HETATM   24  P1  UNL     1      21.497  -0.221  54.440  1.00  0.00    -0.040 P 
HETATM   25  C11 UNL     1      23.229  -0.796  54.572  1.00  0.00     0.129 A 
HETATM   26  H14 UNL     1      20.602  -1.312  54.097  1.00  0.00     0.069 HD
HETATM   27  F1  UNL     1      23.448  -1.758  55.485  1.00  0.00    -0.205 F 
BRANCH  22  28
HETATM   28  C13 UNL     1      25.507  -0.841  54.028  1.00  0.00     0.309 C 
BRANCH  28  29
HETATM   29  N3  UNL     1      26.067  -0.211  55.209  1.00  0.00     0.082 N 
HETATM   30  H17 UNL     1      25.733   0.743  55.373  1.00  0.00     0.313 HD
HETATM   31  H18 UNL     1      26.036  -0.845  56.040  1.00  0.00     0.313 HD
ENDBRANCH  28  29
ENDBRANCH  22  28
ENDBRANCH   3  19
TORSDOF 8
ENDMDL
MODEL 4
REMARK VINA RESULT:      -7.2      4.349      9.356
REMARK  8 active torsions:
REMARK  status: ('A' for Active; 'I' for Inactive)
REMARK    1  A    between atoms: C2_2  and  C3_3 
REMARK    2  A    between atoms: C2_2  and  N4_20 
REMARK    3  A    between atoms: C3_3  and  N1_4 
REMARK    4  A    between atoms: N1_4  and  C4_5 
REMARK    5  A    between atoms: C4_5  and  C6_7 
REMARK       I    between atoms: C6_7  and  N2_9 
REMARK    6  A    between atoms: N2_9  and  C7_10 
REMARK    7  A    between atoms: C12_17  and  C13_18 
REMARK    8  A    between atoms: C13_18  and  N3_19 
ROOT
HETATM    1  C6  UNL     1      25.983   2.925  50.695  1.00  0.00     0.254 C 
HETATM    2  O1  UNL     1      27.107   2.611  51.215  1.00  0.00    -0.271 OA
HETATM    3  N2  UNL     1      24.868   2.201  51.175  1.00  0.00    -0.335 N 
HETATM    4  H10 UNL     1      23.968   2.505  50.711  1.00  0.00     0.168 HD
ENDROOT
BRANCH   1   5
HETATM    5  C4  UNL     1      25.851   3.981  49.659  1.00  0.00     0.308 C 
HETATM    6  C5  UNL     1      24.398   4.122  49.310  1.00  0.00     0.053 C 
BRANCH   5   7
HETATM    7  N1  UNL     1      26.492   5.205  49.986  1.00  0.00     0.102 N 
HETATM    8  H5  UNL     1      26.263   5.551  50.921  1.00  0.00     0.317 HD
BRANCH   7   9
HETATM    9  C3  UNL     1      26.480   6.163  48.931  1.00  0.00     0.326 C 
BRANCH   9  10
HETATM   10  C2  UNL     1      27.878   6.541  48.516  1.00  0.00     0.026 C 
HETATM   11  C1  UNL     1      28.731   5.561  48.258  1.00  0.00     0.039 C 
BRANCH  10  12
HETATM   12  N4  UNL     1      28.224   7.914  48.417  1.00  0.00    -0.380 N 
HETATM   13  C14 UNL     1      29.035   8.296  47.268  1.00  0.00     0.153 C 
HETATM   14  C15 UNL     1      29.403   9.747  47.265  1.00  0.00     0.291 C 
HETATM   15  N5  UNL     1      29.564  10.135  48.659  1.00  0.00     0.087 N 
HETATM   16  C16 UNL     1      30.342  11.327  48.832  1.00  0.00     0.310 C 
HETATM   17  C17 UNL     1      28.215  10.239  49.190  1.00  0.00     0.291 C 
HETATM   18  C18 UNL     1      27.744   8.821  49.465  1.00  0.00     0.153 C 
ENDBRANCH  10  12
ENDBRANCH   9  10
ENDBRANCH   7   9
ENDBRANCH   5   7
ENDBRANCH   1   5
BRANCH   3  19
HETATM   19  C7  UNL     1      24.963   1.186  52.165  1.00  0.00     0.103 C 
HETATM   20  C8  UNL     1      23.949   0.703  52.854  1.00  0.00    -0.010 A 
HETATM   21  C9  UNL     1      22.651   1.246  52.581  1.00  0.00     0.014 A 
HETATM   22  C12 UNL     1      24.180  -0.330  53.847  1.00  0.00     0.020 A 
HETATM   23  C10 UNL     1      21.521   0.933  53.134  1.00  0.00     0.012 A 
HETATM   24  P1  UNL     1      21.510  -0.366  54.448  1.00  0.00    -0.040 P 
HETATM   25  C11 UNL     1      23.256  -0.887  54.604  1.00  0.00     0.129 A 
HETATM   26  H14 UNL     1      20.653  -1.484  54.091  1.00  0.00     0.069 HD
HETATM   27  F1  UNL     1      23.492  -1.844  55.519  1.00  0.00    -0.205 F 
BRANCH  22  28
HETATM   28  C13 UNL     1      25.542  -0.860  54.091  1.00  0.00     0.309 C 
BRANCH  28  29
HETATM   29  N3  UNL     1      26.072  -0.203  55.271  1.00  0.00     0.082 N 
HETATM   30  H17 UNL     1      25.389   0.373  55.772  1.00  0.00     0.313 HD
HETATM   31  H18 UNL     1      26.626  -0.860  55.867  1.00  0.00     0.313 HD
ENDBRANCH  28  29
ENDBRANCH  22  28
ENDBRANCH   3  19
TORSDOF 8
ENDMDL
MODEL 5
REMARK VINA RESULT:      -7.1      2.138      2.783
REMARK  8 active torsions:
REMARK  status: ('A' for Active; 'I' for Inactive)
REMARK    1  A    between atoms: C2_2  and  C3_3 
REMARK    2  A    between atoms: C2_2  and  N4_20 
REMARK    3  A    between atoms: C3_3  and  N1_4 
REMARK    4  A    between atoms: N1_4  and  C4_5 
REMARK    5  A    between atoms: C4_5  and  C6_7 
REMARK       I    between atoms: C6_7  and  N2_9 
REMARK    6  A    between atoms: N2_9  and  C7_10 
REMARK    7  A    between atoms: C12_17  and  C13_18 
REMARK    8  A    between atoms: C13_18  and  N3_19 
ROOT
HETATM    1  C6  UNL     1      24.234   5.510  50.530  1.00  0.00     0.254 C 
HETATM    2  O1  UNL     1      24.323   6.309  51.524  1.00  0.00    -0.271 OA
HETATM    3  N2  UNL     1      25.064   5.815  49.427  1.00  0.00    -0.335 N 
HETATM    4  H10 UNL     1      24.948   5.121  48.639  1.00  0.00     0.168 HD
ENDROOT
BRANCH   1   5
HETATM    5  C4  UNL     1      23.322   4.337  50.530  1.00  0.00     0.308 C 
HETATM    6  C5  UNL     1      22.292   4.539  49.457  1.00  0.00     0.053 C 
BRANCH   5   7
HETATM    7  N1  UNL     1      23.983   3.082  50.474  1.00  0.00     0.102 N 
HETATM    8  H5  UNL     1      23.403   2.329  50.097  1.00  0.00     0.317 HD
BRANCH   7   9
HETATM    9  C3  UNL     1      24.745   2.779  51.639  1.00  0.00     0.326 C 
BRANCH   9  10
HETATM   10  C2  UNL     1      26.123   2.284  51.283  1.00  0.00     0.026 C 
HETATM   11  C1  UNL     1      26.631   2.660  50.118  1.00  0.00     0.039 C 
BRANCH  10  12
HETATM   12  N4  UNL     1      26.815   1.445  52.194  1.00  0.00    -0.380 N 
HETATM   13  C14 UNL     1      27.728   2.107  53.118  1.00  0.00     0.153 C 
HETATM   14  C15 UNL     1      28.459   1.150  54.008  1.00  0.00     0.291 C 
HETATM   15  N5  UNL     1      28.677  -0.058  53.225  1.00  0.00     0.087 N 
HETATM   16  C16 UNL     1      29.733  -0.884  53.735  1.00  0.00     0.310 C 
HETATM   17  C17 UNL     1      27.388  -0.726  53.175  1.00  0.00     0.291 C 
HETATM   18  C18 UNL     1      26.558   0.002  52.132  1.00  0.00     0.153 C 
ENDBRANCH  10  12
ENDBRANCH   9  10
ENDBRANCH   7   9
ENDBRANCH   5   7
ENDBRANCH   1   5
BRANCH   3  19
HETATM   19  C7  UNL     1      25.946   6.929  49.398  1.00  0.00     0.103 C 
HETATM   20  C8  UNL     1      27.195   6.895  48.981  1.00  0.00    -0.010 A 
HETATM   21  C9  UNL     1      27.700   5.635  48.521  1.00  0.00     0.014 A 
HETATM   22  C12 UNL     1      27.997   8.104  49.010  1.00  0.00     0.020 A 
HETATM   23  C10 UNL     1      28.887   5.364  48.077  1.00  0.00     0.012 A 
HETATM   24  P1  UNL     1      30.135   6.725  48.000  1.00  0.00    -0.040 P 
HETATM   25  C11 UNL     1      29.255   8.200  48.630  1.00  0.00     0.129 A 
HETATM   26  H14 UNL     1      30.618   6.934  46.646  1.00  0.00     0.069 HD
HETATM   27  F1  UNL     1      29.981   9.331  48.665  1.00  0.00    -0.205 F 
BRANCH  22  28
HETATM   28  C13 UNL     1      27.428   9.383  49.494  1.00  0.00     0.309 C 
BRANCH  28  29
HETATM   29  N3  UNL     1      27.633   9.451  50.929  1.00  0.00     0.082 N 
HETATM   30  H17 UNL     1      28.159  10.274  51.238  1.00  0.00     0.313 HD
HETATM   31  H18 UNL     1      26.753   9.257  51.458  1.00  0.00     0.313 HD
ENDBRANCH  28  29
ENDBRANCH  22  28
ENDBRANCH   3  19
TORSDOF 8
ENDMDL
MODEL 6
REMARK VINA RESULT:      -6.9      4.227      8.428
REMARK  8 active torsions:
REMARK  status: ('A' for Active; 'I' for Inactive)
REMARK    1  A    between atoms: C2_2  and  C3_3 
REMARK    2  A    between atoms: C2_2  and  N4_20 
REMARK    3  A    between atoms: C3_3  and  N1_4 
REMARK    4  A    between atoms: N1_4  and  C4_5 
REMARK    5  A    between atoms: C4_5  and  C6_7 
REMARK       I    between atoms: C6_7  and  N2_9 
REMARK    6  A    between atoms: N2_9  and  C7_10 
REMARK    7  A    between atoms: C12_17  and  C13_18 
REMARK    8  A    between atoms: C13_18  and  N3_19 
ROOT
HETATM    1  C6  UNL     1      23.320   4.074  51.071  1.00  0.00     0.254 C 
HETATM    2  O1  UNL     1      22.559   4.147  52.096  1.00  0.00    -0.271 OA
HETATM    3  N2  UNL     1      23.940   2.821  50.861  1.00  0.00    -0.335 N 
HETATM    4  H10 UNL     1      24.554   2.821  50.001  1.00  0.00     0.168 HD
ENDROOT
BRANCH   1   5
HETATM    5  C4  UNL     1      23.538   5.225  50.157  1.00  0.00     0.308 C 
HETATM    6  C5  UNL     1      23.954   6.410  50.981  1.00  0.00     0.053 C 
BRANCH   5   7
HETATM    7  N1  UNL     1      24.398   4.948  49.062  1.00  0.00     0.102 N 
HETATM    8  H5  UNL     1      24.726   3.979  49.033  1.00  0.00     0.317 HD
BRANCH   7   9
HETATM    9  C3  UNL     1      25.373   5.959  48.824  1.00  0.00     0.326 C 
BRANCH   9  10
HETATM   10  C2  UNL     1      26.771   5.400  48.874  1.00  0.00     0.026 C 
HETATM   11  C1  UNL     1      26.914   4.131  49.229  1.00  0.00     0.039 C 
BRANCH  10  12
HETATM   12  N4  UNL     1      27.867   6.239  48.545  1.00  0.00    -0.380 N 
HETATM   13  C14 UNL     1      29.098   5.569  48.146  1.00  0.00     0.153 C 
HETATM   14  C15 UNL     1      30.220   6.520  47.867  1.00  0.00     0.291 C 
HETATM   15  N5  UNL     1      30.051   7.638  48.784  1.00  0.00     0.087 N 
HETATM   16  C16 UNL     1      31.250   8.400  48.980  1.00  0.00     0.310 C 
HETATM   17  C17 UNL     1      28.948   8.417  48.246  1.00  0.00     0.291 C 
HETATM   18  C18 UNL     1      27.671   7.690  48.631  1.00  0.00     0.153 C 
ENDBRANCH  10  12
ENDBRANCH   9  10
ENDBRANCH   7   9
ENDBRANCH   5   7
ENDBRANCH   1   5
BRANCH   3  19
HETATM   19  C7  UNL     1      23.750   1.703  51.717  1.00  0.00     0.103 C 
HETATM   20  C8  UNL     1      24.613   1.286  52.621  1.00  0.00    -0.010 A 
HETATM   21  C9  UNL     1      25.837   2.019  52.748  1.00  0.00     0.014 A 
HETATM   22  C12 UNL     1      24.303   0.121  53.429  1.00  0.00     0.020 A 
HETATM   23  C10 UNL     1      26.826   1.792  53.554  1.00  0.00     0.012 A 
HETATM   24  P1  UNL     1      26.709   0.356  54.712  1.00  0.00    -0.040 P 
HETATM   25  C11 UNL     1      25.082  -0.400  54.356  1.00  0.00     0.129 A 
HETATM   26  H14 UNL     1      26.805   0.776  56.100  1.00  0.00     0.069 HD
HETATM   27  F1  UNL     1      24.774  -1.480  55.094  1.00  0.00    -0.205 F 
BRANCH  22  28
HETATM   28  C13 UNL     1      23.021  -0.603  53.260  1.00  0.00     0.309 C 
BRANCH  28  29
HETATM   29  N3  UNL     1      22.092  -0.107  54.258  1.00  0.00     0.082 N 
HETATM   30  H17 UNL     1      21.553  -0.840  54.729  1.00  0.00     0.313 HD
HETATM   31  H18 UNL     1      22.538   0.596  54.890  1.00  0.00     0.313 HD
ENDBRANCH  28  29
ENDBRANCH  22  28
ENDBRANCH   3  19
TORSDOF 8
ENDMDL
MODEL 7
REMARK VINA RESULT:      -6.9      4.065      9.226
REMARK  8 active torsions:
REMARK  status: ('A' for Active; 'I' for Inactive)
REMARK    1  A    between atoms: C2_2  and  C3_3 
REMARK    2  A    between atoms: C2_2  and  N4_20 
REMARK    3  A    between atoms: C3_3  and  N1_4 
REMARK    4  A    between atoms: N1_4  and  C4_5 
REMARK    5  A    between atoms: C4_5  and  C6_7 
REMARK       I    between atoms: C6_7  and  N2_9 
REMARK    6  A    between atoms: N2_9  and  C7_10 
REMARK    7  A    between atoms: C12_17  and  C13_18 
REMARK    8  A    between atoms: C13_18  and  N3_19 
ROOT
HETATM    1  C6  UNL     1      26.102   4.668  49.421  1.00  0.00     0.254 C 
HETATM    2  O1  UNL     1      24.895   4.447  49.063  1.00  0.00    -0.271 OA
HETATM    3  N2  UNL     1      26.582   3.855  50.473  1.00  0.00    -0.335 N 
HETATM    4  H10 UNL     1      27.583   4.082  50.724  1.00  0.00     0.168 HD
ENDROOT
BRANCH   1   5
HETATM    5  C4  UNL     1      26.947   5.707  48.778  1.00  0.00     0.308 C 
HETATM    6  C5  UNL     1      26.442   7.056  49.202  1.00  0.00     0.053 C 
BRANCH   5   7
HETATM    7  N1  UNL     1      28.343   5.523  48.964  1.00  0.00     0.102 N 
HETATM    8  H5  UNL     1      28.651   5.669  49.928  1.00  0.00     0.317 HD
BRANCH   7   9
HETATM    9  C3  UNL     1      29.142   6.111  47.942  1.00  0.00     0.326 C 
BRANCH   9  10
HETATM   10  C2  UNL     1      30.405   6.708  48.506  1.00  0.00     0.026 C 
HETATM   11  C1  UNL     1      31.285   5.883  49.056  1.00  0.00     0.039 C 
BRANCH  10  12
HETATM   12  N4  UNL     1      30.604   8.111  48.429  1.00  0.00    -0.380 N 
HETATM   13  C14 UNL     1      29.642   8.941  49.143  1.00  0.00     0.153 C 
HETATM   14  C15 UNL     1      29.888  10.407  48.969  1.00  0.00     0.291 C 
HETATM   15  N5  UNL     1      30.414  10.581  47.622  1.00  0.00     0.087 N 
HETATM   16  C16 UNL     1      30.277  11.919  47.126  1.00  0.00     0.310 C 
HETATM   17  C17 UNL     1      31.791  10.120  47.682  1.00  0.00     0.291 C 
HETATM   18  C18 UNL     1      31.745   8.602  47.649  1.00  0.00     0.153 C 
ENDBRANCH  10  12
ENDBRANCH   9  10
ENDBRANCH   7   9
ENDBRANCH   5   7
ENDBRANCH   1   5
BRANCH   3  19
HETATM   19  C7  UNL     1      25.798   2.854  51.107  1.00  0.00     0.103 C 
HETATM   20  C8  UNL     1      26.214   2.070  52.081  1.00  0.00    -0.010 A 
HETATM   21  C9  UNL     1      27.562   2.244  52.534  1.00  0.00     0.014 A 
HETATM   22  C12 UNL     1      25.315   1.077  52.640  1.00  0.00     0.020 A 
HETATM   23  C10 UNL     1      28.184   1.589  53.463  1.00  0.00     0.012 A 
HETATM   24  P1  UNL     1      27.279   0.250  54.358  1.00  0.00    -0.040 P 
HETATM   25  C11 UNL     1      25.611   0.231  53.606  1.00  0.00     0.129 A 
HETATM   26  H14 UNL     1      27.212   0.507  55.787  1.00  0.00     0.069 HD
HETATM   27  F1  UNL     1      24.762  -0.681  54.110  1.00  0.00    -0.205 F 
BRANCH  22  28
HETATM   28  C13 UNL     1      23.928   0.938  52.137  1.00  0.00     0.309 C 
BRANCH  28  29
HETATM   29  N3  UNL     1      23.059   1.713  53.002  1.00  0.00     0.082 N 
HETATM   30  H17 UNL     1      22.226   1.208  53.320  1.00  0.00     0.313 HD
HETATM   31  H18 UNL     1      23.595   2.208  53.751  1.00  0.00     0.313 HD
ENDBRANCH  28  29
ENDBRANCH  22  28
ENDBRANCH   3  19
TORSDOF 8
ENDMDL
MODEL 8
REMARK VINA RESULT:      -6.9      7.214     10.611
REMARK  8 active torsions:
REMARK  status: ('A' for Active; 'I' for Inactive)
REMARK    1  A    between atoms: C2_2  and  C3_3 
REMARK    2  A    between atoms: C2_2  and  N4_20 
REMARK    3  A    between atoms: C3_3  and  N1_4 
REMARK    4  A    between atoms: N1_4  and  C4_5 
REMARK    5  A    between atoms: C4_5  and  C6_7 
REMARK       I    between atoms: C6_7  and  N2_9 
REMARK    6  A    between atoms: N2_9  and  C7_10 
REMARK    7  A    between atoms: C12_17  and  C13_18 
REMARK    8  A    between atoms: C13_18  and  N3_19 
ROOT
HETATM    1  C6  UNL     1      20.412   0.188  53.158  1.00  0.00     0.254 C 
HETATM    2  O1  UNL     1      20.082   0.982  52.213  1.00  0.00    -0.271 OA
HETATM    3  N2  UNL     1      19.401  -0.706  53.581  1.00  0.00    -0.335 N 
HETATM    4  H10 UNL     1      19.731  -1.337  54.362  1.00  0.00     0.168 HD
ENDROOT
BRANCH   1   5
HETATM    5  C4  UNL     1      21.764   0.197  53.773  1.00  0.00     0.308 C 
HETATM    6  C5  UNL     1      21.732  -0.668  54.999  1.00  0.00     0.053 C 
BRANCH   5   7
HETATM    7  N1  UNL     1      22.818  -0.109  52.872  1.00  0.00     0.102 N 
HETATM    8  H5  UNL     1      23.520  -0.742  53.262  1.00  0.00     0.317 HD
BRANCH   7   9
HETATM    9  C3  UNL     1      23.304   1.018  52.150  1.00  0.00     0.326 C 
BRANCH   9  10
HETATM   10  C2  UNL     1      24.487   1.646  52.840  1.00  0.00     0.026 C 
HETATM   11  C1  UNL     1      24.429   2.943  53.105  1.00  0.00     0.039 C 
BRANCH  10  12
HETATM   12  N4  UNL     1      25.604   0.837  53.176  1.00  0.00    -0.380 N 
HETATM   13  C14 UNL     1      26.031   0.872  54.570  1.00  0.00     0.153 C 
HETATM   14  C15 UNL     1      27.245   0.035  54.832  1.00  0.00     0.291 C 
HETATM   15  N5  UNL     1      28.062   0.105  53.630  1.00  0.00     0.087 N 
HETATM   16  C16 UNL     1      29.436  -0.241  53.854  1.00  0.00     0.310 C 
HETATM   17  C17 UNL     1      27.398  -0.748  52.659  1.00  0.00     0.291 C 
HETATM   18  C18 UNL     1      26.225   0.045  52.110  1.00  0.00     0.153 C 
ENDBRANCH  10  12
ENDBRANCH   9  10
ENDBRANCH   7   9
ENDBRANCH   5   7
ENDBRANCH   1   5
BRANCH   3  19
HETATM   19  C7  UNL     1      18.099  -0.738  53.012  1.00  0.00     0.103 C 
HETATM   20  C8  UNL     1      17.300  -1.786  53.009  1.00  0.00    -0.010 A 
HETATM   21  C9  UNL     1      17.785  -2.983  53.627  1.00  0.00     0.014 A 
HETATM   22  C12 UNL     1      15.993  -1.692  52.385  1.00  0.00     0.020 A 
HETATM   23  C10 UNL     1      17.184  -4.127  53.736  1.00  0.00     0.012 A 
HETATM   24  P1  UNL     1      15.488  -4.305  53.025  1.00  0.00    -0.040 P 
HETATM   25  C11 UNL     1      15.108  -2.666  52.308  1.00  0.00     0.129 A 
HETATM   26  H14 UNL     1      14.517  -4.677  54.039  1.00  0.00     0.069 HD
HETATM   27  F1  UNL     1      13.902  -2.558  51.725  1.00  0.00    -0.205 F 
BRANCH  22  28
HETATM   28  C13 UNL     1      15.537  -0.429  51.759  1.00  0.00     0.309 C 
BRANCH  28  29
HETATM   29  N3  UNL     1      14.817   0.333  52.763  1.00  0.00     0.082 N 
HETATM   30  H17 UNL     1      13.798   0.274  52.682  1.00  0.00     0.313 HD
HETATM   31  H18 UNL     1      15.201   0.173  53.722  1.00  0.00     0.313 HD
ENDBRANCH  28  29
ENDBRANCH  22  28
ENDBRANCH   3  19
TORSDOF 8
ENDMDL
MODEL 9
REMARK VINA RESULT:      -6.8      4.153      9.070
REMARK  8 active torsions:
REMARK  status: ('A' for Active; 'I' for Inactive)
REMARK    1  A    between atoms: C2_2  and  C3_3 
REMARK    2  A    between atoms: C2_2  and  N4_20 
REMARK    3  A    between atoms: C3_3  and  N1_4 
REMARK    4  A    between atoms: N1_4  and  C4_5 
REMARK    5  A    between atoms: C4_5  and  C6_7 
REMARK       I    between atoms: C6_7  and  N2_9 
REMARK    6  A    between atoms: N2_9  and  C7_10 
REMARK    7  A    between atoms: C12_17  and  C13_18 
REMARK    8  A    between atoms: C13_18  and  N3_19 
ROOT
HETATM    1  C6  UNL     1      26.277   4.090  49.718  1.00  0.00     0.254 C 
HETATM    2  O1  UNL     1      26.943   3.039  49.423  1.00  0.00    -0.271 OA
HETATM    3  N2  UNL     1      25.459   3.989  50.866  1.00  0.00    -0.335 N 
HETATM    4  H10 UNL     1      24.935   4.886  51.061  1.00  0.00     0.168 HD
ENDROOT
BRANCH   1   5
HETATM    5  C4  UNL     1      26.356   5.336  48.913  1.00  0.00     0.308 C 
HETATM    6  C5  UNL     1      24.987   5.947  48.851  1.00  0.00     0.053 C 
BRANCH   5   7
HETATM    7  N1  UNL     1      27.376   6.235  49.325  1.00  0.00     0.102 N 
HETATM    8  H5  UNL     1      27.382   6.415  50.331  1.00  0.00     0.317 HD
BRANCH   7   9
HETATM    9  C3  UNL     1      27.527   7.366  48.472  1.00  0.00     0.326 C 
BRANCH   9  10
HETATM   10  C2  UNL     1      27.990   8.576  49.239  1.00  0.00     0.026 C 
HETATM   11  C1  UNL     1      27.147   9.114  50.110  1.00  0.00     0.039 C 
BRANCH  10  12
HETATM   12  N4  UNL     1      29.292   9.090  49.004  1.00  0.00    -0.380 N 
HETATM   13  C14 UNL     1      29.416  10.542  48.958  1.00  0.00     0.153 C 
HETATM   14  C15 UNL     1      30.807  11.003  48.653  1.00  0.00     0.291 C 
HETATM   15  N5  UNL     1      31.383  10.013  47.754  1.00  0.00     0.087 N 
HETATM   16  C16 UNL     1      32.505  10.505  47.009  1.00  0.00     0.310 C 
HETATM   17  C17 UNL     1      31.696   8.866  48.589  1.00  0.00     0.291 C 
HETATM   18  C18 UNL     1      30.388   8.131  48.831  1.00  0.00     0.153 C 
ENDBRANCH  10  12
ENDBRANCH   9  10
ENDBRANCH   7   9
ENDBRANCH   5   7
ENDBRANCH   1   5
BRANCH   3  19
HETATM   19  C7  UNL     1      25.363   2.811  51.656  1.00  0.00     0.103 C 
HETATM   20  C8  UNL     1      24.278   2.075  51.788  1.00  0.00    -0.010 A 
HETATM   21  C9  UNL     1      23.107   2.498  51.080  1.00  0.00     0.014 A 
HETATM   22  C12 UNL     1      24.307   0.895  52.634  1.00  0.00     0.020 A 
HETATM   23  C10 UNL     1      21.936   1.941  51.066  1.00  0.00     0.012 A 
HETATM   24  P1  UNL     1      21.675   0.407  52.063  1.00  0.00    -0.040 P 
HETATM   25  C11 UNL     1      23.292   0.085  52.855  1.00  0.00     0.129 A 
HETATM   26  H14 UNL     1      21.260  -0.710  51.232  1.00  0.00     0.069 HD
HETATM   27  F1  UNL     1      23.341  -1.004  53.643  1.00  0.00    -0.205 F 
BRANCH  22  28
HETATM   28  C13 UNL     1      25.545   0.499  53.344  1.00  0.00     0.309 C 
BRANCH  28  29
HETATM   29  N3  UNL     1      26.274  -0.424  52.494  1.00  0.00     0.082 N 
HETATM   30  H17 UNL     1      26.251  -0.182  51.499  1.00  0.00     0.313 HD
HETATM   31  H18 UNL     1      27.220  -0.645  52.880  1.00  0.00     0.313 HD
ENDBRANCH  28  29
ENDBRANCH  22  28
ENDBRANCH   3  19
TORSDOF 8
ENDMDL
