MODEL 1
REMARK VINA RESULT:      -9.0      0.000      0.000
REMARK  5 active torsions:
REMARK  status: ('A' for Active; 'I' for Inactive)
REMARK    1  A    between atoms: N1_2  and  C2_3 
REMARK    2  A    between atoms: C4_5  and  N2_6 
REMARK    3  A    between atoms: N2_6  and  C5_7 
REMARK    4  A    between atoms: N3_13  and  C10_14 
REMARK    5  A    between atoms: C12_16  and  C13_17 
ROOT
HETATM    1  C5  UNL     1      26.073   3.238  50.300  1.00  0.00     0.105 A 
HETATM    2  C6  UNL     1      26.796   4.110  49.615  1.00  0.00     0.050 A 
HETATM    3  C7  UNL     1      26.244   5.304  48.988  1.00  0.00     0.025 A 
HETATM    4  C8  UNL     1      24.946   5.535  49.104  1.00  0.00     0.030 A 
HETATM    5 CL1  UNL     1      24.109   6.915  48.421  1.00  0.00    -0.087 Cl
HETATM    6  C9  UNL     1      23.999   4.665  49.811  1.00  0.00     0.183 A 
HETATM    7  N3  UNL     1      24.670   3.540  50.433  1.00  0.00    -0.313 N 
ENDROOT
BRANCH   1   8
HETATM    8  N2  UNL     1      26.680   2.101  50.875  1.00  0.00    -0.365 N 
HETATM    9  H7  UNL     1      26.974   1.590  50.002  1.00  0.00     0.162 HD
BRANCH   8  10
HETATM   10  C4  UNL     1      26.875   1.697  52.253  1.00  0.00     0.131 C 
HETATM   11  C3  UNL     1      27.030   0.232  52.396  1.00  0.00     0.031 C 
HETATM   12  C2  UNL     1      27.595  -0.568  53.270  1.00  0.00     0.025 C 
HETATM   13  C21 UNL     1      28.309  -0.158  54.497  1.00  0.00     0.029 C 
HETATM   14  C20 UNL     1      28.865   1.025  54.695  1.00  0.00     0.002 C 
HETATM   15  C19 UNL     1      28.923   2.184  53.813  1.00  0.00    -0.002 C 
HETATM   16  C18 UNL     1      28.058   2.375  52.834  1.00  0.00     0.002 C 
BRANCH  12  17
HETATM   17  N1  UNL     1      27.568  -2.000  53.111  1.00  0.00    -0.394 N 
HETATM   18  C1  UNL     1      28.886  -2.642  53.158  1.00  0.00     0.146 C 
HETATM   19  H4  UNL     1      26.726  -2.629  52.966  1.00  0.00     0.159 HD
ENDBRANCH  12  17
ENDBRANCH   8  10
ENDBRANCH   1   8
BRANCH   7  20
HETATM   20  C10 UNL     1      23.843   2.684  51.248  1.00  0.00     0.134 A 
HETATM   21  C11 UNL     1      23.126   2.716  52.361  1.00  0.00     0.083 A 
HETATM   22  C12 UNL     1      22.729   1.324  52.235  1.00  0.00     0.074 A 
HETATM   23  N5  UNL     1      23.430   1.304  51.153  1.00  0.00    -0.230 NA
BRANCH  22  24
HETATM   24  C13 UNL     1      21.924   0.337  52.946  1.00  0.00     0.010 A 
HETATM   25  C14 UNL     1      22.550  -0.534  53.815  1.00  0.00     0.017 A 
HETATM   26  C15 UNL     1      21.707  -1.435  54.446  1.00  0.00     0.020 A 
HETATM   27  C16 UNL     1      20.334  -1.491  54.244  1.00  0.00     0.116 A 
HETATM   28  N4  UNL     1      19.790  -0.610  53.382  1.00  0.00    -0.272 NA
HETATM   29  C17 UNL     1      20.555   0.292  52.738  1.00  0.00     0.130 A 
ENDBRANCH  22  24
ENDBRANCH   7  20
TORSDOF 5
ENDMDL
MODEL 2
REMARK VINA RESULT:      -8.8      2.546      6.794
REMARK  5 active torsions:
REMARK  status: ('A' for Active; 'I' for Inactive)
REMARK    1  A    between atoms: N1_2  and  C2_3 
REMARK    2  A    between atoms: C4_5  and  N2_6 
REMARK    3  A    between atoms: N2_6  and  C5_7 
REMARK    4  A    between atoms: N3_13  and  C10_14 
REMARK    5  A    between atoms: C12_16  and  C13_17 
ROOT
HETATM    1  C5  UNL     1      22.477   2.192  52.280  1.00  0.00     0.105 A 
HETATM    2  C6  UNL     1      21.246   2.657  52.139  1.00  0.00     0.050 A 
HETATM    3  C7  UNL     1      20.048   1.857  52.361  1.00  0.00     0.025 A 
HETATM    4  C8  UNL     1      20.193   0.592  52.723  1.00  0.00     0.030 A 
HETATM    5 CL1  UNL     1      18.872  -0.518  53.034  1.00  0.00    -0.087 Cl
HETATM    6  C9  UNL     1      21.480  -0.087  52.906  1.00  0.00     0.183 A 
HETATM    7  N3  UNL     1      22.594   0.820  52.707  1.00  0.00    -0.313 N 
ENDROOT
BRANCH   1   8
HETATM    8  N2  UNL     1      23.589   3.028  52.042  1.00  0.00    -0.365 N 
HETATM    9  H7  UNL     1      23.985   3.087  53.017  1.00  0.00     0.162 HD
BRANCH   8  10
HETATM   10  C4  UNL     1      24.093   3.655  50.837  1.00  0.00     0.131 C 
HETATM   11  C3  UNL     1      24.321   5.107  51.008  1.00  0.00     0.031 C 
HETATM   12  C2  UNL     1      25.088   6.007  50.437  1.00  0.00     0.025 C 
HETATM   13  C21 UNL     1      26.041   5.771  49.333  1.00  0.00     0.029 C 
HETATM   14  C20 UNL     1      26.589   4.605  49.037  1.00  0.00     0.002 C 
HETATM   15  C19 UNL     1      26.418   3.307  49.677  1.00  0.00    -0.002 C 
HETATM   16  C18 UNL     1      25.353   3.008  50.400  1.00  0.00     0.002 C 
BRANCH  12  17
HETATM   17  N1  UNL     1      25.071   7.387  50.854  1.00  0.00    -0.394 N 
HETATM   18  C1  UNL     1      23.791   8.070  50.640  1.00  0.00     0.146 C 
HETATM   19  H4  UNL     1      25.856   7.952  51.287  1.00  0.00     0.159 HD
ENDBRANCH  12  17
ENDBRANCH   8  10
ENDBRANCH   1   8
BRANCH   7  20
HETATM   20  C10 UNL     1      23.905   0.278  52.974  1.00  0.00     0.134 A 
HETATM   21  C11 UNL     1      24.546  -0.440  53.882  1.00  0.00     0.083 A 
HETATM   22  C12 UNL     1      25.801  -0.385  53.151  1.00  0.00     0.074 A 
HETATM   23  N5  UNL     1      25.166   0.314  52.272  1.00  0.00    -0.230 NA
BRANCH  22  24
HETATM   24  C13 UNL     1      27.173  -0.863  53.275  1.00  0.00     0.010 A 
HETATM   25  C14 UNL     1      28.151   0.018  53.690  1.00  0.00     0.017 A 
HETATM   26  C15 UNL     1      29.424  -0.523  53.779  1.00  0.00     0.020 A 
HETATM   27  C16 UNL     1      29.732  -1.845  53.482  1.00  0.00     0.116 A 
HETATM   28  N4  UNL     1      28.727  -2.648  53.082  1.00  0.00    -0.272 NA
HETATM   29  C17 UNL     1      27.467  -2.183  52.976  1.00  0.00     0.130 A 
ENDBRANCH  22  24
ENDBRANCH   7  20
TORSDOF 5
ENDMDL
MODEL 3
REMARK VINA RESULT:      -8.8      2.529      6.584
REMARK  5 active torsions:
REMARK  status: ('A' for Active; 'I' for Inactive)
REMARK    1  A    between atoms: N1_2  and  C2_3 
REMARK    2  A    between atoms: C4_5  and  N2_6 
REMARK    3  A    between atoms: N2_6  and  C5_7 
REMARK    4  A    between atoms: N3_13  and  C10_14 
REMARK    5  A    between atoms: C12_16  and  C13_17 
ROOT
HETATM    1  C5  UNL     1      23.425   3.886  51.258  1.00  0.00     0.105 A 
HETATM    2  C6  UNL     1      22.360   4.620  50.975  1.00  0.00     0.050 A 
HETATM    3  C7  UNL     1      20.990   4.183  51.212  1.00  0.00     0.025 A 
HETATM    4  C8  UNL     1      20.792   2.985  51.738  1.00  0.00     0.030 A 
HETATM    5 CL1  UNL     1      19.220   2.295  52.095  1.00  0.00    -0.087 Cl
HETATM    6  C9  UNL     1      21.855   2.038  52.094  1.00  0.00     0.183 A 
HETATM    7  N3  UNL     1      23.171   2.602  51.859  1.00  0.00    -0.313 N 
ENDROOT
BRANCH   1   8
HETATM    8  N2  UNL     1      24.722   4.377  50.995  1.00  0.00    -0.365 N 
HETATM    9  H7  UNL     1      25.220   4.052  51.865  1.00  0.00     0.162 HD
BRANCH   8  10
HETATM   10  C4  UNL     1      25.272   5.117  49.877  1.00  0.00     0.131 C 
HETATM   11  C3  UNL     1      25.582   6.521  50.227  1.00  0.00     0.031 C 
HETATM   12  C2  UNL     1      26.405   7.439  49.773  1.00  0.00     0.025 C 
HETATM   13  C21 UNL     1      27.352   7.285  48.650  1.00  0.00     0.029 C 
HETATM   14  C20 UNL     1      27.835   6.135  48.213  1.00  0.00     0.002 C 
HETATM   15  C19 UNL     1      27.583   4.780  48.688  1.00  0.00    -0.002 C 
HETATM   16  C18 UNL     1      26.497   4.456  49.366  1.00  0.00     0.002 C 
BRANCH  12  17
HETATM   17  N1  UNL     1      26.463   8.755  50.356  1.00  0.00    -0.394 N 
HETATM   18  C1  UNL     1      27.660   9.525  50.000  1.00  0.00     0.146 C 
HETATM   19  H4  UNL     1      25.759   9.220  50.998  1.00  0.00     0.159 HD
ENDBRANCH  12  17
ENDBRANCH   8  10
ENDBRANCH   1   8
BRANCH   7  20
HETATM   20  C10 UNL     1      24.288   1.791  52.282  1.00  0.00     0.134 A 
HETATM   21  C11 UNL     1      24.737   1.151  53.349  1.00  0.00     0.083 A 
HETATM   22  C12 UNL     1      25.930   0.684  52.661  1.00  0.00     0.074 A 
HETATM   23  N5  UNL     1      25.482   1.312  51.627  1.00  0.00    -0.230 NA
BRANCH  22  24
HETATM   24  C13 UNL     1      27.119  -0.115  52.931  1.00  0.00     0.010 A 
HETATM   25  C14 UNL     1      28.282   0.525  53.308  1.00  0.00     0.017 A 
HETATM   26  C15 UNL     1      29.360  -0.314  53.544  1.00  0.00     0.020 A 
HETATM   27  C16 UNL     1      29.313  -1.697  53.421  1.00  0.00     0.116 A 
HETATM   28  N4  UNL     1      28.144  -2.254  53.049  1.00  0.00    -0.272 NA
HETATM   29  C17 UNL     1      27.059  -1.494  52.806  1.00  0.00     0.130 A 
ENDBRANCH  22  24
ENDBRANCH   7  20
TORSDOF 5
ENDMDL
MODEL 4
REMARK VINA RESULT:      -8.7      2.355      6.147
REMARK  5 active torsions:
REMARK  status: ('A' for Active; 'I' for Inactive)
REMARK    1  A    between atoms: N1_2  and  C2_3 
REMARK    2  A    between atoms: C4_5  and  N2_6 
REMARK    3  A    between atoms: N2_6  and  C5_7 
REMARK    4  A    between atoms: N3_13  and  C10_14 
REMARK    5  A    between atoms: C12_16  and  C13_17 
ROOT
HETATM    1  C5  UNL     1      23.674   0.669  52.747  1.00  0.00     0.105 A 
HETATM    2  C6  UNL     1      22.905  -0.249  53.311  1.00  0.00     0.050 A 
HETATM    3  C7  UNL     1      21.514  -0.476  52.943  1.00  0.00     0.025 A 
HETATM    4  C8  UNL     1      20.981   0.276  51.994  1.00  0.00     0.030 A 
HETATM    5 CL1  UNL     1      19.329   0.146  51.421  1.00  0.00    -0.087 Cl
HETATM    6  C9  UNL     1      21.684   1.348  51.280  1.00  0.00     0.183 A 
HETATM    7  N3  UNL     1      23.070   1.446  51.695  1.00  0.00    -0.313 N 
ENDROOT
BRANCH   1   8
HETATM    8  N2  UNL     1      25.014   0.832  53.161  1.00  0.00    -0.365 N 
HETATM    9  H7  UNL     1      24.880   1.521  53.947  1.00  0.00     0.162 HD
BRANCH   8  10
HETATM   10  C4  UNL     1      26.254   0.253  52.687  1.00  0.00     0.131 C 
HETATM   11  C3  UNL     1      27.417   0.655  53.509  1.00  0.00     0.031 C 
HETATM   12  C2  UNL     1      28.600   0.148  53.768  1.00  0.00     0.025 C 
HETATM   13  C21 UNL     1      29.145  -1.117  53.234  1.00  0.00     0.029 C 
HETATM   14  C20 UNL     1      28.422  -2.128  52.783  1.00  0.00     0.002 C 
HETATM   15  C19 UNL     1      26.974  -2.268  52.693  1.00  0.00    -0.002 C 
HETATM   16  C18 UNL     1      26.161  -1.227  52.659  1.00  0.00     0.002 C 
BRANCH  12  17
HETATM   17  N1  UNL     1      29.531   0.814  54.643  1.00  0.00    -0.394 N 
HETATM   18  C1  UNL     1      29.633   2.262  54.433  1.00  0.00     0.146 C 
HETATM   19  H4  UNL     1      30.137   0.389  55.403  1.00  0.00     0.159 HD
ENDBRANCH  12  17
ENDBRANCH   8  10
ENDBRANCH   1   8
BRANCH   7  20
HETATM   20  C10 UNL     1      23.879   2.398  50.972  1.00  0.00     0.134 A 
HETATM   21  C11 UNL     1      24.016   2.905  49.757  1.00  0.00     0.083 A 
HETATM   22  C12 UNL     1      25.119   3.763  50.158  1.00  0.00     0.074 A 
HETATM   23  N5  UNL     1      24.976   3.262  51.337  1.00  0.00    -0.230 NA
BRANCH  22  24
HETATM   24  C13 UNL     1      26.019   4.751  49.573  1.00  0.00     0.010 A 
HETATM   25  C14 UNL     1      27.196   4.322  48.995  1.00  0.00     0.017 A 
HETATM   26  C15 UNL     1      27.987   5.330  48.465  1.00  0.00     0.020 A 
HETATM   27  C16 UNL     1      27.655   6.678  48.494  1.00  0.00     0.116 A 
HETATM   28  N4  UNL     1      26.489   7.025  49.074  1.00  0.00    -0.272 NA
HETATM   29  C17 UNL     1      25.676   6.093  49.607  1.00  0.00     0.130 A 
ENDBRANCH  22  24
ENDBRANCH   7  20
TORSDOF 5
ENDMDL
MODEL 5
REMARK VINA RESULT:      -8.6      1.574      6.134
REMARK  5 active torsions:
REMARK  status: ('A' for Active; 'I' for Inactive)
REMARK    1  A    between atoms: N1_2  and  C2_3 
REMARK    2  A    between atoms: C4_5  and  N2_6 
REMARK    3  A    between atoms: N2_6  and  C5_7 
REMARK    4  A    between atoms: N3_13  and  C10_14 
REMARK    5  A    between atoms: C12_16  and  C13_17 
ROOT
HETATM    1  C5  UNL     1      22.381   3.318  51.439  1.00  0.00     0.105 A 
HETATM    2  C6  UNL     1      21.430   4.172  51.096  1.00  0.00     0.050 A 
HETATM    3  C7  UNL     1      21.658   5.596  50.885  1.00  0.00     0.025 A 
HETATM    4  C8  UNL     1      22.884   6.069  51.046  1.00  0.00     0.030 A 
HETATM    5 CL1  UNL     1      23.347   7.747  50.835  1.00  0.00    -0.087 Cl
HETATM    6  C9  UNL     1      24.048   5.267  51.441  1.00  0.00     0.183 A 
HETATM    7  N3  UNL     1      23.708   3.863  51.573  1.00  0.00    -0.313 N 
ENDROOT
BRANCH   1   8
HETATM    8  N2  UNL     1      22.080   1.952  51.629  1.00  0.00    -0.365 N 
HETATM    9  H7  UNL     1      22.199   1.600  50.643  1.00  0.00     0.162 HD
BRANCH   8  10
HETATM   10  C4  UNL     1      21.709   1.194  52.807  1.00  0.00     0.131 C 
HETATM   11  C3  UNL     1      20.373   0.570  52.680  1.00  0.00     0.031 C 
HETATM   12  C2  UNL     1      19.771  -0.468  53.214  1.00  0.00     0.025 C 
HETATM   13  C21 UNL     1      20.345  -1.396  54.209  1.00  0.00     0.029 C 
HETATM   14  C20 UNL     1      21.637  -1.605  54.399  1.00  0.00     0.002 C 
HETATM   15  C19 UNL     1      22.784  -1.015  53.720  1.00  0.00    -0.002 C 
HETATM   16  C18 UNL     1      22.716   0.144  53.090  1.00  0.00     0.002 C 
BRANCH  12  17
HETATM   17  N1  UNL     1      18.417  -0.817  52.863  1.00  0.00    -0.394 N 
HETATM   18  C1  UNL     1      17.920  -2.040  53.502  1.00  0.00     0.146 C 
HETATM   19  H4  UNL     1      17.755  -0.306  52.213  1.00  0.00     0.159 HD
ENDBRANCH  12  17
ENDBRANCH   8  10
ENDBRANCH   1   8
BRANCH   7  20
HETATM   20  C10 UNL     1      24.808   2.971  51.849  1.00  0.00     0.134 A 
HETATM   21  C11 UNL     1      25.811   2.366  51.232  1.00  0.00     0.083 A 
HETATM   22  C12 UNL     1      26.276   1.726  52.452  1.00  0.00     0.074 A 
HETATM   23  N5  UNL     1      25.295   2.321  53.042  1.00  0.00    -0.230 NA
BRANCH  22  24
HETATM   24  C13 UNL     1      27.335   0.826  52.892  1.00  0.00     0.010 A 
HETATM   25  C14 UNL     1      28.535   1.362  53.311  1.00  0.00     0.017 A 
HETATM   26  C15 UNL     1      29.482   0.432  53.710  1.00  0.00     0.020 A 
HETATM   27  C16 UNL     1      29.277  -0.942  53.703  1.00  0.00     0.116 A 
HETATM   28  N4  UNL     1      28.080  -1.395  53.280  1.00  0.00    -0.272 NA
HETATM   29  C17 UNL     1      27.118  -0.543  52.880  1.00  0.00     0.130 A 
ENDBRANCH  22  24
ENDBRANCH   7  20
TORSDOF 5
ENDMDL
MODEL 6
REMARK VINA RESULT:      -8.6      2.188      6.028
REMARK  5 active torsions:
REMARK  status: ('A' for Active; 'I' for Inactive)
REMARK    1  A    between atoms: N1_2  and  C2_3 
REMARK    2  A    between atoms: C4_5  and  N2_6 
REMARK    3  A    between atoms: N2_6  and  C5_7 
REMARK    4  A    between atoms: N3_13  and  C10_14 
REMARK    5  A    between atoms: C12_16  and  C13_17 
ROOT
HETATM    1  C5  UNL     1      23.968   1.143  52.114  1.00  0.00     0.105 A 
HETATM    2  C6  UNL     1      23.156   0.320  52.758  1.00  0.00     0.050 A 
HETATM    3  C7  UNL     1      21.707   0.477  52.793  1.00  0.00     0.025 A 
HETATM    4  C8  UNL     1      21.167   1.498  52.148  1.00  0.00     0.030 A 
HETATM    5 CL1  UNL     1      19.450   1.844  52.078  1.00  0.00    -0.087 Cl
HETATM    6  C9  UNL     1      21.920   2.512  51.401  1.00  0.00     0.183 A 
HETATM    7  N3  UNL     1      23.341   2.224  51.396  1.00  0.00    -0.313 N 
ENDROOT
BRANCH   1   8
HETATM    8  N2  UNL     1      25.363   0.928  52.129  1.00  0.00    -0.365 N 
HETATM    9  H7  UNL     1      25.535   0.770  51.102  1.00  0.00     0.162 HD
BRANCH   8  10
HETATM   10  C4  UNL     1      26.332   0.914  53.207  1.00  0.00     0.131 C 
HETATM   11  C3  UNL     1      27.163  -0.311  53.204  1.00  0.00     0.031 C 
HETATM   12  C2  UNL     1      28.356  -0.633  53.648  1.00  0.00     0.025 C 
HETATM   13  C21 UNL     1      29.295   0.260  54.359  1.00  0.00     0.029 C 
HETATM   14  C20 UNL     1      29.292   1.580  54.288  1.00  0.00     0.002 C 
HETATM   15  C19 UNL     1      28.416   2.469  53.536  1.00  0.00    -0.002 C 
HETATM   16  C18 UNL     1      27.211   2.104  53.133  1.00  0.00     0.002 C 
BRANCH  12  17
HETATM   17  N1  UNL     1      28.892  -1.959  53.478  1.00  0.00    -0.394 N 
HETATM   18  C1  UNL     1      28.002  -2.888  52.773  1.00  0.00     0.146 C 
HETATM   19  H4  UNL     1      29.831  -2.334  53.795  1.00  0.00     0.159 HD
ENDBRANCH  12  17
ENDBRANCH   8  10
ENDBRANCH   1   8
BRANCH   7  20
HETATM   20  C10 UNL     1      24.160   3.101  50.593  1.00  0.00     0.134 A 
HETATM   21  C11 UNL     1      24.216   3.610  49.373  1.00  0.00     0.083 A 
HETATM   22  C12 UNL     1      25.436   4.348  49.655  1.00  0.00     0.074 A 
HETATM   23  N5  UNL     1      25.371   3.846  50.841  1.00  0.00    -0.230 NA
BRANCH  22  24
HETATM   24  C13 UNL     1      26.362   5.250  48.980  1.00  0.00     0.010 A 
HETATM   25  C14 UNL     1      25.923   6.507  48.616  1.00  0.00     0.017 A 
HETATM   26  C15 UNL     1      26.870   7.294  47.980  1.00  0.00     0.020 A 
HETATM   27  C16 UNL     1      28.170   6.886  47.711  1.00  0.00     0.116 A 
HETATM   28  N4  UNL     1      28.530   5.645  48.094  1.00  0.00    -0.272 NA
HETATM   29  C17 UNL     1      27.656   4.831  48.717  1.00  0.00     0.130 A 
ENDBRANCH  22  24
ENDBRANCH   7  20
TORSDOF 5
ENDMDL
MODEL 7
REMARK VINA RESULT:      -8.6      2.749      6.888
REMARK  5 active torsions:
REMARK  status: ('A' for Active; 'I' for Inactive)
REMARK    1  A    between atoms: N1_2  and  C2_3 
REMARK    2  A    between atoms: C4_5  and  N2_6 
REMARK    3  A    between atoms: N2_6  and  C5_7 
REMARK    4  A    between atoms: N3_13  and  C10_14 
REMARK    5  A    between atoms: C12_16  and  C13_17 
ROOT
HETATM    1  C5  UNL     1      21.489   1.181  51.092  1.00  0.00     0.105 A 
HETATM    2  C6  UNL     1      20.224   1.391  50.764  1.00  0.00     0.050 A 
HETATM    3  C7  UNL     1      19.098   0.742  51.423  1.00  0.00     0.025 A 
HETATM    4  C8  UNL     1      19.347  -0.110  52.405  1.00  0.00     0.030 A 
HETATM    5 CL1  UNL     1      18.125  -0.980  53.310  1.00  0.00    -0.087 Cl
HETATM    6  C9  UNL     1      20.687  -0.471  52.883  1.00  0.00     0.183 A 
HETATM    7  N3  UNL     1      21.720   0.273  52.188  1.00  0.00    -0.313 N 
ENDROOT
BRANCH   1   8
HETATM    8  N2  UNL     1      22.527   1.846  50.404  1.00  0.00    -0.365 N 
HETATM    9  H7  UNL     1      23.092   1.017  50.082  1.00  0.00     0.162 HD
BRANCH   8  10
HETATM   10  C4  UNL     1      22.794   3.250  50.171  1.00  0.00     0.131 C 
HETATM   11  C3  UNL     1      24.233   3.578  50.279  1.00  0.00     0.031 C 
HETATM   12  C2  UNL     1      25.017   4.516  49.800  1.00  0.00     0.025 C 
HETATM   13  C21 UNL     1      24.611   5.631  48.920  1.00  0.00     0.029 C 
HETATM   14  C20 UNL     1      23.544   5.635  48.139  1.00  0.00     0.002 C 
HETATM   15  C19 UNL     1      22.532   4.604  47.942  1.00  0.00    -0.002 C 
HETATM   16  C18 UNL     1      22.295   3.662  48.837  1.00  0.00     0.002 C 
BRANCH  12  17
HETATM   17  N1  UNL     1      26.425   4.551  50.106  1.00  0.00    -0.394 N 
HETATM   18  C1  UNL     1      27.302   4.599  48.931  1.00  0.00     0.146 C 
HETATM   19  H4  UNL     1      26.890   4.547  51.059  1.00  0.00     0.159 HD
ENDBRANCH  12  17
ENDBRANCH   8  10
ENDBRANCH   1   8
BRANCH   7  20
HETATM   20  C10 UNL     1      23.068   0.073  52.661  1.00  0.00     0.134 A 
HETATM   21  C11 UNL     1      23.758  -0.713  53.472  1.00  0.00     0.083 A 
HETATM   22  C12 UNL     1      25.011  -0.032  53.189  1.00  0.00     0.074 A 
HETATM   23  N5  UNL     1      24.328   0.728  52.402  1.00  0.00    -0.230 NA
BRANCH  22  24
HETATM   24  C13 UNL     1      26.417  -0.104  53.569  1.00  0.00     0.010 A 
HETATM   25  C14 UNL     1      27.258  -0.939  52.862  1.00  0.00     0.017 A 
HETATM   26  C15 UNL     1      28.575  -0.943  53.293  1.00  0.00     0.020 A 
HETATM   27  C16 UNL     1      29.051  -0.181  54.352  1.00  0.00     0.116 A 
HETATM   28  N4  UNL     1      28.174   0.612  54.998  1.00  0.00    -0.272 NA
HETATM   29  C17 UNL     1      26.880   0.662  54.627  1.00  0.00     0.130 A 
ENDBRANCH  22  24
ENDBRANCH   7  20
TORSDOF 5
ENDMDL
MODEL 8
REMARK VINA RESULT:      -8.4      2.649      6.394
REMARK  5 active torsions:
REMARK  status: ('A' for Active; 'I' for Inactive)
REMARK    1  A    between atoms: N1_2  and  C2_3 
REMARK    2  A    between atoms: C4_5  and  N2_6 
REMARK    3  A    between atoms: N2_6  and  C5_7 
REMARK    4  A    between atoms: N3_13  and  C10_14 
REMARK    5  A    between atoms: C12_16  and  C13_17 
ROOT
HETATM    1  C5  UNL     1      21.762   2.696  51.816  1.00  0.00     0.105 A 
HETATM    2  C6  UNL     1      20.620   2.176  52.238  1.00  0.00     0.050 A 
HETATM    3  C7  UNL     1      19.373   2.242  51.486  1.00  0.00     0.025 A 
HETATM    4  C8  UNL     1      19.375   2.857  50.314  1.00  0.00     0.030 A 
HETATM    5 CL1  UNL     1      17.976   3.032  49.273  1.00  0.00    -0.087 Cl
HETATM    6  C9  UNL     1      20.545   3.501  49.706  1.00  0.00     0.183 A 
HETATM    7  N3  UNL     1      21.732   3.328  50.520  1.00  0.00    -0.313 N 
ENDROOT
BRANCH   1   8
HETATM    8  N2  UNL     1      22.928   2.595  52.604  1.00  0.00    -0.365 N 
HETATM    9  H7  UNL     1      22.779   3.410  53.255  1.00  0.00     0.162 HD
BRANCH   8  10
HETATM   10  C4  UNL     1      24.041   1.668  52.576  1.00  0.00     0.131 C 
HETATM   11  C3  UNL     1      25.283   2.259  53.123  1.00  0.00     0.031 C 
HETATM   12  C2  UNL     1      26.378   1.790  53.676  1.00  0.00     0.025 C 
HETATM   13  C21 UNL     1      26.693   0.368  53.922  1.00  0.00     0.029 C 
HETATM   14  C20 UNL     1      25.801  -0.601  54.036  1.00  0.00     0.002 C 
HETATM   15  C19 UNL     1      24.347  -0.541  53.954  1.00  0.00    -0.002 C 
HETATM   16  C18 UNL     1      23.712   0.435  53.330  1.00  0.00     0.002 C 
BRANCH  12  17
HETATM   17  N1  UNL     1      27.435   2.665  54.115  1.00  0.00    -0.394 N 
HETATM   18  C1  UNL     1      28.755   2.351  53.558  1.00  0.00     0.146 C 
HETATM   19  H4  UNL     1      27.372   3.490  54.778  1.00  0.00     0.159 HD
ENDBRANCH  12  17
ENDBRANCH   8  10
ENDBRANCH   1   8
BRANCH   7  20
HETATM   20  C10 UNL     1      22.963   3.829  49.957  1.00  0.00     0.134 A 
HETATM   21  C11 UNL     1      23.624   3.852  48.810  1.00  0.00     0.083 A 
HETATM   22  C12 UNL     1      24.726   4.614  49.374  1.00  0.00     0.074 A 
HETATM   23  N5  UNL     1      24.072   4.585  50.486  1.00  0.00    -0.230 NA
BRANCH  22  24
HETATM   24  C13 UNL     1      26.002   5.183  48.958  1.00  0.00     0.010 A 
HETATM   25  C14 UNL     1      26.040   6.494  48.529  1.00  0.00     0.017 A 
HETATM   26  C15 UNL     1      27.295   6.949  48.153  1.00  0.00     0.020 A 
HETATM   27  C16 UNL     1      28.448   6.175  48.189  1.00  0.00     0.116 A 
HETATM   28  N4  UNL     1      28.336   4.903  48.619  1.00  0.00    -0.272 NA
HETATM   29  C17 UNL     1      27.146   4.401  48.999  1.00  0.00     0.130 A 
ENDBRANCH  22  24
ENDBRANCH   7  20
TORSDOF 5
ENDMDL
MODEL 9
REMARK VINA RESULT:      -8.1      2.495      5.794
REMARK  5 active torsions:
REMARK  status: ('A' for Active; 'I' for Inactive)
REMARK    1  A    between atoms: N1_2  and  C2_3 
REMARK    2  A    between atoms: C4_5  and  N2_6 
REMARK    3  A    between atoms: N2_6  and  C5_7 
REMARK    4  A    between atoms: N3_13  and  C10_14 
REMARK    5  A    between atoms: C12_16  and  C13_17 
ROOT
HETATM    1  C5  UNL     1      23.813   0.561  52.854  1.00  0.00     0.105 A 
HETATM    2  C6  UNL     1      23.483  -0.622  53.347  1.00  0.00     0.050 A 
HETATM    3  C7  UNL     1      22.108  -1.055  53.562  1.00  0.00     0.025 A 
HETATM    4  C8  UNL     1      21.128  -0.221  53.250  1.00  0.00     0.030 A 
HETATM    5 CL1  UNL     1      19.420  -0.567  53.438  1.00  0.00    -0.087 Cl
HETATM    6  C9  UNL     1      21.317   1.131  52.712  1.00  0.00     0.183 A 
HETATM    7  N3  UNL     1      22.720   1.429  52.496  1.00  0.00    -0.313 N 
ENDROOT
BRANCH   1   8
HETATM    8  N2  UNL     1      25.170   0.909  52.679  1.00  0.00    -0.365 N 
HETATM    9  H7  UNL     1      25.159   1.176  51.659  1.00  0.00     0.162 HD
BRANCH   8  10
HETATM   10  C4  UNL     1      26.295   0.919  53.590  1.00  0.00     0.131 C 
HETATM   11  C3  UNL     1      27.133  -0.294  53.468  1.00  0.00     0.031 C 
HETATM   12  C2  UNL     1      28.386  -0.596  53.722  1.00  0.00     0.025 C 
HETATM   13  C21 UNL     1      29.411   0.316  54.269  1.00  0.00     0.029 C 
HETATM   14  C20 UNL     1      29.379   1.635  54.188  1.00  0.00     0.002 C 
HETATM   15  C19 UNL     1      28.383   2.504  53.574  1.00  0.00    -0.002 C 
HETATM   16  C18 UNL     1      27.136   2.120  53.369  1.00  0.00     0.002 C 
BRANCH  12  17
HETATM   17  N1  UNL     1      28.907  -1.918  53.481  1.00  0.00    -0.394 N 
HETATM   18  C1  UNL     1      27.994  -2.808  52.756  1.00  0.00     0.146 C 
HETATM   19  H4  UNL     1      29.850  -2.312  53.760  1.00  0.00     0.159 HD
ENDBRANCH  12  17
ENDBRANCH   8  10
ENDBRANCH   1   8
BRANCH   7  20
HETATM   20  C10 UNL     1      23.006   2.694  51.863  1.00  0.00     0.134 A 
HETATM   21  C11 UNL     1      22.382   3.738  51.342  1.00  0.00     0.083 A 
HETATM   22  C12 UNL     1      23.626   4.410  51.006  1.00  0.00     0.074 A 
HETATM   23  N5  UNL     1      24.224   3.387  51.516  1.00  0.00    -0.230 NA
BRANCH  22  24
HETATM   24  C13 UNL     1      24.079   5.650  50.386  1.00  0.00     0.010 A 
HETATM   25  C14 UNL     1      24.059   6.813  51.127  1.00  0.00     0.017 A 
HETATM   26  C15 UNL     1      24.506   7.941  50.457  1.00  0.00     0.020 A 
HETATM   27  C16 UNL     1      24.948   7.941  49.140  1.00  0.00     0.116 A 
HETATM   28  N4  UNL     1      24.941   6.768  48.476  1.00  0.00    -0.272 NA
HETATM   29  C17 UNL     1      24.518   5.636  49.071  1.00  0.00     0.130 A 
ENDBRANCH  22  24
ENDBRANCH   7  20
TORSDOF 5
ENDMDL
