MODEL 1
REMARK VINA RESULT:      -8.9      0.000      0.000
REMARK  6 active torsions:
REMARK  status: ('A' for Active; 'I' for Inactive)
REMARK    1  A    between atoms: O1_2  and  C2_3 
REMARK    2  A    between atoms: C6_7  and  N1_8 
REMARK    3  A    between atoms: N1_8  and  C7_9 
REMARK    4  A    between atoms: C11_13  and  N2_14 
REMARK    5  A    between atoms: N2_14  and  C12_15 
REMARK    6  A    between atoms: C15_19  and  C16_20 
ROOT
HETATM    1  C7  UNL     1      23.002   3.434  49.181  1.00  0.00     0.034 A 
HETATM    2  C8  UNL     1      22.594   2.550  48.210  1.00  0.00     0.029 A 
HETATM    3  C9  UNL     1      21.877   1.361  48.427  1.00  0.00     0.004 A 
HETATM    4  C10 UNL     1      21.626   1.196  49.792  1.00  0.00     0.030 A 
HETATM    5  C11 UNL     1      21.983   2.002  50.827  1.00  0.00     0.051 A 
HETATM    6  C21 UNL     1      22.681   3.127  50.483  1.00  0.00     0.059 A 
ENDROOT
BRANCH   5   7
HETATM    7  N2  UNL     1      21.670   1.747  52.183  1.00  0.00    -0.188 N 
HETATM    8  H10 UNL     1      20.963   2.349  52.666  1.00  0.00     0.184 HD
BRANCH   7   9
HETATM    9  C12 UNL     1      22.155   0.784  53.066  1.00  0.00     0.727 A 
HETATM   10  N3  UNL     1      21.347   0.043  53.891  1.00  0.00    -0.075 NA
HETATM   11  C13 UNL     1      21.937  -0.869  54.713  1.00  0.00     0.139 A 
HETATM   12  C14 UNL     1      23.311  -1.012  54.685  1.00  0.00     0.053 A 
HETATM   13  C15 UNL     1      24.132  -0.266  53.849  1.00  0.00     0.089 A 
HETATM   14  N5  UNL     1      23.480   0.612  53.071  1.00  0.00    -0.062 NA
BRANCH  13  15
HETATM   15  C16 UNL     1      25.578  -0.402  53.806  1.00  0.00     0.011 A 
HETATM   16  C17 UNL     1      26.285  -0.911  52.749  1.00  0.00     0.017 A 
HETATM   17  C18 UNL     1      27.654  -1.031  52.742  1.00  0.00     0.020 A 
HETATM   18  C19 UNL     1      28.263  -0.592  53.903  1.00  0.00     0.116 A 
HETATM   19  N4  UNL     1      27.624  -0.078  54.985  1.00  0.00    -0.272 NA
HETATM   20  C20 UNL     1      26.267   0.022  54.944  1.00  0.00     0.130 A 
ENDBRANCH  13  15
ENDBRANCH   7   9
ENDBRANCH   5   7
BRANCH   1  21
HETATM   21  N1  UNL     1      23.694   4.634  48.978  1.00  0.00    -0.358 N 
HETATM   22  H6  UNL     1      22.982   5.267  48.531  1.00  0.00     0.166 HD
BRANCH  21  23
HETATM   23  C6  UNL     1      25.062   4.815  49.349  1.00  0.00     0.027 C 
HETATM   24  C5  UNL     1      26.070   4.010  49.293  1.00  0.00    -0.001 C 
HETATM   25  C4  UNL     1      27.261   4.394  48.943  1.00  0.00     0.017 C 
HETATM   26  C3  UNL     1      27.415   5.796  48.566  1.00  0.00     0.033 C 
HETATM   27  C2  UNL     1      26.547   6.666  49.038  1.00  0.00     0.051 C 
HETATM   28  C22 UNL     1      25.476   6.141  49.920  1.00  0.00     0.122 C 
BRANCH  27  29
HETATM   29  O1  UNL     1      26.521   8.030  48.799  1.00  0.00    -0.360 OA
HETATM   30  C1  UNL     1      26.199   8.970  49.821  1.00  0.00     0.209 C 
ENDBRANCH  27  29
ENDBRANCH  21  23
ENDBRANCH   1  21
TORSDOF 6
ENDMDL
MODEL 2
REMARK VINA RESULT:      -8.8      2.778      7.001
REMARK  6 active torsions:
REMARK  status: ('A' for Active; 'I' for Inactive)
REMARK    1  A    between atoms: O1_2  and  C2_3 
REMARK    2  A    between atoms: C6_7  and  N1_8 
REMARK    3  A    between atoms: N1_8  and  C7_9 
REMARK    4  A    between atoms: C11_13  and  N2_14 
REMARK    5  A    between atoms: N2_14  and  C12_15 
REMARK    6  A    between atoms: C15_19  and  C16_20 
ROOT
HETATM    1  C7  UNL     1      24.459   0.411  53.613  1.00  0.00     0.034 A 
HETATM    2  C8  UNL     1      23.526  -0.576  53.826  1.00  0.00     0.029 A 
HETATM    3  C9  UNL     1      22.334  -0.752  53.102  1.00  0.00     0.004 A 
HETATM    4  C10 UNL     1      22.224   0.229  52.114  1.00  0.00     0.030 A 
HETATM    5  C11 UNL     1      23.081   1.243  51.822  1.00  0.00     0.051 A 
HETATM    6  C21 UNL     1      24.204   1.308  52.602  1.00  0.00     0.059 A 
ENDROOT
BRANCH   5   7
HETATM    7  N2  UNL     1      22.881   2.187  50.788  1.00  0.00    -0.188 N 
HETATM    8  H10 UNL     1      22.461   1.873  49.883  1.00  0.00     0.184 HD
BRANCH   7   9
HETATM    9  C12 UNL     1      23.154   3.553  50.733  1.00  0.00     0.727 A 
HETATM   10  N3  UNL     1      22.312   4.511  51.237  1.00  0.00    -0.075 NA
HETATM   11  C13 UNL     1      22.687   5.816  51.124  1.00  0.00     0.139 A 
HETATM   12  C14 UNL     1      23.887   6.122  50.513  1.00  0.00     0.053 A 
HETATM   13  C15 UNL     1      24.743   5.154  50.003  1.00  0.00     0.089 A 
HETATM   14  N5  UNL     1      24.307   3.893  50.150  1.00  0.00    -0.062 NA
BRANCH  13  15
HETATM   15  C16 UNL     1      26.009   5.456  49.357  1.00  0.00     0.011 A 
HETATM   16  C17 UNL     1      26.375   6.691  48.891  1.00  0.00     0.017 A 
HETATM   17  C18 UNL     1      27.580   6.942  48.279  1.00  0.00     0.020 A 
HETATM   18  C19 UNL     1      28.398   5.833  48.170  1.00  0.00     0.116 A 
HETATM   19  N4  UNL     1      28.098   4.584  48.609  1.00  0.00    -0.272 NA
HETATM   20  C20 UNL     1      26.893   4.385  49.211  1.00  0.00     0.130 A 
ENDBRANCH  13  15
ENDBRANCH   7   9
ENDBRANCH   5   7
BRANCH   1  21
HETATM   21  N1  UNL     1      25.661   0.585  54.309  1.00  0.00    -0.358 N 
HETATM   22  H6  UNL     1      25.389   0.476  55.320  1.00  0.00     0.166 HD
BRANCH  21  23
HETATM   23  C6  UNL     1      26.907   0.842  53.658  1.00  0.00     0.027 C 
HETATM   24  C5  UNL     1      27.626   1.912  53.595  1.00  0.00    -0.001 C 
HETATM   25  C4  UNL     1      28.923   1.895  53.661  1.00  0.00     0.017 C 
HETATM   26  C3  UNL     1      29.555   0.593  53.854  1.00  0.00     0.033 C 
HETATM   27  C2  UNL     1      28.893  -0.481  53.478  1.00  0.00     0.051 C 
HETATM   28  C22 UNL     1      27.550  -0.273  52.884  1.00  0.00     0.122 C 
BRANCH  27  29
HETATM   29  O1  UNL     1      29.315  -1.796  53.576  1.00  0.00    -0.360 OA
HETATM   30  C1  UNL     1      28.550  -2.878  53.049  1.00  0.00     0.209 C 
ENDBRANCH  27  29
ENDBRANCH  21  23
ENDBRANCH   1  21
TORSDOF 6
ENDMDL
MODEL 3
REMARK VINA RESULT:      -8.8      1.962      5.181
REMARK  6 active torsions:
REMARK  status: ('A' for Active; 'I' for Inactive)
REMARK    1  A    between atoms: O1_2  and  C2_3 
REMARK    2  A    between atoms: C6_7  and  N1_8 
REMARK    3  A    between atoms: N1_8  and  C7_9 
REMARK    4  A    between atoms: C11_13  and  N2_14 
REMARK    5  A    between atoms: N2_14  and  C12_15 
REMARK    6  A    between atoms: C15_19  and  C16_20 
ROOT
HETATM    1  C7  UNL     1      25.956   1.613  52.414  1.00  0.00     0.034 A 
HETATM    2  C8  UNL     1      27.031   0.758  52.347  1.00  0.00     0.029 A 
HETATM    3  C9  UNL     1      27.022  -0.604  52.691  1.00  0.00     0.004 A 
HETATM    4  C10 UNL     1      25.746  -0.983  53.116  1.00  0.00     0.030 A 
HETATM    5  C11 UNL     1      24.623  -0.223  53.221  1.00  0.00     0.051 A 
HETATM    6  C21 UNL     1      24.765   1.089  52.858  1.00  0.00     0.059 A 
ENDROOT
BRANCH   5   7
HETATM    7  N2  UNL     1      23.368  -0.707  53.657  1.00  0.00    -0.188 N 
HETATM    8  H10 UNL     1      23.330  -1.386  54.452  1.00  0.00     0.184 HD
BRANCH   7   9
HETATM    9  C12 UNL     1      22.078  -0.438  53.202  1.00  0.00     0.727 A 
HETATM   10  N3  UNL     1      20.947  -0.791  53.894  1.00  0.00    -0.075 NA
HETATM   11  C13 UNL     1      19.739  -0.475  53.347  1.00  0.00     0.139 A 
HETATM   12  C14 UNL     1      19.700   0.180  52.132  1.00  0.00     0.053 A 
HETATM   13  C15 UNL     1      20.844   0.540  51.430  1.00  0.00     0.089 A 
HETATM   14  N5  UNL     1      21.994   0.195  52.029  1.00  0.00    -0.062 NA
BRANCH  13  15
HETATM   15  C16 UNL     1      20.822   1.229  50.151  1.00  0.00     0.011 A 
HETATM   16  C17 UNL     1      21.898   1.355  49.312  1.00  0.00     0.017 A 
HETATM   17  C18 UNL     1      21.845   2.019  48.109  1.00  0.00     0.020 A 
HETATM   18  C19 UNL     1      20.604   2.554  47.815  1.00  0.00     0.116 A 
HETATM   19  N4  UNL     1      19.500   2.465  48.600  1.00  0.00    -0.272 NA
HETATM   20  C20 UNL     1      19.601   1.796  49.782  1.00  0.00     0.130 A 
ENDBRANCH  13  15
ENDBRANCH   7   9
ENDBRANCH   5   7
BRANCH   1  21
HETATM   21  N1  UNL     1      25.944   2.966  52.052  1.00  0.00    -0.358 N 
HETATM   22  H6  UNL     1      26.245   3.466  52.928  1.00  0.00     0.166 HD
BRANCH  21  23
HETATM   23  C6  UNL     1      25.584   3.418  50.746  1.00  0.00     0.027 C 
HETATM   24  C5  UNL     1      24.523   4.016  50.317  1.00  0.00    -0.001 C 
HETATM   25  C4  UNL     1      24.559   4.972  49.438  1.00  0.00     0.017 C 
HETATM   26  C3  UNL     1      25.878   5.384  48.968  1.00  0.00     0.033 C 
HETATM   27  C2  UNL     1      26.866   4.518  49.051  1.00  0.00     0.051 C 
HETATM   28  C22 UNL     1      26.550   3.185  49.620  1.00  0.00     0.122 C 
BRANCH  27  29
HETATM   29  O1  UNL     1      28.181   4.714  48.662  1.00  0.00    -0.360 OA
HETATM   30  C1  UNL     1      28.648   5.973  48.185  1.00  0.00     0.209 C 
ENDBRANCH  27  29
ENDBRANCH  21  23
ENDBRANCH   1  21
TORSDOF 6
ENDMDL
MODEL 4
REMARK VINA RESULT:      -8.8      1.971      3.073
REMARK  6 active torsions:
REMARK  status: ('A' for Active; 'I' for Inactive)
REMARK    1  A    between atoms: O1_2  and  C2_3 
REMARK    2  A    between atoms: C6_7  and  N1_8 
REMARK    3  A    between atoms: N1_8  and  C7_9 
REMARK    4  A    between atoms: C11_13  and  N2_14 
REMARK    5  A    between atoms: N2_14  and  C12_15 
REMARK    6  A    between atoms: C15_19  and  C16_20 
ROOT
HETATM    1  C7  UNL     1      24.987   5.885  50.333  1.00  0.00     0.034 A 
HETATM    2  C8  UNL     1      23.910   6.685  50.636  1.00  0.00     0.029 A 
HETATM    3  C9  UNL     1      22.596   6.245  50.867  1.00  0.00     0.004 A 
HETATM    4  C10 UNL     1      22.529   4.855  50.749  1.00  0.00     0.030 A 
HETATM    5  C11 UNL     1      23.524   3.976  50.455  1.00  0.00     0.051 A 
HETATM    6  C21 UNL     1      24.758   4.532  50.249  1.00  0.00     0.059 A 
ENDROOT
BRANCH   5   7
HETATM    7  N2  UNL     1      23.354   2.575  50.367  1.00  0.00    -0.188 N 
HETATM    8  H10 UNL     1      23.134   2.144  49.440  1.00  0.00     0.184 HD
BRANCH   7   9
HETATM    9  C12 UNL     1      23.425   1.583  51.345  1.00  0.00     0.727 A 
HETATM   10  N3  UNL     1      22.328   0.904  51.810  1.00  0.00    -0.075 NA
HETATM   11  C13 UNL     1      22.523  -0.044  52.769  1.00  0.00     0.139 A 
HETATM   12  C14 UNL     1      23.803  -0.282  53.231  1.00  0.00     0.053 A 
HETATM   13  C15 UNL     1      24.916   0.403  52.761  1.00  0.00     0.089 A 
HETATM   14  N5  UNL     1      24.646   1.321  51.820  1.00  0.00    -0.062 NA
BRANCH  13  15
HETATM   15  C16 UNL     1      26.269   0.167  53.235  1.00  0.00     0.011 A 
HETATM   16  C17 UNL     1      27.083  -0.848  52.806  1.00  0.00     0.017 A 
HETATM   17  C18 UNL     1      28.358  -1.047  53.280  1.00  0.00     0.020 A 
HETATM   18  C19 UNL     1      28.753  -0.128  54.235  1.00  0.00     0.116 A 
HETATM   19  N4  UNL     1      27.999   0.899  54.703  1.00  0.00    -0.272 NA
HETATM   20  C20 UNL     1      26.742   1.055  54.202  1.00  0.00     0.130 A 
ENDBRANCH  13  15
ENDBRANCH   7   9
ENDBRANCH   5   7
BRANCH   1  21
HETATM   21  N1  UNL     1      26.306   6.306  50.125  1.00  0.00    -0.358 N 
HETATM   22  H6  UNL     1      26.649   6.555  51.089  1.00  0.00     0.166 HD
BRANCH  21  23
HETATM   23  C6  UNL     1      26.919   6.334  48.835  1.00  0.00     0.027 C 
HETATM   24  C5  UNL     1      26.794   7.164  47.854  1.00  0.00    -0.001 C 
HETATM   25  C4  UNL     1      27.797   7.549  47.124  1.00  0.00     0.017 C 
HETATM   26  C3  UNL     1      29.112   7.026  47.485  1.00  0.00     0.033 C 
HETATM   27  C2  UNL     1      29.169   5.892  48.150  1.00  0.00     0.051 C 
HETATM   28  C22 UNL     1      27.880   5.236  48.479  1.00  0.00     0.122 C 
BRANCH  27  29
HETATM   29  O1  UNL     1      30.309   5.237  48.582  1.00  0.00    -0.360 OA
HETATM   30  C1  UNL     1      31.575   5.426  47.954  1.00  0.00     0.209 C 
ENDBRANCH  27  29
ENDBRANCH  21  23
ENDBRANCH   1  21
TORSDOF 6
ENDMDL
MODEL 5
REMARK VINA RESULT:      -8.7      2.265      6.350
REMARK  6 active torsions:
REMARK  status: ('A' for Active; 'I' for Inactive)
REMARK    1  A    between atoms: O1_2  and  C2_3 
REMARK    2  A    between atoms: C6_7  and  N1_8 
REMARK    3  A    between atoms: N1_8  and  C7_9 
REMARK    4  A    between atoms: C11_13  and  N2_14 
REMARK    5  A    between atoms: N2_14  and  C12_15 
REMARK    6  A    between atoms: C15_19  and  C16_20 
ROOT
HETATM    1  C7  UNL     1      23.350  -0.692  54.346  1.00  0.00     0.034 A 
HETATM    2  C8  UNL     1      22.193  -1.311  54.757  1.00  0.00     0.029 A 
HETATM    3  C9  UNL     1      20.919  -1.133  54.194  1.00  0.00     0.004 A 
HETATM    4  C10 UNL     1      20.986  -0.224  53.135  1.00  0.00     0.030 A 
HETATM    5  C11 UNL     1      22.068   0.441  52.652  1.00  0.00     0.051 A 
HETATM    6  C21 UNL     1      23.251   0.183  53.289  1.00  0.00     0.059 A 
ENDROOT
BRANCH   5   7
HETATM    7  N2  UNL     1      22.033   1.341  51.561  1.00  0.00    -0.188 N 
HETATM    8  H10 UNL     1      21.747   0.990  50.618  1.00  0.00     0.184 HD
BRANCH   7   9
HETATM    9  C12 UNL     1      22.325   2.702  51.491  1.00  0.00     0.727 A 
HETATM   10  N3  UNL     1      21.522   3.675  52.031  1.00  0.00    -0.075 NA
HETATM   11  C13 UNL     1      21.913   4.974  51.897  1.00  0.00     0.139 A 
HETATM   12  C14 UNL     1      23.089   5.258  51.231  1.00  0.00     0.053 A 
HETATM   13  C15 UNL     1      23.905   4.276  50.685  1.00  0.00     0.089 A 
HETATM   14  N5  UNL     1      23.455   3.023  50.854  1.00  0.00    -0.062 NA
BRANCH  13  15
HETATM   15  C16 UNL     1      25.145   4.556  49.981  1.00  0.00     0.011 A 
HETATM   16  C17 UNL     1      25.517   5.788  49.510  1.00  0.00     0.017 A 
HETATM   17  C18 UNL     1      26.696   6.018  48.843  1.00  0.00     0.020 A 
HETATM   18  C19 UNL     1      27.482   4.891  48.683  1.00  0.00     0.116 A 
HETATM   19  N4  UNL     1      27.174   3.645  49.124  1.00  0.00    -0.272 NA
HETATM   20  C20 UNL     1      25.995   3.467  49.781  1.00  0.00     0.130 A 
ENDBRANCH  13  15
ENDBRANCH   7   9
ENDBRANCH   5   7
BRANCH   1  21
HETATM   21  N1  UNL     1      24.630  -0.878  54.881  1.00  0.00    -0.358 N 
HETATM   22  H6  UNL     1      24.460  -1.004  55.912  1.00  0.00     0.166 HD
BRANCH  21  23
HETATM   23  C6  UNL     1      25.815  -0.877  54.083  1.00  0.00     0.027 C 
HETATM   24  C5  UNL     1      26.095  -1.488  52.981  1.00  0.00    -0.001 C 
HETATM   25  C4  UNL     1      26.771  -0.933  52.019  1.00  0.00     0.017 C 
HETATM   26  C3  UNL     1      27.179   0.454  52.218  1.00  0.00     0.033 C 
HETATM   27  C2  UNL     1      27.288   0.900  53.452  1.00  0.00     0.051 C 
HETATM   28  C22 UNL     1      26.985  -0.056  54.545  1.00  0.00     0.122 C 
BRANCH  27  29
HETATM   29  O1  UNL     1      27.659   2.174  53.848  1.00  0.00    -0.360 OA
HETATM   30  C1  UNL     1      29.015   2.610  53.820  1.00  0.00     0.209 C 
ENDBRANCH  27  29
ENDBRANCH  21  23
ENDBRANCH   1  21
TORSDOF 6
ENDMDL
MODEL 6
REMARK VINA RESULT:      -8.7      2.810      5.241
REMARK  6 active torsions:
REMARK  status: ('A' for Active; 'I' for Inactive)
REMARK    1  A    between atoms: O1_2  and  C2_3 
REMARK    2  A    between atoms: C6_7  and  N1_8 
REMARK    3  A    between atoms: N1_8  and  C7_9 
REMARK    4  A    between atoms: C11_13  and  N2_14 
REMARK    5  A    between atoms: N2_14  and  C12_15 
REMARK    6  A    between atoms: C15_19  and  C16_20 
ROOT
HETATM    1  C7  UNL     1      25.956   3.926  50.587  1.00  0.00     0.034 A 
HETATM    2  C8  UNL     1      26.137   4.638  49.424  1.00  0.00     0.029 A 
HETATM    3  C9  UNL     1      25.180   5.460  48.806  1.00  0.00     0.004 A 
HETATM    4  C10 UNL     1      23.996   5.460  49.548  1.00  0.00     0.030 A 
HETATM    5  C11 UNL     1      23.714   4.797  50.701  1.00  0.00     0.051 A 
HETATM    6  C21 UNL     1      24.729   4.027  51.200  1.00  0.00     0.059 A 
ENDROOT
BRANCH   5   7
HETATM    7  N2  UNL     1      22.478   4.871  51.384  1.00  0.00    -0.188 N 
HETATM    8  H10 UNL     1      22.153   5.794  51.754  1.00  0.00     0.184 HD
BRANCH   7   9
HETATM    9  C12 UNL     1      21.540   3.884  51.683  1.00  0.00     0.727 A 
HETATM   10  N3  UNL     1      20.221   3.961  51.316  1.00  0.00    -0.075 NA
HETATM   11  C13 UNL     1      19.398   2.933  51.667  1.00  0.00     0.139 A 
HETATM   12  C14 UNL     1      19.917   1.865  52.371  1.00  0.00     0.053 A 
HETATM   13  C15 UNL     1      21.253   1.782  52.743  1.00  0.00     0.089 A 
HETATM   14  N5  UNL     1      22.001   2.831  52.364  1.00  0.00    -0.062 NA
BRANCH  13  15
HETATM   15  C16 UNL     1      21.817   0.667  53.484  1.00  0.00     0.011 A 
HETATM   16  C17 UNL     1      23.140   0.310  53.476  1.00  0.00     0.017 A 
HETATM   17  C18 UNL     1      23.640  -0.755  54.185  1.00  0.00     0.020 A 
HETATM   18  C19 UNL     1      22.687  -1.444  54.914  1.00  0.00     0.116 A 
HETATM   19  N4  UNL     1      21.364  -1.145  54.966  1.00  0.00    -0.272 NA
HETATM   20  C20 UNL     1      20.916  -0.079  54.247  1.00  0.00     0.130 A 
ENDBRANCH  13  15
ENDBRANCH   7   9
ENDBRANCH   5   7
BRANCH   1  21
HETATM   21  N1  UNL     1      26.907   3.123  51.228  1.00  0.00    -0.358 N 
HETATM   22  H6  UNL     1      27.821   3.610  51.038  1.00  0.00     0.166 HD
BRANCH  21  23
HETATM   23  C6  UNL     1      26.566   1.937  51.947  1.00  0.00     0.027 C 
HETATM   24  C5  UNL     1      26.162   0.782  51.535  1.00  0.00    -0.001 C 
HETATM   25  C4  UNL     1      26.564  -0.335  52.063  1.00  0.00     0.017 C 
HETATM   26  C3  UNL     1      27.543  -0.238  53.142  1.00  0.00     0.033 C 
HETATM   27  C2  UNL     1      27.601   0.883  53.829  1.00  0.00     0.051 C 
HETATM   28  C22 UNL     1      26.658   1.961  53.446  1.00  0.00     0.122 C 
BRANCH  27  29
HETATM   29  O1  UNL     1      28.455   1.171  54.881  1.00  0.00    -0.360 OA
HETATM   30  C1  UNL     1      29.601   2.003  54.720  1.00  0.00     0.209 C 
ENDBRANCH  27  29
ENDBRANCH  21  23
ENDBRANCH   1  21
TORSDOF 6
ENDMDL
MODEL 7
REMARK VINA RESULT:      -8.6      3.521      7.917
REMARK  6 active torsions:
REMARK  status: ('A' for Active; 'I' for Inactive)
REMARK    1  A    between atoms: O1_2  and  C2_3 
REMARK    2  A    between atoms: C6_7  and  N1_8 
REMARK    3  A    between atoms: N1_8  and  C7_9 
REMARK    4  A    between atoms: C11_13  and  N2_14 
REMARK    5  A    between atoms: N2_14  and  C12_15 
REMARK    6  A    between atoms: C15_19  and  C16_20 
ROOT
HETATM    1  C7  UNL     1      24.359   2.157  51.927  1.00  0.00     0.034 A 
HETATM    2  C8  UNL     1      23.169   2.254  51.246  1.00  0.00     0.029 A 
HETATM    3  C9  UNL     1      23.007   2.736  49.936  1.00  0.00     0.004 A 
HETATM    4  C10 UNL     1      24.245   3.108  49.406  1.00  0.00     0.030 A 
HETATM    5  C11 UNL     1      25.471   3.055  49.990  1.00  0.00     0.051 A 
HETATM    6  C21 UNL     1      25.494   2.569  51.269  1.00  0.00     0.059 A 
ENDROOT
BRANCH   5   7
HETATM    7  N2  UNL     1      26.675   3.450  49.360  1.00  0.00    -0.188 N 
HETATM    8  H10 UNL     1      27.415   2.734  49.177  1.00  0.00     0.184 HD
BRANCH   7   9
HETATM    9  C12 UNL     1      27.098   4.697  48.903  1.00  0.00     0.727 A 
HETATM   10  N3  UNL     1      26.255   5.768  48.744  1.00  0.00    -0.075 NA
HETATM   11  C13 UNL     1      26.786   6.937  48.288  1.00  0.00     0.139 A 
HETATM   12  C14 UNL     1      28.137   7.000  48.008  1.00  0.00     0.053 A 
HETATM   13  C15 UNL     1      28.994   5.919  48.170  1.00  0.00     0.089 A 
HETATM   14  N5  UNL     1      28.400   4.802  48.620  1.00  0.00    -0.062 NA
BRANCH  13  15
HETATM   15  C16 UNL     1      30.417   5.965  47.880  1.00  0.00     0.011 A 
HETATM   16  C17 UNL     1      31.173   4.890  47.494  1.00  0.00     0.017 A 
HETATM   17  C18 UNL     1      32.520   4.968  47.231  1.00  0.00     0.020 A 
HETATM   18  C19 UNL     1      33.053   6.234  47.394  1.00  0.00     0.116 A 
HETATM   19  N4  UNL     1      32.362   7.339  47.773  1.00  0.00    -0.272 NA
HETATM   20  C20 UNL     1      31.029   7.212  48.020  1.00  0.00     0.130 A 
ENDBRANCH  13  15
ENDBRANCH   7   9
ENDBRANCH   5   7
BRANCH   1  21
HETATM   21  N1  UNL     1      24.539   1.657  53.223  1.00  0.00    -0.358 N 
HETATM   22  H6  UNL     1      23.942   2.282  53.823  1.00  0.00     0.166 HD
BRANCH  21  23
HETATM   23  C6  UNL     1      25.376   0.536  53.514  1.00  0.00     0.027 C 
HETATM   24  C5  UNL     1      25.330  -0.687  53.103  1.00  0.00    -0.001 C 
HETATM   25  C4  UNL     1      26.394  -1.370  52.803  1.00  0.00     0.017 C 
HETATM   26  C3  UNL     1      27.674  -0.677  52.915  1.00  0.00     0.033 C 
HETATM   27  C2  UNL     1      27.753   0.357  53.726  1.00  0.00     0.051 C 
HETATM   28  C22 UNL     1      26.522   0.731  54.465  1.00  0.00     0.122 C 
BRANCH  27  29
HETATM   29  O1  UNL     1      28.867   1.142  53.969  1.00  0.00    -0.360 OA
HETATM   30  C1  UNL     1      28.886   2.538  53.684  1.00  0.00     0.209 C 
ENDBRANCH  27  29
ENDBRANCH  21  23
ENDBRANCH   1  21
TORSDOF 6
ENDMDL
MODEL 8
REMARK VINA RESULT:      -8.5      3.142      5.059
REMARK  6 active torsions:
REMARK  status: ('A' for Active; 'I' for Inactive)
REMARK    1  A    between atoms: O1_2  and  C2_3 
REMARK    2  A    between atoms: C6_7  and  N1_8 
REMARK    3  A    between atoms: N1_8  and  C7_9 
REMARK    4  A    between atoms: C11_13  and  N2_14 
REMARK    5  A    between atoms: N2_14  and  C12_15 
REMARK    6  A    between atoms: C15_19  and  C16_20 
ROOT
HETATM    1  C7  UNL     1      27.544   6.511  48.368  1.00  0.00     0.034 A 
HETATM    2  C8  UNL     1      26.747   7.444  48.989  1.00  0.00     0.029 A 
HETATM    3  C9  UNL     1      25.717   7.169  49.903  1.00  0.00     0.004 A 
HETATM    4  C10 UNL     1      25.609   5.791  50.104  1.00  0.00     0.030 A 
HETATM    5  C11 UNL     1      26.339   4.790  49.544  1.00  0.00     0.051 A 
HETATM    6  C21 UNL     1      27.311   5.189  48.667  1.00  0.00     0.059 A 
ENDROOT
BRANCH   5   7
HETATM    7  N2  UNL     1      26.156   3.415  49.822  1.00  0.00    -0.188 N 
HETATM    8  H10 UNL     1      26.261   2.719  49.048  1.00  0.00     0.184 HD
BRANCH   7   9
HETATM    9  C12 UNL     1      25.838   2.758  51.010  1.00  0.00     0.727 A 
HETATM   10  N3  UNL     1      24.757   3.088  51.787  1.00  0.00    -0.075 NA
HETATM   11  C13 UNL     1      24.549   2.374  52.930  1.00  0.00     0.139 A 
HETATM   12  C14 UNL     1      25.424   1.357  53.257  1.00  0.00     0.053 A 
HETATM   13  C15 UNL     1      26.519   1.019  52.471  1.00  0.00     0.089 A 
HETATM   14  N5  UNL     1      26.659   1.766  51.365  1.00  0.00    -0.062 NA
BRANCH  13  15
HETATM   15  C16 UNL     1      27.450  -0.046  52.799  1.00  0.00     0.011 A 
HETATM   16  C17 UNL     1      28.737   0.143  53.230  1.00  0.00     0.017 A 
HETATM   17  C18 UNL     1      29.595  -0.888  53.528  1.00  0.00     0.020 A 
HETATM   18  C19 UNL     1      29.046  -2.145  53.352  1.00  0.00     0.116 A 
HETATM   19  N4  UNL     1      27.782  -2.404  52.930  1.00  0.00    -0.272 NA
HETATM   20  C20 UNL     1      26.968  -1.348  52.649  1.00  0.00     0.130 A 
ENDBRANCH  13  15
ENDBRANCH   7   9
ENDBRANCH   5   7
BRANCH   1  21
HETATM   21  N1  UNL     1      28.590   6.771  47.475  1.00  0.00    -0.358 N 
HETATM   22  H6  UNL     1      28.134   6.718  46.527  1.00  0.00     0.166 HD
BRANCH  21  23
HETATM   23  C6  UNL     1      29.928   7.035  47.899  1.00  0.00     0.027 C 
HETATM   24  C5  UNL     1      30.402   7.927  48.704  1.00  0.00    -0.001 C 
HETATM   25  C4  UNL     1      31.355   7.676  49.551  1.00  0.00     0.017 C 
HETATM   26  C3  UNL     1      31.858   6.306  49.589  1.00  0.00     0.033 C 
HETATM   27  C2  UNL     1      31.706   5.558  48.517  1.00  0.00     0.051 C 
HETATM   28  C22 UNL     1      31.033   6.178  47.350  1.00  0.00     0.122 C 
BRANCH  27  29
HETATM   29  O1  UNL     1      32.110   4.244  48.354  1.00  0.00    -0.360 OA
HETATM   30  C1  UNL     1      32.416   3.699  47.073  1.00  0.00     0.209 C 
ENDBRANCH  27  29
ENDBRANCH  21  23
ENDBRANCH   1  21
TORSDOF 6
ENDMDL
MODEL 9
REMARK VINA RESULT:      -8.5      2.225      6.768
REMARK  6 active torsions:
REMARK  status: ('A' for Active; 'I' for Inactive)
REMARK    1  A    between atoms: O1_2  and  C2_3 
REMARK    2  A    between atoms: C6_7  and  N1_8 
REMARK    3  A    between atoms: N1_8  and  C7_9 
REMARK    4  A    between atoms: C11_13  and  N2_14 
REMARK    5  A    between atoms: N2_14  and  C12_15 
REMARK    6  A    between atoms: C15_19  and  C16_20 
ROOT
HETATM    1  C7  UNL     1      22.973   0.565  52.668  1.00  0.00     0.034 A 
HETATM    2  C8  UNL     1      21.763  -0.004  52.350  1.00  0.00     0.029 A 
HETATM    3  C9  UNL     1      21.018   0.242  51.184  1.00  0.00     0.004 A 
HETATM    4  C10 UNL     1      21.689   1.160  50.372  1.00  0.00     0.030 A 
HETATM    5  C11 UNL     1      22.880   1.779  50.591  1.00  0.00     0.051 A 
HETATM    6  C21 UNL     1      23.504   1.456  51.765  1.00  0.00     0.059 A 
ENDROOT
BRANCH   5   7
HETATM    7  N2  UNL     1      23.482   2.693  49.696  1.00  0.00    -0.188 N 
HETATM    8  H10 UNL     1      23.702   2.384  48.721  1.00  0.00     0.184 HD
BRANCH   7   9
HETATM    9  C12 UNL     1      23.869   4.021  49.870  1.00  0.00     0.727 A 
HETATM   10  N3  UNL     1      23.103   4.948  50.530  1.00  0.00    -0.075 NA
HETATM   11  C13 UNL     1      23.587   6.218  50.636  1.00  0.00     0.139 A 
HETATM   12  C14 UNL     1      24.815   6.520  50.082  1.00  0.00     0.053 A 
HETATM   13  C15 UNL     1      25.593   5.583  49.414  1.00  0.00     0.089 A 
HETATM   14  N5  UNL     1      25.052   4.356  49.349  1.00  0.00    -0.062 NA
BRANCH  13  15
HETATM   15  C16 UNL     1      26.887   5.882  48.824  1.00  0.00     0.011 A 
HETATM   16  C17 UNL     1      27.256   7.101  48.321  1.00  0.00     0.017 A 
HETATM   17  C18 UNL     1      28.488   7.349  47.765  1.00  0.00     0.020 A 
HETATM   18  C19 UNL     1      29.331   6.253  47.753  1.00  0.00     0.116 A 
HETATM   19  N4  UNL     1      29.030   5.020  48.233  1.00  0.00    -0.272 NA
HETATM   20  C20 UNL     1      27.797   4.824  48.777  1.00  0.00     0.130 A 
ENDBRANCH  13  15
ENDBRANCH   7   9
ENDBRANCH   5   7
BRANCH   1  21
HETATM   21  N1  UNL     1      23.738   0.310  53.813  1.00  0.00    -0.358 N 
HETATM   22  H6  UNL     1      23.092   0.549  54.609  1.00  0.00     0.166 HD
BRANCH  21  23
HETATM   23  C6  UNL     1      25.083  -0.168  53.760  1.00  0.00     0.027 C 
HETATM   24  C5  UNL     1      25.572  -1.279  53.320  1.00  0.00    -0.001 C 
HETATM   25  C4  UNL     1      26.688  -1.346  52.658  1.00  0.00     0.017 C 
HETATM   26  C3  UNL     1      27.369  -0.082  52.389  1.00  0.00     0.033 C 
HETATM   27  C2  UNL     1      27.127   0.937  53.186  1.00  0.00     0.051 C 
HETATM   28  C22 UNL     1      26.174   0.712  54.301  1.00  0.00     0.122 C 
BRANCH  27  29
HETATM   29  O1  UNL     1      27.668   2.208  53.099  1.00  0.00    -0.360 OA
HETATM   30  C1  UNL     1      28.924   2.538  53.688  1.00  0.00     0.209 C 
ENDBRANCH  27  29
ENDBRANCH  21  23
ENDBRANCH   1  21
TORSDOF 6
ENDMDL
