MODEL 1
REMARK VINA RESULT:      -7.8      0.000      0.000
REMARK  5 active torsions:
REMARK  status: ('A' for Active; 'I' for Inactive)
REMARK    1  A    between atoms: C1_2  and  C2_3 
REMARK    2  A    between atoms: C1_2  and  C3_5 
REMARK    3  A    between atoms: C6_8  and  C7_9 
REMARK    4  A    between atoms: C10_13  and  C11_14 
REMARK    5  A    between atoms: C11_14  and  C12_15 
ROOT
HETATM    1  C7  UNL     1      25.310   3.875  49.779  1.00  0.00     0.156 A 
HETATM    2  N1  UNL     1      24.095   3.655  49.246  1.00  0.00    -0.241 NA
HETATM    3  C8  UNL     1      23.249   2.764  49.795  1.00  0.00     0.121 A 
HETATM    4  C9  UNL     1      23.699   2.097  50.929  1.00  0.00     0.051 A 
HETATM    5  C10 UNL     1      24.942   2.293  51.509  1.00  0.00     0.062 A 
HETATM    6  N4  UNL     1      25.694   3.203  50.873  1.00  0.00    -0.229 NA
ENDROOT
BRANCH   1   7
HETATM    7  C6  UNL     1      26.209   4.841  49.170  1.00  0.00    -0.006 A 
HETATM    8  C5  UNL     1      25.834   6.210  48.704  1.00  0.00     0.070 A 
HETATM    9  C4  UNL     1      27.109   6.726  48.190  1.00  0.00    -0.007 A 
HETATM   10  C3  UNL     1      28.021   5.789  48.352  1.00  0.00     0.008 A 
HETATM   11  C16 UNL     1      27.475   4.592  48.968  1.00  0.00     0.026 A 
BRANCH  10  12
HETATM   12  C1  UNL     1      29.392   5.965  47.953  1.00  0.00     0.169 C 
HETATM   13  O1  UNL     1      30.147   4.943  47.930  1.00  0.00    -0.292 OA
BRANCH  12  14
HETATM   14  C2  UNL     1      30.304   7.028  47.522  1.00  0.00     0.169 C 
HETATM   15 BR1  UNL     1      31.170   7.892  49.006  1.00  0.00    -0.088 Br
ENDBRANCH  12  14
ENDBRANCH  10  12
ENDBRANCH   1   7
BRANCH   5  16
HETATM   16  C11 UNL     1      25.386   1.567  52.686  1.00  0.00     0.061 C 
BRANCH  16  17
HETATM   17  C12 UNL     1      26.531   1.463  53.304  1.00  0.00     0.036 A 
HETATM   18  C13 UNL     1      26.943   0.392  54.200  1.00  0.00     0.049 A 
HETATM   19  C14 UNL     1      28.099   0.315  54.819  1.00  0.00     0.120 A 
HETATM   20  N2  UNL     1      29.033   1.359  54.599  1.00  0.00    -0.256 NA
HETATM   21  C15 UNL     1      28.750   2.361  53.811  1.00  0.00     0.207 A 
HETATM   22  N3  UNL     1      27.514   2.465  53.137  1.00  0.00    -0.351 N 
HETATM   23  H12 UNL     1      27.360   3.296  52.522  1.00  0.00     0.166 HD
ENDBRANCH  16  17
ENDBRANCH   5  16
TORSDOF 5
ENDMDL
MODEL 2
REMARK VINA RESULT:      -7.7      3.710      7.051
REMARK  5 active torsions:
REMARK  status: ('A' for Active; 'I' for Inactive)
REMARK    1  A    between atoms: C1_2  and  C2_3 
REMARK    2  A    between atoms: C1_2  and  C3_5 
REMARK    3  A    between atoms: C6_8  and  C7_9 
REMARK    4  A    between atoms: C10_13  and  C11_14 
REMARK    5  A    between atoms: C11_14  and  C12_15 
ROOT
HETATM    1  C7  UNL     1      25.707   3.270  50.797  1.00  0.00     0.156 A 
HETATM    2  N1  UNL     1      24.572   3.965  50.602  1.00  0.00    -0.241 NA
HETATM    3  C8  UNL     1      24.522   4.975  49.715  1.00  0.00     0.121 A 
HETATM    4  C9  UNL     1      25.696   5.252  49.023  1.00  0.00     0.051 A 
HETATM    5  C10 UNL     1      26.886   4.563  49.194  1.00  0.00     0.062 A 
HETATM    6  N4  UNL     1      26.811   3.580  50.104  1.00  0.00    -0.229 NA
ENDROOT
BRANCH   1   7
HETATM    7  C6  UNL     1      25.738   2.183  51.761  1.00  0.00    -0.006 A 
HETATM    8  C5  UNL     1      24.685   1.138  51.934  1.00  0.00     0.070 A 
HETATM    9  C4  UNL     1      25.233   0.317  53.021  1.00  0.00    -0.007 A 
HETATM   10  C3  UNL     1      26.392   0.835  53.377  1.00  0.00     0.008 A 
HETATM   11  C16 UNL     1      26.729   2.012  52.595  1.00  0.00     0.026 A 
BRANCH  10  12
HETATM   12  C1  UNL     1      27.203   0.274  54.423  1.00  0.00     0.169 C 
HETATM   13  O1  UNL     1      26.622  -0.357  55.362  1.00  0.00    -0.292 OA
BRANCH  12  14
HETATM   14  C2  UNL     1      28.611   0.173  54.814  1.00  0.00     0.169 C 
HETATM   15 BR1  UNL     1      29.652  -0.829  53.543  1.00  0.00    -0.088 Br
ENDBRANCH  12  14
ENDBRANCH  10  12
ENDBRANCH   1   7
BRANCH   5  16
HETATM   16  C11 UNL     1      28.099   4.889  48.466  1.00  0.00     0.061 C 
BRANCH  16  17
HETATM   17  C12 UNL     1      28.801   5.980  48.322  1.00  0.00     0.036 A 
HETATM   18  C13 UNL     1      28.497   7.103  47.446  1.00  0.00     0.049 A 
HETATM   19  C14 UNL     1      29.225   8.188  47.313  1.00  0.00     0.120 A 
HETATM   20  N2  UNL     1      30.410   8.283  48.086  1.00  0.00    -0.256 NA
HETATM   21  C15 UNL     1      30.763   7.325  48.898  1.00  0.00     0.207 A 
HETATM   22  N3  UNL     1      29.997   6.150  49.058  1.00  0.00    -0.351 N 
HETATM   23  H12 UNL     1      30.342   5.426  49.728  1.00  0.00     0.166 HD
ENDBRANCH  16  17
ENDBRANCH   5  16
TORSDOF 5
ENDMDL
MODEL 3
REMARK VINA RESULT:      -7.6      2.034      3.109
REMARK  5 active torsions:
REMARK  status: ('A' for Active; 'I' for Inactive)
REMARK    1  A    between atoms: C1_2  and  C2_3 
REMARK    2  A    between atoms: C1_2  and  C3_5 
REMARK    3  A    between atoms: C6_8  and  C7_9 
REMARK    4  A    between atoms: C10_13  and  C11_14 
REMARK    5  A    between atoms: C11_14  and  C12_15 
ROOT
HETATM    1  C7  UNL     1      23.946   1.658  51.584  1.00  0.00     0.156 A 
HETATM    2  N1  UNL     1      22.651   1.370  51.804  1.00  0.00    -0.241 NA
HETATM    3  C8  UNL     1      22.295   0.400  52.665  1.00  0.00     0.121 A 
HETATM    4  C9  UNL     1      23.330  -0.275  53.303  1.00  0.00     0.051 A 
HETATM    5  C10 UNL     1      24.675  -0.011  53.105  1.00  0.00     0.062 A 
HETATM    6  N4  UNL     1      24.904   0.975  52.225  1.00  0.00    -0.229 NA
ENDROOT
BRANCH   1   7
HETATM    7  C6  UNL     1      24.309   2.710  50.648  1.00  0.00    -0.006 A 
HETATM    8  C5  UNL     1      23.367   3.449  49.756  1.00  0.00     0.070 A 
HETATM    9  C4  UNL     1      24.263   4.374  49.051  1.00  0.00    -0.007 A 
HETATM   10  C3  UNL     1      25.488   4.167  49.490  1.00  0.00     0.008 A 
HETATM   11  C16 UNL     1      25.540   3.122  50.498  1.00  0.00     0.026 A 
BRANCH  10  12
HETATM   12  C1  UNL     1      26.620   4.909  49.006  1.00  0.00     0.169 C 
HETATM   13  O1  UNL     1      27.715   4.288  48.827  1.00  0.00    -0.292 OA
BRANCH  12  14
HETATM   14  C2  UNL     1      26.977   6.274  48.610  1.00  0.00     0.169 C 
HETATM   15 BR1  UNL     1      28.799   6.407  48.006  1.00  0.00    -0.088 Br
ENDBRANCH  12  14
ENDBRANCH  10  12
ENDBRANCH   1   7
BRANCH   5  16
HETATM   16  C11 UNL     1      25.732  -0.747  53.777  1.00  0.00     0.061 C 
BRANCH  16  17
HETATM   17  C12 UNL     1      27.030  -0.624  53.822  1.00  0.00     0.036 A 
HETATM   18  C13 UNL     1      27.781   0.489  54.384  1.00  0.00     0.049 A 
HETATM   19  C14 UNL     1      29.090   0.594  54.410  1.00  0.00     0.120 A 
HETATM   20  N2  UNL     1      29.845  -0.466  53.844  1.00  0.00    -0.256 NA
HETATM   21  C15 UNL     1      29.257  -1.504  53.316  1.00  0.00     0.207 A 
HETATM   22  N3  UNL     1      27.852  -1.638  53.277  1.00  0.00    -0.351 N 
HETATM   23  H12 UNL     1      27.453  -2.498  52.839  1.00  0.00     0.166 HD
ENDBRANCH  16  17
ENDBRANCH   5  16
TORSDOF 5
ENDMDL
MODEL 4
REMARK VINA RESULT:      -7.6      5.368      8.593
REMARK  5 active torsions:
REMARK  status: ('A' for Active; 'I' for Inactive)
REMARK    1  A    between atoms: C1_2  and  C2_3 
REMARK    2  A    between atoms: C1_2  and  C3_5 
REMARK    3  A    between atoms: C6_8  and  C7_9 
REMARK    4  A    between atoms: C10_13  and  C11_14 
REMARK    5  A    between atoms: C11_14  and  C12_15 
ROOT
HETATM    1  C7  UNL     1      24.773  -0.122  53.503  1.00  0.00     0.156 A 
HETATM    2  N1  UNL     1      25.730  -0.694  54.254  1.00  0.00    -0.241 NA
HETATM    3  C8  UNL     1      27.032  -0.431  54.035  1.00  0.00     0.121 A 
HETATM    4  C9  UNL     1      27.321   0.455  53.003  1.00  0.00     0.051 A 
HETATM    5  C10 UNL     1      26.366   1.065  52.206  1.00  0.00     0.062 A 
HETATM    6  N4  UNL     1      25.107   0.724  52.519  1.00  0.00    -0.229 NA
ENDROOT
BRANCH   1   7
HETATM    7  C6  UNL     1      23.373  -0.421  53.756  1.00  0.00    -0.006 A 
HETATM    8  C5  UNL     1      22.841  -1.192  54.919  1.00  0.00     0.070 A 
HETATM    9  C4  UNL     1      21.394  -1.181  54.668  1.00  0.00    -0.007 A 
HETATM   10  C3  UNL     1      21.181  -0.513  53.551  1.00  0.00     0.008 A 
HETATM   11  C16 UNL     1      22.415  -0.025  52.961  1.00  0.00     0.026 A 
BRANCH  10  12
HETATM   12  C1  UNL     1      19.865  -0.310  53.009  1.00  0.00     0.169 C 
HETATM   13  O1  UNL     1      18.898  -0.961  53.517  1.00  0.00    -0.292 OA
BRANCH  12  14
HETATM   14  C2  UNL     1      19.193   0.470  51.967  1.00  0.00     0.169 C 
HETATM   15 BR1  UNL     1      17.494  -0.284  51.472  1.00  0.00    -0.088 Br
ENDBRANCH  12  14
ENDBRANCH  10  12
ENDBRANCH   1   7
BRANCH   5  16
HETATM   16  C11 UNL     1      26.705   1.974  51.125  1.00  0.00     0.061 C 
BRANCH  16  17
HETATM   17  C12 UNL     1      26.194   3.094  50.694  1.00  0.00     0.036 A 
HETATM   18  C13 UNL     1      26.644   3.874  49.550  1.00  0.00     0.049 A 
HETATM   19  C14 UNL     1      26.118   5.005  49.140  1.00  0.00     0.120 A 
HETATM   20  N2  UNL     1      25.015   5.519  49.869  1.00  0.00    -0.256 NA
HETATM   21  C15 UNL     1      24.543   4.888  50.909  1.00  0.00     0.207 A 
HETATM   22  N3  UNL     1      25.093   3.671  51.368  1.00  0.00    -0.351 N 
HETATM   23  H12 UNL     1      24.661   3.223  52.208  1.00  0.00     0.166 HD
ENDBRANCH  16  17
ENDBRANCH   5  16
TORSDOF 5
ENDMDL
MODEL 5
REMARK VINA RESULT:      -7.4      4.997      7.522
REMARK  5 active torsions:
REMARK  status: ('A' for Active; 'I' for Inactive)
REMARK    1  A    between atoms: C1_2  and  C2_3 
REMARK    2  A    between atoms: C1_2  and  C3_5 
REMARK    3  A    between atoms: C6_8  and  C7_9 
REMARK    4  A    between atoms: C10_13  and  C11_14 
REMARK    5  A    between atoms: C11_14  and  C12_15 
ROOT
HETATM    1  C7  UNL     1      23.657  -0.079  53.597  1.00  0.00     0.156 A 
HETATM    2  N1  UNL     1      23.619  -0.935  54.633  1.00  0.00    -0.241 NA
HETATM    3  C8  UNL     1      22.460  -1.495  55.026  1.00  0.00     0.121 A 
HETATM    4  C9  UNL     1      21.324  -1.141  54.306  1.00  0.00     0.051 A 
HETATM    5  C10 UNL     1      21.320  -0.263  53.234  1.00  0.00     0.062 A 
HETATM    6  N4  UNL     1      22.532   0.229  52.938  1.00  0.00    -0.229 NA
ENDROOT
BRANCH   1   7
HETATM    7  C6  UNL     1      24.920   0.515  53.190  1.00  0.00    -0.006 A 
HETATM    8  C5  UNL     1      25.194   1.170  51.875  1.00  0.00     0.070 A 
HETATM    9  C4  UNL     1      26.597   1.579  52.015  1.00  0.00    -0.007 A 
HETATM   10  C3  UNL     1      27.012   1.206  53.209  1.00  0.00     0.008 A 
HETATM   11  C16 UNL     1      25.971   0.534  53.966  1.00  0.00     0.026 A 
BRANCH  10  12
HETATM   12  C1  UNL     1      28.349   1.453  53.677  1.00  0.00     0.169 C 
HETATM   13  O1  UNL     1      28.607   2.587  54.190  1.00  0.00    -0.292 OA
BRANCH  12  14
HETATM   14  C2  UNL     1      29.644   0.774  53.771  1.00  0.00     0.169 C 
HETATM   15 BR1  UNL     1      29.499  -1.121  53.475  1.00  0.00    -0.088 Br
ENDBRANCH  12  14
ENDBRANCH  10  12
ENDBRANCH   1   7
BRANCH   5  16
HETATM   16  C11 UNL     1      20.111   0.097  52.514  1.00  0.00     0.061 C 
BRANCH  16  17
HETATM   17  C12 UNL     1      19.564   1.233  52.180  1.00  0.00     0.036 A 
HETATM   18  C13 UNL     1      18.221   1.432  51.654  1.00  0.00     0.049 A 
HETATM   19  C14 UNL     1      17.695   2.588  51.316  1.00  0.00     0.120 A 
HETATM   20  N2  UNL     1      18.498   3.746  51.474  1.00  0.00    -0.256 NA
HETATM   21  C15 UNL     1      19.714   3.664  51.939  1.00  0.00     0.207 A 
HETATM   22  N3  UNL     1      20.300   2.434  52.308  1.00  0.00    -0.351 N 
HETATM   23  H12 UNL     1      21.279   2.447  52.673  1.00  0.00     0.166 HD
ENDBRANCH  16  17
ENDBRANCH   5  16
TORSDOF 5
ENDMDL
MODEL 6
REMARK VINA RESULT:      -7.4      4.350      5.854
REMARK  5 active torsions:
REMARK  status: ('A' for Active; 'I' for Inactive)
REMARK    1  A    between atoms: C1_2  and  C2_3 
REMARK    2  A    between atoms: C1_2  and  C3_5 
REMARK    3  A    between atoms: C6_8  and  C7_9 
REMARK    4  A    between atoms: C10_13  and  C11_14 
REMARK    5  A    between atoms: C11_14  and  C12_15 
ROOT
HETATM    1  C7  UNL     1      22.075  -0.078  52.732  1.00  0.00     0.156 A 
HETATM    2  N1  UNL     1      21.108  -0.603  53.505  1.00  0.00    -0.241 NA
HETATM    3  C8  UNL     1      21.404  -1.193  54.677  1.00  0.00     0.121 A 
HETATM    4  C9  UNL     1      22.747  -1.226  55.035  1.00  0.00     0.051 A 
HETATM    5  C10 UNL     1      23.774  -0.699  54.268  1.00  0.00     0.062 A 
HETATM    6  N4  UNL     1      23.355  -0.138  53.124  1.00  0.00    -0.229 NA
ENDROOT
BRANCH   1   7
HETATM    7  C6  UNL     1      21.734   0.555  51.469  1.00  0.00    -0.006 A 
HETATM    8  C5  UNL     1      20.423   0.444  50.762  1.00  0.00     0.070 A 
HETATM    9  C4  UNL     1      20.639   1.270  49.567  1.00  0.00    -0.007 A 
HETATM   10  C3  UNL     1      21.866   1.748  49.621  1.00  0.00     0.008 A 
HETATM   11  C16 UNL     1      22.574   1.310  50.811  1.00  0.00     0.026 A 
BRANCH  10  12
HETATM   12  C1  UNL     1      22.410   2.603  48.601  1.00  0.00     0.169 C 
HETATM   13  O1  UNL     1      22.570   2.122  47.435  1.00  0.00    -0.292 OA
BRANCH  12  14
HETATM   14  C2  UNL     1      22.890   3.977  48.431  1.00  0.00     0.169 C 
HETATM   15 BR1  UNL     1      24.530   4.300  49.382  1.00  0.00    -0.088 Br
ENDBRANCH  12  14
ENDBRANCH  10  12
ENDBRANCH   1   7
BRANCH   5  16
HETATM   16  C11 UNL     1      25.169  -0.765  54.664  1.00  0.00     0.061 C 
BRANCH  16  17
HETATM   17  C12 UNL     1      26.192   0.028  54.503  1.00  0.00     0.036 A 
HETATM   18  C13 UNL     1      26.183   1.347  53.885  1.00  0.00     0.049 A 
HETATM   19  C14 UNL     1      27.231   2.124  53.726  1.00  0.00     0.120 A 
HETATM   20  N2  UNL     1      28.481   1.645  54.194  1.00  0.00    -0.256 NA
HETATM   21  C15 UNL     1      28.585   0.474  54.760  1.00  0.00     0.207 A 
HETATM   22  N3  UNL     1      27.474  -0.378  54.942  1.00  0.00    -0.351 N 
HETATM   23  H12 UNL     1      27.634  -1.301  55.404  1.00  0.00     0.166 HD
ENDBRANCH  16  17
ENDBRANCH   5  16
TORSDOF 5
ENDMDL
MODEL 7
REMARK VINA RESULT:      -7.3      3.221      5.205
REMARK  5 active torsions:
REMARK  status: ('A' for Active; 'I' for Inactive)
REMARK    1  A    between atoms: C1_2  and  C2_3 
REMARK    2  A    between atoms: C1_2  and  C3_5 
REMARK    3  A    between atoms: C6_8  and  C7_9 
REMARK    4  A    between atoms: C10_13  and  C11_14 
REMARK    5  A    between atoms: C11_14  and  C12_15 
ROOT
HETATM    1  C7  UNL     1      25.311   1.447  51.795  1.00  0.00     0.156 A 
HETATM    2  N1  UNL     1      26.449   0.895  52.251  1.00  0.00    -0.241 NA
HETATM    3  C8  UNL     1      26.421  -0.119  53.135  1.00  0.00     0.121 A 
HETATM    4  C9  UNL     1      25.164  -0.555  53.541  1.00  0.00     0.051 A 
HETATM    5  C10 UNL     1      23.969  -0.014  53.097  1.00  0.00     0.062 A 
HETATM    6  N4  UNL     1      24.125   0.989  52.220  1.00  0.00    -0.229 NA
ENDROOT
BRANCH   1   7
HETATM    7  C6  UNL     1      25.364   2.542  50.841  1.00  0.00    -0.006 A 
HETATM    8  C5  UNL     1      24.190   3.160  50.154  1.00  0.00     0.070 A 
HETATM    9  C4  UNL     1      24.821   4.196  49.327  1.00  0.00    -0.007 A 
HETATM   10  C3  UNL     1      26.121   4.145  49.534  1.00  0.00     0.008 A 
HETATM   11  C16 UNL     1      26.485   3.110  50.485  1.00  0.00     0.026 A 
BRANCH  10  12
HETATM   12  C1  UNL     1      27.045   5.029  48.876  1.00  0.00     0.169 C 
HETATM   13  O1  UNL     1      28.169   4.561  48.509  1.00  0.00    -0.292 OA
BRANCH  12  14
HETATM   14  C2  UNL     1      27.142   6.426  48.443  1.00  0.00     0.169 C 
HETATM   15 BR1  UNL     1      28.875   6.849  47.723  1.00  0.00    -0.088 Br
ENDBRANCH  12  14
ENDBRANCH  10  12
ENDBRANCH   1   7
BRANCH   5  16
HETATM   16  C11 UNL     1      22.673  -0.484  53.554  1.00  0.00     0.061 C 
BRANCH  16  17
HETATM   17  C12 UNL     1      21.458  -0.378  53.088  1.00  0.00     0.036 A 
HETATM   18  C13 UNL     1      20.235  -0.836  53.732  1.00  0.00     0.049 A 
HETATM   19  C14 UNL     1      19.023  -0.725  53.238  1.00  0.00     0.120 A 
HETATM   20  N2  UNL     1      18.884  -0.106  51.970  1.00  0.00    -0.256 NA
HETATM   21  C15 UNL     1      19.925   0.336  51.319  1.00  0.00     0.207 A 
HETATM   22  N3  UNL     1      21.237   0.227  51.829  1.00  0.00    -0.351 N 
HETATM   23  H12 UNL     1      22.021   0.605  51.251  1.00  0.00     0.166 HD
ENDBRANCH  16  17
ENDBRANCH   5  16
TORSDOF 5
ENDMDL
MODEL 8
REMARK VINA RESULT:      -7.2      7.022      9.187
REMARK  5 active torsions:
REMARK  status: ('A' for Active; 'I' for Inactive)
REMARK    1  A    between atoms: C1_2  and  C2_3 
REMARK    2  A    between atoms: C1_2  and  C3_5 
REMARK    3  A    between atoms: C6_8  and  C7_9 
REMARK    4  A    between atoms: C10_13  and  C11_14 
REMARK    5  A    between atoms: C11_14  and  C12_15 
ROOT
HETATM    1  C7  UNL     1      22.248  -0.712  53.880  1.00  0.00     0.156 A 
HETATM    2  N1  UNL     1      22.353  -1.198  55.129  1.00  0.00    -0.241 NA
HETATM    3  C8  UNL     1      23.557  -1.390  55.699  1.00  0.00     0.121 A 
HETATM    4  C9  UNL     1      24.667  -1.058  54.930  1.00  0.00     0.051 A 
HETATM    5  C10 UNL     1      24.604  -0.556  53.640  1.00  0.00     0.062 A 
HETATM    6  N4  UNL     1      23.352  -0.409  53.182  1.00  0.00    -0.229 NA
ENDROOT
BRANCH   1   7
HETATM    7  C6  UNL     1      20.938  -0.513  53.284  1.00  0.00    -0.006 A 
HETATM    8  C5  UNL     1      20.618   0.431  52.171  1.00  0.00     0.070 A 
HETATM    9  C4  UNL     1      19.178   0.215  51.981  1.00  0.00    -0.007 A 
HETATM   10  C3  UNL     1      18.786  -0.696  52.848  1.00  0.00     0.008 A 
HETATM   11  C16 UNL     1      19.879  -1.169  53.680  1.00  0.00     0.026 A 
BRANCH  10  12
HETATM   12  C1  UNL     1      17.423  -1.148  52.935  1.00  0.00     0.169 C 
HETATM   13  O1  UNL     1      17.205  -2.323  53.367  1.00  0.00    -0.292 OA
BRANCH  12  14
HETATM   14  C2  UNL     1      16.066  -0.666  52.667  1.00  0.00     0.169 C 
HETATM   15 BR1  UNL     1      15.492  -1.060  50.874  1.00  0.00    -0.088 Br
ENDBRANCH  12  14
ENDBRANCH  10  12
ENDBRANCH   1   7
BRANCH   5  16
HETATM   16  C11 UNL     1      25.785  -0.234  52.859  1.00  0.00     0.061 C 
BRANCH  16  17
HETATM   17  C12 UNL     1      27.043  -0.057  53.156  1.00  0.00     0.036 A 
HETATM   18  C13 UNL     1      28.088  -1.070  53.162  1.00  0.00     0.049 A 
HETATM   19  C14 UNL     1      29.349  -0.868  53.473  1.00  0.00     0.120 A 
HETATM   20  N2  UNL     1      29.733   0.449  53.835  1.00  0.00    -0.256 NA
HETATM   21  C15 UNL     1      28.863   1.421  53.857  1.00  0.00     0.207 A 
HETATM   22  N3  UNL     1      27.504   1.227  53.527  1.00  0.00    -0.351 N 
HETATM   23  H12 UNL     1      26.867   2.055  53.567  1.00  0.00     0.166 HD
ENDBRANCH  16  17
ENDBRANCH   5  16
TORSDOF 5
ENDMDL
MODEL 9
REMARK VINA RESULT:      -7.2      7.091      9.724
REMARK  5 active torsions:
REMARK  status: ('A' for Active; 'I' for Inactive)
REMARK    1  A    between atoms: C1_2  and  C2_3 
REMARK    2  A    between atoms: C1_2  and  C3_5 
REMARK    3  A    between atoms: C6_8  and  C7_9 
REMARK    4  A    between atoms: C10_13  and  C11_14 
REMARK    5  A    between atoms: C11_14  and  C12_15 
ROOT
HETATM    1  C7  UNL     1      20.955  -0.266  52.812  1.00  0.00     0.156 A 
HETATM    2  N1  UNL     1      21.038   0.428  51.662  1.00  0.00    -0.241 NA
HETATM    3  C8  UNL     1      19.940   0.678  50.925  1.00  0.00     0.121 A 
HETATM    4  C9  UNL     1      18.736   0.185  51.416  1.00  0.00     0.051 A 
HETATM    5  C10 UNL     1      18.607  -0.533  52.593  1.00  0.00     0.062 A 
HETATM    6  N4  UNL     1      19.769  -0.719  53.239  1.00  0.00    -0.229 NA
ENDROOT
BRANCH   1   7
HETATM    7  C6  UNL     1      22.153  -0.525  53.592  1.00  0.00    -0.006 A 
HETATM    8  C5  UNL     1      22.200  -1.207  54.921  1.00  0.00     0.070 A 
HETATM    9  C4  UNL     1      23.635  -1.196  55.229  1.00  0.00    -0.007 A 
HETATM   10  C3  UNL     1      24.261  -0.606  54.230  1.00  0.00     0.008 A 
HETATM   11  C16 UNL     1      23.345  -0.175  53.188  1.00  0.00     0.026 A 
BRANCH  10  12
HETATM   12  C1  UNL     1      25.687  -0.426  54.208  1.00  0.00     0.169 C 
HETATM   13  O1  UNL     1      26.410  -1.395  53.815  1.00  0.00    -0.292 OA
BRANCH  12  14
HETATM   14  C2  UNL     1      26.690   0.597  54.514  1.00  0.00     0.169 C 
HETATM   15 BR1  UNL     1      27.231   1.581  52.952  1.00  0.00    -0.088 Br
ENDBRANCH  12  14
ENDBRANCH  10  12
ENDBRANCH   1   7
BRANCH   5  16
HETATM   16  C11 UNL     1      17.335  -1.047  53.069  1.00  0.00     0.061 C 
BRANCH  16  17
HETATM   17  C12 UNL     1      16.800  -2.236  53.111  1.00  0.00     0.036 A 
HETATM   18  C13 UNL     1      17.436  -3.462  53.574  1.00  0.00     0.049 A 
HETATM   19  C14 UNL     1      16.878  -4.651  53.598  1.00  0.00     0.120 A 
HETATM   20  N2  UNL     1      15.541  -4.759  53.135  1.00  0.00    -0.256 NA
HETATM   21  C15 UNL     1      14.892  -3.713  52.701  1.00  0.00     0.207 A 
HETATM   22  N3  UNL     1      15.471  -2.426  52.666  1.00  0.00    -0.351 N 
HETATM   23  H12 UNL     1      14.890  -1.636  52.306  1.00  0.00     0.166 HD
ENDBRANCH  16  17
ENDBRANCH   5  16
TORSDOF 5
ENDMDL
