MODEL 1
REMARK VINA RESULT:      -8.4      0.000      0.000
REMARK  5 active torsions:
REMARK  status: ('A' for Active; 'I' for Inactive)
REMARK    1  A    between atoms: C2_2  and  O1_3 
REMARK    2  A    between atoms: O1_3  and  C3_4 
REMARK    3  A    between atoms: C8_10  and  N2_11 
REMARK    4  A    between atoms: N2_11  and  P1_12 
REMARK    5  A    between atoms: C16_22  and  N3_23 
REMARK       I    between atoms: N3_23  and  C17_24 
ROOT
HETATM    1  C3  UNL     1      20.340   0.179  52.862  1.00  0.00     0.097 A 
HETATM    2  C4  UNL     1      20.759  -0.451  54.010  1.00  0.00     0.071 A 
HETATM    3  C5  UNL     1      22.092  -0.645  54.304  1.00  0.00     0.071 A 
HETATM    4  N1  UNL     1      22.467  -1.266  55.437  1.00  0.00    -0.260 NA
HETATM    5  C6  UNL     1      23.768  -1.451  55.716  1.00  0.00     0.119 A 
HETATM    6  C7  UNL     1      24.745  -0.997  54.824  1.00  0.00     0.052 A 
HETATM    7  C8  UNL     1      24.431  -0.344  53.627  1.00  0.00     0.070 A 
HETATM    8  C14 UNL     1      23.058  -0.187  53.405  1.00  0.00     0.024 A 
HETATM    9  C15 UNL     1      22.659   0.455  52.234  1.00  0.00     0.048 A 
HETATM   10  C16 UNL     1      21.299   0.639  51.960  1.00  0.00     0.069 A 
ENDROOT
BRANCH   7  11
HETATM   11  N2  UNL     1      25.416   0.104  52.720  1.00  0.00    -0.255 NA
BRANCH  11  12
HETATM   12  P1  UNL     1      26.902  -0.400  52.927  1.00  0.00     0.056 P 
HETATM   13  C9  UNL     1      28.017   0.620  53.478  1.00  0.00     0.063 A 
HETATM   14 CL1  UNL     1      27.709   2.345  53.731  1.00  0.00    -0.082 Cl
HETATM   15  C10 UNL     1      29.359   0.188  53.804  1.00  0.00     0.064 A 
HETATM   16  C11 UNL     1      29.601  -1.098  53.616  1.00  0.00     0.096 A 
HETATM   17  F1  UNL     1      30.888  -1.495  53.932  1.00  0.00    -0.211 F 
HETATM   18  C12 UNL     1      28.869  -2.276  53.145  1.00  0.00     0.077 A 
HETATM   19  C13 UNL     1      27.452  -2.104  52.754  1.00  0.00     0.071 A 
ENDBRANCH  11  12
ENDBRANCH   7  11
BRANCH  10  20
HETATM   20  N3  UNL     1      21.056   1.316  50.716  1.00  0.00    -0.325 N 
HETATM   21  C17 UNL     1      20.885   2.718  50.666  1.00  0.00     0.218 C 
HETATM   22  C18 UNL     1      20.638   3.338  49.339  1.00  0.00     0.117 C 
HETATM   23  O2  UNL     1      20.956   3.330  51.764  1.00  0.00    -0.274 OA
HETATM   24  H15 UNL     1      21.010   0.735  49.848  1.00  0.00     0.169 HD
ENDBRANCH  10  20
BRANCH   1  25
HETATM   25  O1  UNL     1      19.058   0.432  52.457  1.00  0.00    -0.349 OA
BRANCH  25  26
HETATM   26  C2  UNL     1      18.141  -0.488  51.958  1.00  0.00     0.171 C 
HETATM   27  C1  UNL     1      17.567   0.028  50.664  1.00  0.00     0.034 C 
ENDBRANCH  25  26
ENDBRANCH   1  25
TORSDOF 5
ENDMDL
MODEL 2
REMARK VINA RESULT:      -7.9      1.878      2.330
REMARK  5 active torsions:
REMARK  status: ('A' for Active; 'I' for Inactive)
REMARK    1  A    between atoms: C2_2  and  O1_3 
REMARK    2  A    between atoms: O1_3  and  C3_4 
REMARK    3  A    between atoms: C8_10  and  N2_11 
REMARK    4  A    between atoms: N2_11  and  P1_12 
REMARK    5  A    between atoms: C16_22  and  N3_23 
REMARK       I    between atoms: N3_23  and  C17_24 
ROOT
HETATM    1  C3  UNL     1      20.594   1.106  51.405  1.00  0.00     0.097 A 
HETATM    2  C4  UNL     1      20.728   0.307  52.516  1.00  0.00     0.071 A 
HETATM    3  C5  UNL     1      21.954   0.008  53.070  1.00  0.00     0.071 A 
HETATM    4  N1  UNL     1      22.049  -0.777  54.158  1.00  0.00    -0.260 NA
HETATM    5  C6  UNL     1      23.248  -1.064  54.692  1.00  0.00     0.119 A 
HETATM    6  C7  UNL     1      24.412  -0.544  54.115  1.00  0.00     0.052 A 
HETATM    7  C8  UNL     1      24.391   0.280  52.984  1.00  0.00     0.070 A 
HETATM    8  C14 UNL     1      23.108   0.534  52.485  1.00  0.00     0.024 A 
HETATM    9  C15 UNL     1      23.000   1.347  51.358  1.00  0.00     0.048 A 
HETATM   10  C16 UNL     1      21.742   1.635  50.815  1.00  0.00     0.069 A 
ENDROOT
BRANCH   7  11
HETATM   11  N2  UNL     1      25.566   0.795  52.393  1.00  0.00    -0.255 NA
BRANCH  11  12
HETATM   12  P1  UNL     1      26.960   0.346  52.993  1.00  0.00     0.056 P 
HETATM   13  C9  UNL     1      27.487  -1.153  52.740  1.00  0.00     0.063 A 
HETATM   14 CL1  UNL     1      26.514  -2.399  51.942  1.00  0.00    -0.082 Cl
HETATM   15  C10 UNL     1      28.804  -1.583  53.157  1.00  0.00     0.064 A 
HETATM   16  C11 UNL     1      29.538  -0.663  53.757  1.00  0.00     0.096 A 
HETATM   17  F1  UNL     1      30.794  -1.090  54.149  1.00  0.00    -0.211 F 
HETATM   18  C12 UNL     1      29.397   0.742  54.148  1.00  0.00     0.077 A 
HETATM   19  C13 UNL     1      28.130   1.432  53.823  1.00  0.00     0.071 A 
ENDBRANCH  11  12
ENDBRANCH   7  11
BRANCH  10  20
HETATM   20  N3  UNL     1      21.803   2.484  49.658  1.00  0.00    -0.325 N 
HETATM   21  C17 UNL     1      21.772   1.945  48.352  1.00  0.00     0.218 C 
HETATM   22  C18 UNL     1      21.839   2.894  47.211  1.00  0.00     0.117 C 
HETATM   23  O2  UNL     1      21.690   0.692  48.265  1.00  0.00    -0.274 OA
HETATM   24  H15 UNL     1      21.871   3.516  49.816  1.00  0.00     0.169 HD
ENDBRANCH  10  20
BRANCH   1  25
HETATM   25  O1  UNL     1      19.443   1.476  50.764  1.00  0.00    -0.349 OA
BRANCH  25  26
HETATM   26  C2  UNL     1      18.358   2.150  51.316  1.00  0.00     0.171 C 
HETATM   27  C1  UNL     1      18.598   3.635  51.236  1.00  0.00     0.034 C 
ENDBRANCH  25  26
ENDBRANCH   1  25
TORSDOF 5
ENDMDL
MODEL 3
REMARK VINA RESULT:      -7.7      2.399      3.950
REMARK  5 active torsions:
REMARK  status: ('A' for Active; 'I' for Inactive)
REMARK    1  A    between atoms: C2_2  and  O1_3 
REMARK    2  A    between atoms: O1_3  and  C3_4 
REMARK    3  A    between atoms: C8_10  and  N2_11 
REMARK    4  A    between atoms: N2_11  and  P1_12 
REMARK    5  A    between atoms: C16_22  and  N3_23 
REMARK       I    between atoms: N3_23  and  C17_24 
ROOT
HETATM    1  C3  UNL     1      21.687   1.654  50.903  1.00  0.00     0.097 A 
HETATM    2  C4  UNL     1      22.484   2.319  50.002  1.00  0.00     0.071 A 
HETATM    3  C5  UNL     1      23.811   2.596  50.252  1.00  0.00     0.071 A 
HETATM    4  N1  UNL     1      24.563   3.249  49.347  1.00  0.00    -0.260 NA
HETATM    5  C6  UNL     1      25.855   3.516  49.597  1.00  0.00     0.119 A 
HETATM    6  C7  UNL     1      26.430   3.113  50.808  1.00  0.00     0.052 A 
HETATM    7  C8  UNL     1      25.710   2.430  51.795  1.00  0.00     0.070 A 
HETATM    8  C14 UNL     1      24.372   2.189  51.464  1.00  0.00     0.024 A 
HETATM    9  C15 UNL     1      23.585   1.513  52.394  1.00  0.00     0.048 A 
HETATM   10  C16 UNL     1      22.240   1.244  52.116  1.00  0.00     0.069 A 
ENDROOT
BRANCH   7  11
HETATM   11  N2  UNL     1      26.285   2.034  53.023  1.00  0.00    -0.255 NA
BRANCH  11  12
HETATM   12  P1  UNL     1      27.179   0.728  53.040  1.00  0.00     0.056 P 
HETATM   13  C9  UNL     1      28.663   0.789  53.660  1.00  0.00     0.063 A 
HETATM   14 CL1  UNL     1      29.425   2.293  54.199  1.00  0.00    -0.082 Cl
HETATM   15  C10 UNL     1      29.478  -0.396  53.815  1.00  0.00     0.064 A 
HETATM   16  C11 UNL     1      28.920  -1.525  53.412  1.00  0.00     0.096 A 
HETATM   17  F1  UNL     1      29.712  -2.648  53.568  1.00  0.00    -0.211 F 
HETATM   18  C12 UNL     1      27.649  -1.948  52.820  1.00  0.00     0.077 A 
HETATM   19  C13 UNL     1      26.621  -0.915  52.565  1.00  0.00     0.071 A 
ENDBRANCH  11  12
ENDBRANCH   7  11
BRANCH  10  20
HETATM   20  N3  UNL     1      21.569   0.541  53.175  1.00  0.00    -0.325 N 
HETATM   21  C17 UNL     1      21.870  -0.809  53.463  1.00  0.00     0.218 C 
HETATM   22  C18 UNL     1      21.130  -1.460  54.575  1.00  0.00     0.117 C 
HETATM   23  O2  UNL     1      22.749  -1.353  52.745  1.00  0.00    -0.274 OA
HETATM   24  H15 UNL     1      20.850   1.064  53.725  1.00  0.00     0.169 HD
ENDBRANCH  10  20
BRANCH   1  25
HETATM   25  O1  UNL     1      20.365   1.320  50.777  1.00  0.00    -0.349 OA
BRANCH  25  26
HETATM   26  C2  UNL     1      19.442   1.877  49.898  1.00  0.00     0.171 C 
HETATM   27  C1  UNL     1      18.801   3.079  50.542  1.00  0.00     0.034 C 
ENDBRANCH  25  26
ENDBRANCH   1  25
TORSDOF 5
ENDMDL
MODEL 4
REMARK VINA RESULT:      -7.7      2.689      3.915
REMARK  5 active torsions:
REMARK  status: ('A' for Active; 'I' for Inactive)
REMARK    1  A    between atoms: C2_2  and  O1_3 
REMARK    2  A    between atoms: O1_3  and  C3_4 
REMARK    3  A    between atoms: C8_10  and  N2_11 
REMARK    4  A    between atoms: N2_11  and  P1_12 
REMARK    5  A    between atoms: C16_22  and  N3_23 
REMARK       I    between atoms: N3_23  and  C17_24 
ROOT
HETATM    1  C3  UNL     1      22.776   2.899  49.252  1.00  0.00     0.097 A 
HETATM    2  C4  UNL     1      22.069   1.924  49.914  1.00  0.00     0.071 A 
HETATM    3  C5  UNL     1      22.547   1.305  51.049  1.00  0.00     0.071 A 
HETATM    4  N1  UNL     1      21.828   0.355  51.674  1.00  0.00    -0.260 NA
HETATM    5  C6  UNL     1      22.300  -0.244  52.780  1.00  0.00     0.119 A 
HETATM    6  C7  UNL     1      23.551   0.120  53.291  1.00  0.00     0.052 A 
HETATM    7  C8  UNL     1      24.355   1.099  52.695  1.00  0.00     0.070 A 
HETATM    8  C14 UNL     1      23.797   1.678  51.549  1.00  0.00     0.024 A 
HETATM    9  C15 UNL     1      24.534   2.663  50.896  1.00  0.00     0.048 A 
HETATM   10  C16 UNL     1      24.026   3.276  49.745  1.00  0.00     0.069 A 
ENDROOT
BRANCH   7  11
HETATM   11  N2  UNL     1      25.623   1.458  53.202  1.00  0.00    -0.255 NA
BRANCH  11  12
HETATM   12  P1  UNL     1      26.782   0.381  53.138  1.00  0.00     0.056 P 
HETATM   13  C9  UNL     1      28.290   0.816  53.491  1.00  0.00     0.063 A 
HETATM   14 CL1  UNL     1      28.765   2.492  53.807  1.00  0.00    -0.082 Cl
HETATM   15  C10 UNL     1      29.367  -0.147  53.569  1.00  0.00     0.064 A 
HETATM   16  C11 UNL     1      29.025  -1.401  53.332  1.00  0.00     0.096 A 
HETATM   17  F1  UNL     1      30.066  -2.309  53.412  1.00  0.00    -0.211 F 
HETATM   18  C12 UNL     1      27.807  -2.141  52.990  1.00  0.00     0.077 A 
HETATM   19  C13 UNL     1      26.545  -1.380  52.858  1.00  0.00     0.071 A 
ENDBRANCH  11  12
ENDBRANCH   7  11
BRANCH  10  20
HETATM   20  N3  UNL     1      24.906   4.269  49.192  1.00  0.00    -0.325 N 
HETATM   21  C17 UNL     1      24.886   5.604  49.655  1.00  0.00     0.218 C 
HETATM   22  C18 UNL     1      25.830   6.566  49.029  1.00  0.00     0.117 C 
HETATM   23  O2  UNL     1      24.061   5.868  50.568  1.00  0.00    -0.274 OA
HETATM   24  H15 UNL     1      25.562   3.968  48.435  1.00  0.00     0.169 HD
ENDBRANCH  10  20
BRANCH   1  25
HETATM   25  O1  UNL     1      22.416   3.586  48.124  1.00  0.00    -0.349 OA
BRANCH  25  26
HETATM   26  C2  UNL     1      21.502   3.182  47.155  1.00  0.00     0.171 C 
HETATM   27  C1  UNL     1      21.959   3.668  45.804  1.00  0.00     0.034 C 
ENDBRANCH  25  26
ENDBRANCH   1  25
TORSDOF 5
ENDMDL
MODEL 5
REMARK VINA RESULT:      -7.7      4.496      7.622
REMARK  5 active torsions:
REMARK  status: ('A' for Active; 'I' for Inactive)
REMARK    1  A    between atoms: C2_2  and  O1_3 
REMARK    2  A    between atoms: O1_3  and  C3_4 
REMARK    3  A    between atoms: C8_10  and  N2_11 
REMARK    4  A    between atoms: N2_11  and  P1_12 
REMARK    5  A    between atoms: C16_22  and  N3_23 
REMARK       I    between atoms: N3_23  and  C17_24 
ROOT
HETATM    1  C3  UNL     1      24.906   0.232  53.300  1.00  0.00     0.097 A 
HETATM    2  C4  UNL     1      23.644   0.070  52.781  1.00  0.00     0.071 A 
HETATM    3  C5  UNL     1      22.848   1.137  52.421  1.00  0.00     0.071 A 
HETATM    4  N1  UNL     1      21.617   0.942  51.914  1.00  0.00    -0.260 NA
HETATM    5  C6  UNL     1      20.848   1.987  51.566  1.00  0.00     0.119 A 
HETATM    6  C7  UNL     1      21.327   3.291  51.729  1.00  0.00     0.052 A 
HETATM    7  C8  UNL     1      22.596   3.571  52.249  1.00  0.00     0.070 A 
HETATM    8  C14 UNL     1      23.338   2.434  52.588  1.00  0.00     0.024 A 
HETATM    9  C15 UNL     1      24.615   2.626  53.113  1.00  0.00     0.048 A 
HETATM   10  C16 UNL     1      25.402   1.525  53.470  1.00  0.00     0.069 A 
ENDROOT
BRANCH   7  11
HETATM   11  N2  UNL     1      23.075   4.888  52.426  1.00  0.00    -0.255 NA
BRANCH  11  12
HETATM   12  P1  UNL     1      23.125   5.839  51.162  1.00  0.00     0.056 P 
HETATM   13  C9  UNL     1      24.214   5.571  50.008  1.00  0.00     0.063 A 
HETATM   14 CL1  UNL     1      25.482   4.343  50.142  1.00  0.00    -0.082 Cl
HETATM   15  C10 UNL     1      24.227   6.328  48.776  1.00  0.00     0.064 A 
HETATM   16  C11 UNL     1      23.287   7.250  48.666  1.00  0.00     0.096 A 
HETATM   17  F1  UNL     1      23.313   7.964  47.482  1.00  0.00    -0.211 F 
HETATM   18  C12 UNL     1      22.176   7.759  49.475  1.00  0.00     0.077 A 
HETATM   19  C13 UNL     1      21.936   7.139  50.796  1.00  0.00     0.071 A 
ENDBRANCH  11  12
ENDBRANCH   7  11
BRANCH  10  20
HETATM   20  N3  UNL     1      26.689   1.892  53.995  1.00  0.00    -0.325 N 
HETATM   21  C17 UNL     1      27.775   2.175  53.136  1.00  0.00     0.218 C 
HETATM   22  C18 UNL     1      29.071   2.547  53.762  1.00  0.00     0.117 C 
HETATM   23  O2  UNL     1      27.550   2.088  51.901  1.00  0.00    -0.274 OA
HETATM   24  H15 UNL     1      26.793   1.940  55.034  1.00  0.00     0.169 HD
ENDBRANCH  10  20
BRANCH   1  25
HETATM   25  O1  UNL     1      25.789  -0.737  53.693  1.00  0.00    -0.349 OA
BRANCH  25  26
HETATM   26  C2  UNL     1      26.553  -1.557  52.867  1.00  0.00     0.171 C 
HETATM   27  C1  UNL     1      28.014  -1.349  53.169  1.00  0.00     0.034 C 
ENDBRANCH  25  26
ENDBRANCH   1  25
TORSDOF 5
ENDMDL
MODEL 6
REMARK VINA RESULT:      -7.7      4.215      7.440
REMARK  5 active torsions:
REMARK  status: ('A' for Active; 'I' for Inactive)
REMARK    1  A    between atoms: C2_2  and  O1_3 
REMARK    2  A    between atoms: O1_3  and  C3_4 
REMARK    3  A    between atoms: C8_10  and  N2_11 
REMARK    4  A    between atoms: N2_11  and  P1_12 
REMARK    5  A    between atoms: C16_22  and  N3_23 
REMARK       I    between atoms: N3_23  and  C17_24 
ROOT
HETATM    1  C3  UNL     1      26.331   0.458  53.620  1.00  0.00     0.097 A 
HETATM    2  C4  UNL     1      25.567  -0.216  54.542  1.00  0.00     0.071 A 
HETATM    3  C5  UNL     1      24.243  -0.528  54.321  1.00  0.00     0.071 A 
HETATM    4  N1  UNL     1      23.523  -1.189  55.246  1.00  0.00    -0.260 NA
HETATM    5  C6  UNL     1      22.234  -1.489  55.022  1.00  0.00     0.119 A 
HETATM    6  C7  UNL     1      21.627  -1.112  53.819  1.00  0.00     0.052 A 
HETATM    7  C8  UNL     1      22.312  -0.423  52.811  1.00  0.00     0.070 A 
HETATM    8  C14 UNL     1      23.649  -0.146  53.115  1.00  0.00     0.024 A 
HETATM    9  C15 UNL     1      24.402   0.539  52.163  1.00  0.00     0.048 A 
HETATM   10  C16 UNL     1      25.746   0.842  52.414  1.00  0.00     0.069 A 
ENDROOT
BRANCH   7  11
HETATM   11  N2  UNL     1      21.697  -0.030  51.602  1.00  0.00    -0.255 NA
BRANCH  11  12
HETATM   12  P1  UNL     1      20.315   0.737  51.684  1.00  0.00     0.056 P 
HETATM   13  C9  UNL     1      20.302   2.333  51.884  1.00  0.00     0.063 A 
HETATM   14 CL1  UNL     1      21.768   3.283  52.172  1.00  0.00    -0.082 Cl
HETATM   15  C10 UNL     1      19.077   3.102  51.842  1.00  0.00     0.064 A 
HETATM   16  C11 UNL     1      17.976   2.402  51.631  1.00  0.00     0.096 A 
HETATM   17  F1  UNL     1      16.814   3.152  51.594  1.00  0.00    -0.211 F 
HETATM   18  C12 UNL     1      17.614   0.999  51.418  1.00  0.00     0.077 A 
HETATM   19  C13 UNL     1      18.700  -0.006  51.404  1.00  0.00     0.071 A 
ENDBRANCH  11  12
ENDBRANCH   7  11
BRANCH  10  20
HETATM   20  N3  UNL     1      26.380   1.549  51.335  1.00  0.00    -0.325 N 
HETATM   21  C17 UNL     1      26.009   2.874  51.011  1.00  0.00     0.218 C 
HETATM   22  C18 UNL     1      26.715   3.532  49.880  1.00  0.00     0.117 C 
HETATM   23  O2  UNL     1      25.102   3.390  51.714  1.00  0.00    -0.274 OA
HETATM   24  H15 UNL     1      27.125   1.049  50.798  1.00  0.00     0.169 HD
ENDBRANCH  10  20
BRANCH   1  25
HETATM   25  O1  UNL     1      27.647   0.824  53.718  1.00  0.00    -0.349 OA
BRANCH  25  26
HETATM   26  C2  UNL     1      28.647   0.165  54.426  1.00  0.00     0.171 C 
HETATM   27  C1  UNL     1      29.285  -0.875  53.543  1.00  0.00     0.034 C 
ENDBRANCH  25  26
ENDBRANCH   1  25
TORSDOF 5
ENDMDL
MODEL 7
REMARK VINA RESULT:      -7.6      4.649      6.892
REMARK  5 active torsions:
REMARK  status: ('A' for Active; 'I' for Inactive)
REMARK    1  A    between atoms: C2_2  and  O1_3 
REMARK    2  A    between atoms: O1_3  and  C3_4 
REMARK    3  A    between atoms: C8_10  and  N2_11 
REMARK    4  A    between atoms: N2_11  and  P1_12 
REMARK    5  A    between atoms: C16_22  and  N3_23 
REMARK       I    between atoms: N3_23  and  C17_24 
ROOT
HETATM    1  C3  UNL     1      22.965   0.500  52.824  1.00  0.00     0.097 A 
HETATM    2  C4  UNL     1      22.054   0.682  51.812  1.00  0.00     0.071 A 
HETATM    3  C5  UNL     1      22.316   1.471  50.712  1.00  0.00     0.071 A 
HETATM    4  N1  UNL     1      21.401   1.627  49.738  1.00  0.00    -0.260 NA
HETATM    5  C6  UNL     1      21.665   2.397  48.669  1.00  0.00     0.119 A 
HETATM    6  C7  UNL     1      22.900   3.045  48.563  1.00  0.00     0.052 A 
HETATM    7  C8  UNL     1      23.900   2.929  49.535  1.00  0.00     0.070 A 
HETATM    8  C14 UNL     1      23.554   2.112  50.617  1.00  0.00     0.024 A 
HETATM    9  C15 UNL     1      24.496   1.943  51.631  1.00  0.00     0.048 A 
HETATM   10  C16 UNL     1      24.203   1.137  52.737  1.00  0.00     0.069 A 
ENDROOT
BRANCH   7  11
HETATM   11  N2  UNL     1      25.143   3.593  49.435  1.00  0.00    -0.255 NA
BRANCH  11  12
HETATM   12  P1  UNL     1      25.198   5.130  49.807  1.00  0.00     0.056 P 
HETATM   13  C9  UNL     1      26.416   6.034  49.272  1.00  0.00     0.063 A 
HETATM   14 CL1  UNL     1      27.805   5.367  48.400  1.00  0.00    -0.082 Cl
HETATM   15  C10 UNL     1      26.456   7.466  49.474  1.00  0.00     0.064 A 
HETATM   16  C11 UNL     1      25.425   7.975  50.127  1.00  0.00     0.096 A 
HETATM   17  F1  UNL     1      25.478   9.345  50.311  1.00  0.00    -0.211 F 
HETATM   18  C12 UNL     1      24.189   7.484  50.742  1.00  0.00     0.077 A 
HETATM   19  C13 UNL     1      23.900   6.036  50.664  1.00  0.00     0.071 A 
ENDBRANCH  11  12
ENDBRANCH   7  11
BRANCH  10  20
HETATM   20  N3  UNL     1      25.277   1.068  53.690  1.00  0.00    -0.325 N 
HETATM   21  C17 UNL     1      26.271   0.067  53.601  1.00  0.00     0.218 C 
HETATM   22  C18 UNL     1      27.345   0.067  54.628  1.00  0.00     0.117 C 
HETATM   23  O2  UNL     1      26.159  -0.750  52.650  1.00  0.00    -0.274 OA
HETATM   24  H15 UNL     1      25.297   1.784  54.452  1.00  0.00     0.169 HD
ENDBRANCH  10  20
BRANCH   1  25
HETATM   25  O1  UNL     1      22.828  -0.251  53.960  1.00  0.00    -0.349 OA
BRANCH  25  26
HETATM   26  C2  UNL     1      21.673  -0.417  54.718  1.00  0.00     0.171 C 
HETATM   27  C1  UNL     1      21.011  -1.717  54.343  1.00  0.00     0.034 C 
ENDBRANCH  25  26
ENDBRANCH   1  25
TORSDOF 5
ENDMDL
MODEL 8
REMARK VINA RESULT:      -7.4      4.205      7.110
REMARK  5 active torsions:
REMARK  status: ('A' for Active; 'I' for Inactive)
REMARK    1  A    between atoms: C2_2  and  O1_3 
REMARK    2  A    between atoms: O1_3  and  C3_4 
REMARK    3  A    between atoms: C8_10  and  N2_11 
REMARK    4  A    between atoms: N2_11  and  P1_12 
REMARK    5  A    between atoms: C16_22  and  N3_23 
REMARK       I    between atoms: N3_23  and  C17_24 
ROOT
HETATM    1  C3  UNL     1      26.779   1.200  52.643  1.00  0.00     0.097 A 
HETATM    2  C4  UNL     1      26.011   0.282  53.318  1.00  0.00     0.071 A 
HETATM    3  C5  UNL     1      24.635   0.360  53.367  1.00  0.00     0.071 A 
HETATM    4  N1  UNL     1      23.914  -0.557  54.037  1.00  0.00    -0.260 NA
HETATM    5  C6  UNL     1      22.574  -0.474  54.081  1.00  0.00     0.119 A 
HETATM    6  C7  UNL     1      21.917   0.574  53.426  1.00  0.00     0.052 A 
HETATM    7  C8  UNL     1      22.601   1.564  52.710  1.00  0.00     0.070 A 
HETATM    8  C14 UNL     1      23.992   1.411  52.709  1.00  0.00     0.024 A 
HETATM    9  C15 UNL     1      24.748   2.356  52.018  1.00  0.00     0.048 A 
HETATM   10  C16 UNL     1      26.144   2.252  51.983  1.00  0.00     0.069 A 
ENDROOT
BRANCH   7  11
HETATM   11  N2  UNL     1      21.941   2.630  52.060  1.00  0.00    -0.255 NA
BRANCH  11  12
HETATM   12  P1  UNL     1      21.918   2.636  50.477  1.00  0.00     0.056 P 
HETATM   13  C9  UNL     1      22.333   3.972  49.682  1.00  0.00     0.063 A 
HETATM   14 CL1  UNL     1      22.675   5.510  50.489  1.00  0.00    -0.082 Cl
HETATM   15  C10 UNL     1      22.450   4.002  48.241  1.00  0.00     0.064 A 
HETATM   16  C11 UNL     1      22.194   2.860  47.627  1.00  0.00     0.096 A 
HETATM   17  F1  UNL     1      22.311   2.905  46.250  1.00  0.00    -0.211 F 
HETATM   18  C12 UNL     1      21.800   1.499  48.002  1.00  0.00     0.077 A 
HETATM   19  C13 UNL     1      21.621   1.197  49.439  1.00  0.00     0.071 A 
ENDBRANCH  11  12
ENDBRANCH   7  11
BRANCH  10  20
HETATM   20  N3  UNL     1      26.773   3.303  51.231  1.00  0.00    -0.325 N 
HETATM   21  C17 UNL     1      26.450   3.525  49.873  1.00  0.00     0.218 C 
HETATM   22  C18 UNL     1      27.148   4.632  49.169  1.00  0.00     0.117 C 
HETATM   23  O2  UNL     1      25.589   2.758  49.369  1.00  0.00    -0.274 OA
HETATM   24  H15 UNL     1      27.480   3.896  51.723  1.00  0.00     0.169 HD
ENDBRANCH  10  20
BRANCH   1  25
HETATM   25  O1  UNL     1      28.141   1.234  52.518  1.00  0.00    -0.349 OA
BRANCH  25  26
HETATM   26  C2  UNL     1      29.077   1.205  53.548  1.00  0.00     0.171 C 
HETATM   27  C1  UNL     1      29.762  -0.136  53.564  1.00  0.00     0.034 C 
ENDBRANCH  25  26
ENDBRANCH   1  25
TORSDOF 5
ENDMDL
MODEL 9
REMARK VINA RESULT:      -7.3      4.052      5.374
REMARK  5 active torsions:
REMARK  status: ('A' for Active; 'I' for Inactive)
REMARK    1  A    between atoms: C2_2  and  O1_3 
REMARK    2  A    between atoms: O1_3  and  C3_4 
REMARK    3  A    between atoms: C8_10  and  N2_11 
REMARK    4  A    between atoms: N2_11  and  P1_12 
REMARK    5  A    between atoms: C16_22  and  N3_23 
REMARK       I    between atoms: N3_23  and  C17_24 
ROOT
HETATM    1  C3  UNL     1      21.519   0.309  53.269  1.00  0.00     0.097 A 
HETATM    2  C4  UNL     1      22.809   0.056  53.672  1.00  0.00     0.071 A 
HETATM    3  C5  UNL     1      23.904   0.596  53.032  1.00  0.00     0.071 A 
HETATM    4  N1  UNL     1      25.154   0.327  53.453  1.00  0.00    -0.260 NA
HETATM    5  C6  UNL     1      26.215   0.857  52.824  1.00  0.00     0.119 A 
HETATM    6  C7  UNL     1      26.026   1.696  51.720  1.00  0.00     0.052 A 
HETATM    7  C8  UNL     1      24.757   2.020  51.226  1.00  0.00     0.070 A 
HETATM    8  C14 UNL     1      23.702   1.432  51.931  1.00  0.00     0.024 A 
HETATM    9  C15 UNL     1      22.404   1.704  51.503  1.00  0.00     0.048 A 
HETATM   10  C16 UNL     1      21.309   1.143  52.171  1.00  0.00     0.069 A 
ENDROOT
BRANCH   7  11
HETATM   11  N2  UNL     1      24.566   2.857  50.104  1.00  0.00    -0.255 NA
BRANCH  11  12
HETATM   12  P1  UNL     1      24.687   4.421  50.312  1.00  0.00     0.056 P 
HETATM   13  C9  UNL     1      25.921   5.217  49.655  1.00  0.00     0.063 A 
HETATM   14 CL1  UNL     1      27.258   4.410  48.822  1.00  0.00    -0.082 Cl
HETATM   15  C10 UNL     1      26.018   6.659  49.707  1.00  0.00     0.064 A 
HETATM   16  C11 UNL     1      25.026   7.272  50.329  1.00  0.00     0.096 A 
HETATM   17  F1  UNL     1      25.134   8.651  50.369  1.00  0.00    -0.211 F 
HETATM   18  C12 UNL     1      23.792   6.896  51.023  1.00  0.00     0.077 A 
HETATM   19  C13 UNL     1      23.449   5.460  51.103  1.00  0.00     0.071 A 
ENDBRANCH  11  12
ENDBRANCH   7  11
BRANCH  10  20
HETATM   20  N3  UNL     1      20.043   1.522  51.606  1.00  0.00    -0.325 N 
HETATM   21  C17 UNL     1      19.414   2.735  51.967  1.00  0.00     0.218 C 
HETATM   22  C18 UNL     1      18.106   3.049  51.335  1.00  0.00     0.117 C 
HETATM   23  O2  UNL     1      20.022   3.454  52.802  1.00  0.00    -0.274 OA
HETATM   24  H15 UNL     1      19.603   0.867  50.920  1.00  0.00     0.169 HD
ENDBRANCH  10  20
BRANCH   1  25
HETATM   25  O1  UNL     1      20.356  -0.161  53.816  1.00  0.00    -0.349 OA
BRANCH  25  26
HETATM   26  C2  UNL     1      19.810  -1.431  53.657  1.00  0.00     0.171 C 
HETATM   27  C1  UNL     1      18.364  -1.308  53.254  1.00  0.00     0.034 C 
ENDBRANCH  25  26
ENDBRANCH   1  25
TORSDOF 5
ENDMDL
