MODEL 1
REMARK VINA RESULT:      -8.9      0.000      0.000
REMARK  6 active torsions:
REMARK  status: ('A' for Active; 'I' for Inactive)
REMARK    1  A    between atoms: C2_2  and  N1_3 
REMARK    2  A    between atoms: C5_7  and  N3_8 
REMARK    3  A    between atoms: N3_8  and  C6_9 
REMARK    4  A    between atoms: C12_18  and  N5_19 
REMARK    5  A    between atoms: N5_19  and  C13_20 
REMARK    6  A    between atoms: C16_23  and  N6_25 
ROOT
HETATM    1  N1  UNL     1      22.181   0.160  52.357  1.00  0.00    -0.324 N 
HETATM    2  C3  UNL     1      21.329   0.318  51.312  1.00  0.00     0.212 A 
HETATM    3  N2  UNL     1      21.806   1.275  50.493  1.00  0.00    -0.236 NA
HETATM    4  C4  UNL     1      22.945   1.726  51.002  1.00  0.00     0.151 A 
HETATM    5  C5  UNL     1      23.895   2.661  50.676  1.00  0.00     0.179 A 
HETATM    6  N4  UNL     1      24.964   2.870  51.442  1.00  0.00    -0.043 NA
HETATM    7  C12 UNL     1      25.176   2.179  52.577  1.00  0.00     0.726 A 
HETATM    8  N7  UNL     1      24.283   1.260  52.938  1.00  0.00    -0.042 NA
HETATM    9  C19 UNL     1      23.187   1.028  52.177  1.00  0.00     0.182 A 
ENDROOT
BRANCH   7  10
HETATM   10  N5  UNL     1      26.328   2.428  53.372  1.00  0.00    -0.218 N 
HETATM   11  H13 UNL     1      26.247   2.897  54.282  1.00  0.00     0.178 HD
BRANCH  10  12
HETATM   12  C13 UNL     1      27.640   2.006  52.878  1.00  0.00     0.102 C 
HETATM   13  C14 UNL     1      28.765   2.498  53.738  1.00  0.00     0.028 C 
HETATM   14  C15 UNL     1      29.331   1.320  54.464  1.00  0.00     0.043 C 
HETATM   15  C16 UNL     1      28.574   0.103  54.003  1.00  0.00     0.153 C 
HETATM   16  C17 UNL     1      29.493  -0.986  53.491  1.00  0.00     0.049 C 
HETATM   17  C18 UNL     1      27.710   0.512  52.834  1.00  0.00     0.066 C 
BRANCH  15  18
HETATM   18  N6  UNL     1      27.776  -0.430  55.067  1.00  0.00     0.087 N 
HETATM   19  H22 UNL     1      28.157  -0.279  56.027  1.00  0.00     0.313 HD
HETATM   20  H23 UNL     1      27.587  -1.428  54.895  1.00  0.00     0.313 HD
ENDBRANCH  15  18
ENDBRANCH  10  12
ENDBRANCH   7  10
BRANCH   5  21
HETATM   21  N3  UNL     1      23.748   3.423  49.508  1.00  0.00    -0.347 N 
HETATM   22  H7  UNL     1      23.581   3.002  48.564  1.00  0.00     0.167 HD
BRANCH  21  23
HETATM   23  C6  UNL     1      23.810   4.844  49.482  1.00  0.00     0.101 C 
HETATM   24  C7  UNL     1      24.922   5.516  49.217  1.00  0.00    -0.019 A 
HETATM   25  C8  UNL     1      26.151   4.782  48.937  1.00  0.00     0.013 A 
HETATM   26  C11 UNL     1      24.837   6.972  49.225  1.00  0.00     0.039 A 
HETATM   27  C9  UNL     1      27.302   5.373  48.663  1.00  0.00     0.003 A 
HETATM   28  C10 UNL     1      27.494   6.834  48.606  1.00  0.00     0.026 A 
HETATM   29  P1  UNL     1      26.219   7.769  48.896  1.00  0.00     0.030 P 
HETATM   30 CL1  UNL     1      26.333   9.820  48.852  1.00  0.00    -0.087 Cl
ENDBRANCH  21  23
ENDBRANCH   5  21
BRANCH   1  31
HETATM   31  C2  UNL     1      21.976  -0.781  53.422  1.00  0.00     0.127 C 
HETATM   32  C1  UNL     1      21.233  -0.039  54.526  1.00  0.00     0.027 C 
ENDBRANCH   1  31
TORSDOF 6
ENDMDL
MODEL 2
REMARK VINA RESULT:      -8.5      0.729      1.298
REMARK  6 active torsions:
REMARK  status: ('A' for Active; 'I' for Inactive)
REMARK    1  A    between atoms: C2_2  and  N1_3 
REMARK    2  A    between atoms: C5_7  and  N3_8 
REMARK    3  A    between atoms: N3_8  and  C6_9 
REMARK    4  A    between atoms: C12_18  and  N5_19 
REMARK    5  A    between atoms: N5_19  and  C13_20 
REMARK    6  A    between atoms: C16_23  and  N6_25 
ROOT
HETATM    1  N1  UNL     1      22.212   0.089  52.494  1.00  0.00    -0.324 N 
HETATM    2  C3  UNL     1      21.313   0.289  51.496  1.00  0.00     0.212 A 
HETATM    3  N2  UNL     1      21.734   1.305  50.719  1.00  0.00    -0.236 NA
HETATM    4  C4  UNL     1      22.883   1.754  51.208  1.00  0.00     0.151 A 
HETATM    5  C5  UNL     1      23.797   2.730  50.903  1.00  0.00     0.179 A 
HETATM    6  N4  UNL     1      24.892   2.919  51.636  1.00  0.00    -0.043 NA
HETATM    7  C12 UNL     1      25.167   2.166  52.716  1.00  0.00     0.726 A 
HETATM    8  N7  UNL     1      24.312   1.203  53.056  1.00  0.00    -0.042 NA
HETATM    9  C19 UNL     1      23.190   0.991  52.327  1.00  0.00     0.182 A 
ENDROOT
BRANCH   7  10
HETATM   10  N5  UNL     1      26.347   2.394  53.478  1.00  0.00    -0.218 N 
HETATM   11  H13 UNL     1      26.295   2.820  54.410  1.00  0.00     0.178 HD
BRANCH  10  12
HETATM   12  C13 UNL     1      27.643   2.014  52.915  1.00  0.00     0.102 C 
HETATM   13  C14 UNL     1      28.795   2.521  53.729  1.00  0.00     0.028 C 
HETATM   14  C15 UNL     1      29.424   1.347  54.409  1.00  0.00     0.043 C 
HETATM   15  C16 UNL     1      28.676   0.119  53.963  1.00  0.00     0.153 C 
HETATM   16  C17 UNL     1      29.598  -0.939  53.391  1.00  0.00     0.049 C 
HETATM   17  C18 UNL     1      27.748   0.523  52.843  1.00  0.00     0.066 C 
BRANCH  15  18
HETATM   18  N6  UNL     1      27.944  -0.451  55.055  1.00  0.00     0.087 N 
HETATM   19  H22 UNL     1      27.003  -0.033  55.226  1.00  0.00     0.313 HD
HETATM   20  H23 UNL     1      28.520  -0.433  55.909  1.00  0.00     0.313 HD
ENDBRANCH  15  18
ENDBRANCH  10  12
ENDBRANCH   7  10
BRANCH   5  21
HETATM   21  N3  UNL     1      23.584   3.558  49.791  1.00  0.00    -0.347 N 
HETATM   22  H7  UNL     1      22.653   3.661  49.321  1.00  0.00     0.167 HD
BRANCH  21  23
HETATM   23  C6  UNL     1      24.604   4.345  49.187  1.00  0.00     0.101 C 
HETATM   24  C7  UNL     1      24.760   5.638  49.429  1.00  0.00    -0.019 A 
HETATM   25  C8  UNL     1      23.852   6.307  50.354  1.00  0.00     0.013 A 
HETATM   26  C11 UNL     1      25.850   6.318  48.738  1.00  0.00     0.039 A 
HETATM   27  C9  UNL     1      23.937   7.594  50.650  1.00  0.00     0.003 A 
HETATM   28  C10 UNL     1      24.947   8.511  50.092  1.00  0.00     0.026 A 
HETATM   29  P1  UNL     1      26.016   7.907  49.055  1.00  0.00     0.030 P 
HETATM   30 CL1  UNL     1      27.482   9.063  48.196  1.00  0.00    -0.087 Cl
ENDBRANCH  21  23
ENDBRANCH   5  21
BRANCH   1  31
HETATM   31  C2  UNL     1      22.073  -0.921  53.505  1.00  0.00     0.127 C 
HETATM   32  C1  UNL     1      21.209  -0.321  54.607  1.00  0.00     0.027 C 
ENDBRANCH   1  31
TORSDOF 6
ENDMDL
MODEL 3
REMARK VINA RESULT:      -8.5      2.159      2.636
REMARK  6 active torsions:
REMARK  status: ('A' for Active; 'I' for Inactive)
REMARK    1  A    between atoms: C2_2  and  N1_3 
REMARK    2  A    between atoms: C5_7  and  N3_8 
REMARK    3  A    between atoms: N3_8  and  C6_9 
REMARK    4  A    between atoms: C12_18  and  N5_19 
REMARK    5  A    between atoms: N5_19  and  C13_20 
REMARK    6  A    between atoms: C16_23  and  N6_25 
ROOT
HETATM    1  N1  UNL     1      21.889   0.263  53.296  1.00  0.00    -0.324 N 
HETATM    2  C3  UNL     1      20.944   0.170  52.325  1.00  0.00     0.212 A 
HETATM    3  N2  UNL     1      21.359   0.847  51.238  1.00  0.00    -0.236 NA
HETATM    4  C4  UNL     1      22.549   1.369  51.502  1.00  0.00     0.151 A 
HETATM    5  C5  UNL     1      23.481   2.137  50.852  1.00  0.00     0.179 A 
HETATM    6  N4  UNL     1      24.622   2.499  51.436  1.00  0.00    -0.043 NA
HETATM    7  C12 UNL     1      24.928   2.133  52.694  1.00  0.00     0.726 A 
HETATM    8  N7  UNL     1      24.057   1.386  53.369  1.00  0.00    -0.042 NA
HETATM    9  C19 UNL     1      22.889   1.005  52.799  1.00  0.00     0.182 A 
ENDROOT
BRANCH   7  10
HETATM   10  N5  UNL     1      26.156   2.537  53.287  1.00  0.00    -0.218 N 
HETATM   11  H13 UNL     1      26.166   3.185  54.084  1.00  0.00     0.178 HD
BRANCH  10  12
HETATM   12  C13 UNL     1      27.413   2.017  52.748  1.00  0.00     0.102 C 
HETATM   13  C14 UNL     1      28.607   2.464  53.537  1.00  0.00     0.028 C 
HETATM   14  C15 UNL     1      29.133   1.277  54.279  1.00  0.00     0.043 C 
HETATM   15  C16 UNL     1      28.281   0.096  53.896  1.00  0.00     0.153 C 
HETATM   16  C17 UNL     1      29.106  -1.065  53.382  1.00  0.00     0.049 C 
HETATM   17  C18 UNL     1      27.389   0.521  52.755  1.00  0.00     0.066 C 
BRANCH  15  18
HETATM   18  N6  UNL     1      27.504  -0.350  55.014  1.00  0.00     0.087 N 
HETATM   19  H22 UNL     1      27.148  -1.329  54.945  1.00  0.00     0.313 HD
HETATM   20  H23 UNL     1      26.736   0.313  55.193  1.00  0.00     0.313 HD
ENDBRANCH  15  18
ENDBRANCH  10  12
ENDBRANCH   7  10
BRANCH   5  21
HETATM   21  N3  UNL     1      23.238   2.561  49.538  1.00  0.00    -0.347 N 
HETATM   22  H7  UNL     1      23.041   1.901  48.748  1.00  0.00     0.167 HD
BRANCH  21  23
HETATM   23  C6  UNL     1      23.231   3.926  49.138  1.00  0.00     0.101 C 
HETATM   24  C7  UNL     1      22.760   4.336  47.970  1.00  0.00    -0.019 A 
HETATM   25  C8  UNL     1      22.218   3.358  47.034  1.00  0.00     0.013 A 
HETATM   26  C11 UNL     1      22.818   5.768  47.694  1.00  0.00     0.039 A 
HETATM   27  C9  UNL     1      21.729   3.682  45.848  1.00  0.00     0.003 A 
HETATM   28  C10 UNL     1      21.667   5.058  45.322  1.00  0.00     0.026 A 
HETATM   29  P1  UNL     1      22.231   6.241  46.251  1.00  0.00     0.030 P 
HETATM   30 CL1  UNL     1      22.211   8.207  45.651  1.00  0.00    -0.087 Cl
ENDBRANCH  21  23
ENDBRANCH   5  21
BRANCH   1  31
HETATM   31  C2  UNL     1      21.768  -0.345  54.591  1.00  0.00     0.127 C 
HETATM   32  C1  UNL     1      21.491  -1.825  54.356  1.00  0.00     0.027 C 
ENDBRANCH   1  31
TORSDOF 6
ENDMDL
MODEL 4
REMARK VINA RESULT:      -8.4      3.623      7.352
REMARK  6 active torsions:
REMARK  status: ('A' for Active; 'I' for Inactive)
REMARK    1  A    between atoms: C2_2  and  N1_3 
REMARK    2  A    between atoms: C5_7  and  N3_8 
REMARK    3  A    between atoms: N3_8  and  C6_9 
REMARK    4  A    between atoms: C12_18  and  N5_19 
REMARK    5  A    between atoms: N5_19  and  C13_20 
REMARK    6  A    between atoms: C16_23  and  N6_25 
ROOT
HETATM    1  N1  UNL     1      28.024   0.667  53.789  1.00  0.00    -0.324 N 
HETATM    2  C3  UNL     1      27.256  -0.088  54.615  1.00  0.00     0.212 A 
HETATM    3  N2  UNL     1      25.958   0.169  54.370  1.00  0.00    -0.236 NA
HETATM    4  C4  UNL     1      25.889   1.075  53.404  1.00  0.00     0.151 A 
HETATM    5  C5  UNL     1      24.909   1.742  52.713  1.00  0.00     0.179 A 
HETATM    6  N4  UNL     1      25.201   2.626  51.761  1.00  0.00    -0.043 NA
HETATM    7  C12 UNL     1      26.469   2.917  51.420  1.00  0.00     0.726 A 
HETATM    8  N7  UNL     1      27.458   2.297  52.060  1.00  0.00    -0.042 NA
HETATM    9  C19 UNL     1      27.189   1.393  53.032  1.00  0.00     0.182 A 
ENDROOT
BRANCH   7  10
HETATM   10  N5  UNL     1      26.745   3.867  50.398  1.00  0.00    -0.218 N 
HETATM   11  H13 UNL     1      27.708   4.041  50.090  1.00  0.00     0.178 HD
BRANCH  10  12
HETATM   12  C13 UNL     1      25.634   4.599  49.787  1.00  0.00     0.102 C 
HETATM   13  C14 UNL     1      24.947   5.516  50.753  1.00  0.00     0.028 C 
HETATM   14  C15 UNL     1      25.291   6.920  50.371  1.00  0.00     0.043 C 
HETATM   15  C16 UNL     1      26.152   6.851  49.138  1.00  0.00     0.153 C 
HETATM   16  C17 UNL     1      25.605   7.697  48.007  1.00  0.00     0.049 C 
HETATM   17  C18 UNL     1      26.138   5.424  48.644  1.00  0.00     0.066 C 
BRANCH  15  18
HETATM   18  N6  UNL     1      27.488   7.279  49.428  1.00  0.00     0.087 N 
HETATM   19  H22 UNL     1      27.975   6.739  50.177  1.00  0.00     0.313 HD
HETATM   20  H23 UNL     1      27.494   8.289  49.634  1.00  0.00     0.313 HD
ENDBRANCH  15  18
ENDBRANCH  10  12
ENDBRANCH   7  10
BRANCH   5  21
HETATM   21  N3  UNL     1      23.561   1.495  53.009  1.00  0.00    -0.347 N 
HETATM   22  H7  UNL     1      23.213   1.280  53.974  1.00  0.00     0.167 HD
BRANCH  21  23
HETATM   23  C6  UNL     1      22.524   1.512  52.034  1.00  0.00     0.101 C 
HETATM   24  C7  UNL     1      21.358   0.907  52.207  1.00  0.00    -0.019 A 
HETATM   25  C8  UNL     1      21.104   0.184  53.448  1.00  0.00     0.013 A 
HETATM   26  C11 UNL     1      20.389   1.007  51.122  1.00  0.00     0.039 A 
HETATM   27  C9  UNL     1      19.970  -0.447  53.701  1.00  0.00     0.003 A 
HETATM   28  C10 UNL     1      18.824  -0.502  52.774  1.00  0.00     0.026 A 
HETATM   29  P1  UNL     1      18.966   0.254  51.363  1.00  0.00     0.030 P 
HETATM   30 CL1  UNL     1      17.454   0.264  49.971  1.00  0.00    -0.087 Cl
ENDBRANCH  21  23
ENDBRANCH   5  21
BRANCH   1  31
HETATM   31  C2  UNL     1      29.460   0.640  53.784  1.00  0.00     0.127 C 
HETATM   32  C1  UNL     1      29.870  -0.812  53.569  1.00  0.00     0.027 C 
ENDBRANCH   1  31
TORSDOF 6
ENDMDL
MODEL 5
REMARK VINA RESULT:      -8.4      1.523      4.633
REMARK  6 active torsions:
REMARK  status: ('A' for Active; 'I' for Inactive)
REMARK    1  A    between atoms: C2_2  and  N1_3 
REMARK    2  A    between atoms: C5_7  and  N3_8 
REMARK    3  A    between atoms: N3_8  and  C6_9 
REMARK    4  A    between atoms: C12_18  and  N5_19 
REMARK    5  A    between atoms: N5_19  and  C13_20 
REMARK    6  A    between atoms: C16_23  and  N6_25 
ROOT
HETATM    1  N1  UNL     1      26.380   1.560  53.331  1.00  0.00    -0.324 N 
HETATM    2  C3  UNL     1      27.464   1.797  52.549  1.00  0.00     0.212 A 
HETATM    3  N2  UNL     1      27.072   2.439  51.432  1.00  0.00    -0.236 NA
HETATM    4  C4  UNL     1      25.758   2.612  51.492  1.00  0.00     0.151 A 
HETATM    5  C5  UNL     1      24.778   3.171  50.713  1.00  0.00     0.179 A 
HETATM    6  N4  UNL     1      23.500   3.174  51.089  1.00  0.00    -0.043 NA
HETATM    7  C12 UNL     1      23.097   2.632  52.252  1.00  0.00     0.726 A 
HETATM    8  N7  UNL     1      24.009   2.077  53.046  1.00  0.00    -0.042 NA
HETATM    9  C19 UNL     1      25.315   2.060  52.687  1.00  0.00     0.182 A 
ENDROOT
BRANCH   7  10
HETATM   10  N5  UNL     1      21.724   2.653  52.623  1.00  0.00    -0.218 N 
HETATM   11  H13 UNL     1      21.306   3.492  53.041  1.00  0.00     0.178 HD
BRANCH  10  12
HETATM   12  C13 UNL     1      20.907   1.459  52.401  1.00  0.00     0.102 C 
HETATM   13  C14 UNL     1      21.540   0.498  51.440  1.00  0.00     0.028 C 
HETATM   14  C15 UNL     1      21.994  -0.694  52.222  1.00  0.00     0.043 C 
HETATM   15  C16 UNL     1      21.588  -0.471  53.654  1.00  0.00     0.153 C 
HETATM   16  C17 UNL     1      20.772  -1.622  54.206  1.00  0.00     0.049 C 
HETATM   17  C18 UNL     1      20.692   0.743  53.697  1.00  0.00     0.066 C 
BRANCH  15  18
HETATM   18  N6  UNL     1      22.741  -0.286  54.484  1.00  0.00     0.087 N 
HETATM   19  H22 UNL     1      22.593  -0.473  55.500  1.00  0.00     0.313 HD
HETATM   20  H23 UNL     1      23.132   0.656  54.333  1.00  0.00     0.313 HD
ENDBRANCH  15  18
ENDBRANCH  10  12
ENDBRANCH   7  10
BRANCH   5  21
HETATM   21  N3  UNL     1      25.116   3.757  49.484  1.00  0.00    -0.347 N 
HETATM   22  H7  UNL     1      25.265   3.206  48.606  1.00  0.00     0.167 HD
BRANCH  21  23
HETATM   23  C6  UNL     1      25.291   5.157  49.300  1.00  0.00     0.101 C 
HETATM   24  C7  UNL     1      26.438   5.698  48.916  1.00  0.00    -0.019 A 
HETATM   25  C8  UNL     1      27.588   4.837  48.665  1.00  0.00     0.013 A 
HETATM   26  C11 UNL     1      26.473   7.149  48.769  1.00  0.00     0.039 A 
HETATM   27  C9  UNL     1      28.768   5.295  48.281  1.00  0.00     0.003 A 
HETATM   28  C10 UNL     1      29.073   6.719  48.056  1.00  0.00     0.026 A 
HETATM   29  P1  UNL     1      27.895   7.785  48.296  1.00  0.00     0.030 P 
HETATM   30 CL1  UNL     1      28.173   9.804  48.024  1.00  0.00    -0.087 Cl
ENDBRANCH  21  23
ENDBRANCH   5  21
BRANCH   1  31
HETATM   31  C2  UNL     1      26.439   0.890  54.600  1.00  0.00     0.127 C 
HETATM   32  C1  UNL     1      27.811   0.232  54.684  1.00  0.00     0.027 C 
ENDBRANCH   1  31
TORSDOF 6
ENDMDL
MODEL 6
REMARK VINA RESULT:      -8.1      1.744      5.663
REMARK  6 active torsions:
REMARK  status: ('A' for Active; 'I' for Inactive)
REMARK    1  A    between atoms: C2_2  and  N1_3 
REMARK    2  A    between atoms: C5_7  and  N3_8 
REMARK    3  A    between atoms: N3_8  and  C6_9 
REMARK    4  A    between atoms: C12_18  and  N5_19 
REMARK    5  A    between atoms: N5_19  and  C13_20 
REMARK    6  A    between atoms: C16_23  and  N6_25 
ROOT
HETATM    1  N1  UNL     1      26.333   1.364  53.212  1.00  0.00    -0.324 N 
HETATM    2  C3  UNL     1      27.442   1.814  52.570  1.00  0.00     0.212 A 
HETATM    3  N2  UNL     1      27.070   2.474  51.457  1.00  0.00    -0.236 NA
HETATM    4  C4  UNL     1      25.746   2.449  51.381  1.00  0.00     0.151 A 
HETATM    5  C5  UNL     1      24.775   2.915  50.532  1.00  0.00     0.179 A 
HETATM    6  N4  UNL     1      23.480   2.704  50.764  1.00  0.00    -0.043 NA
HETATM    7  C12 UNL     1      23.050   2.024  51.842  1.00  0.00     0.726 A 
HETATM    8  N7  UNL     1      23.952   1.550  52.698  1.00  0.00    -0.042 NA
HETATM    9  C19 UNL     1      25.275   1.750  52.485  1.00  0.00     0.182 A 
ENDROOT
BRANCH   7  10
HETATM   10  N5  UNL     1      21.660   1.817  52.059  1.00  0.00    -0.218 N 
HETATM   11  H13 UNL     1      21.098   2.513  52.564  1.00  0.00     0.178 HD
BRANCH  10  12
HETATM   12  C13 UNL     1      21.034   0.593  51.555  1.00  0.00     0.102 C 
HETATM   13  C14 UNL     1      20.380  -0.208  52.639  1.00  0.00     0.028 C 
HETATM   14  C15 UNL     1      18.899  -0.096  52.459  1.00  0.00     0.043 C 
HETATM   15  C16 UNL     1      18.660   0.740  51.230  1.00  0.00     0.153 C 
HETATM   16  C17 UNL     1      17.762   0.045  50.228  1.00  0.00     0.049 C 
HETATM   17  C18 UNL     1      19.989   0.939  50.541  1.00  0.00     0.066 C 
BRANCH  15  18
HETATM   18  N6  UNL     1      18.072   1.998  51.580  1.00  0.00     0.087 N 
HETATM   19  H22 UNL     1      17.066   2.106  51.321  1.00  0.00     0.313 HD
HETATM   20  H23 UNL     1      18.639   2.768  51.195  1.00  0.00     0.313 HD
ENDBRANCH  15  18
ENDBRANCH  10  12
ENDBRANCH   7  10
BRANCH   5  21
HETATM   21  N3  UNL     1      25.141   3.634  49.385  1.00  0.00    -0.347 N 
HETATM   22  H7  UNL     1      25.344   3.181  48.463  1.00  0.00     0.167 HD
BRANCH  21  23
HETATM   23  C6  UNL     1      25.275   5.051  49.353  1.00  0.00     0.101 C 
HETATM   24  C7  UNL     1      26.398   5.664  49.007  1.00  0.00    -0.019 A 
HETATM   25  C8  UNL     1      27.564   4.868  48.640  1.00  0.00     0.013 A 
HETATM   26  C11 UNL     1      26.391   7.122  49.018  1.00  0.00     0.039 A 
HETATM   27  C9  UNL     1      28.722   5.399  48.283  1.00  0.00     0.003 A 
HETATM   28  C10 UNL     1      28.985   6.847  48.210  1.00  0.00     0.026 A 
HETATM   29  P1  UNL     1      27.785   7.847  48.589  1.00  0.00     0.030 P 
HETATM   30 CL1  UNL     1      28.003   9.890  48.534  1.00  0.00    -0.087 Cl
ENDBRANCH  21  23
ENDBRANCH   5  21
BRANCH   1  31
HETATM   31  C2  UNL     1      26.366   0.617  54.438  1.00  0.00     0.127 C 
HETATM   32  C1  UNL     1      27.833   0.333  54.738  1.00  0.00     0.027 C 
ENDBRANCH   1  31
TORSDOF 6
ENDMDL
MODEL 7
REMARK VINA RESULT:      -8.1      3.614      7.021
REMARK  6 active torsions:
REMARK  status: ('A' for Active; 'I' for Inactive)
REMARK    1  A    between atoms: C2_2  and  N1_3 
REMARK    2  A    between atoms: C5_7  and  N3_8 
REMARK    3  A    between atoms: N3_8  and  C6_9 
REMARK    4  A    between atoms: C12_18  and  N5_19 
REMARK    5  A    between atoms: N5_19  and  C13_20 
REMARK    6  A    between atoms: C16_23  and  N6_25 
ROOT
HETATM    1  N1  UNL     1      27.667   0.329  53.464  1.00  0.00    -0.324 N 
HETATM    2  C3  UNL     1      27.484  -1.016  53.489  1.00  0.00     0.212 A 
HETATM    3  N2  UNL     1      26.172  -1.286  53.359  1.00  0.00    -0.236 NA
HETATM    4  C4  UNL     1      25.520  -0.136  53.254  1.00  0.00     0.151 A 
HETATM    5  C5  UNL     1      24.220   0.277  53.103  1.00  0.00     0.179 A 
HETATM    6  N4  UNL     1      23.899   1.568  53.027  1.00  0.00    -0.043 NA
HETATM    7  C12 UNL     1      24.827   2.539  53.093  1.00  0.00     0.726 A 
HETATM    8  N7  UNL     1      26.103   2.192  53.239  1.00  0.00    -0.042 NA
HETATM    9  C19 UNL     1      26.457   0.887  53.319  1.00  0.00     0.182 A 
ENDROOT
BRANCH   7  10
HETATM   10  N5  UNL     1      24.449   3.908  53.010  1.00  0.00    -0.218 N 
HETATM   11  H13 UNL     1      24.822   4.597  53.673  1.00  0.00     0.178 HD
BRANCH  10  12
HETATM   12  C13 UNL     1      23.517   4.328  51.962  1.00  0.00     0.102 C 
HETATM   13  C14 UNL     1      23.159   5.780  52.057  1.00  0.00     0.028 C 
HETATM   14  C15 UNL     1      23.817   6.487  50.915  1.00  0.00     0.043 C 
HETATM   15  C16 UNL     1      24.537   5.446  50.099  1.00  0.00     0.153 C 
HETATM   16  C17 UNL     1      24.138   5.484  48.638  1.00  0.00     0.049 C 
HETATM   17  C18 UNL     1      24.125   4.088  50.615  1.00  0.00     0.066 C 
BRANCH  15  18
HETATM   18  N6  UNL     1      25.955   5.621  50.193  1.00  0.00     0.087 N 
HETATM   19  H22 UNL     1      26.366   6.298  49.513  1.00  0.00     0.313 HD
HETATM   20  H23 UNL     1      26.424   4.705  50.136  1.00  0.00     0.313 HD
ENDBRANCH  15  18
ENDBRANCH  10  12
ENDBRANCH   7  10
BRANCH   5  21
HETATM   21  N3  UNL     1      23.193  -0.675  53.026  1.00  0.00    -0.347 N 
HETATM   22  H7  UNL     1      23.362  -1.687  52.819  1.00  0.00     0.167 HD
BRANCH  21  23
HETATM   23  C6  UNL     1      21.818  -0.367  53.219  1.00  0.00     0.101 C 
HETATM   24  C7  UNL     1      21.035   0.091  52.253  1.00  0.00    -0.019 A 
HETATM   25  C8  UNL     1      21.591   0.297  50.920  1.00  0.00     0.013 A 
HETATM   26  C11 UNL     1      19.644   0.364  52.596  1.00  0.00     0.039 A 
HETATM   27  C9  UNL     1      20.880   0.751  49.900  1.00  0.00     0.003 A 
HETATM   28  C10 UNL     1      19.451   1.103  49.974  1.00  0.00     0.026 A 
HETATM   29  P1  UNL     1      18.707   0.925  51.388  1.00  0.00     0.030 P 
HETATM   30 CL1  UNL     1      16.718   1.376  51.643  1.00  0.00    -0.087 Cl
ENDBRANCH  21  23
ENDBRANCH   5  21
BRANCH   1  31
HETATM   31  C2  UNL     1      28.950   0.965  53.579  1.00  0.00     0.127 C 
HETATM   32  C1  UNL     1      29.995  -0.143  53.517  1.00  0.00     0.027 C 
ENDBRANCH   1  31
TORSDOF 6
ENDMDL
MODEL 8
REMARK VINA RESULT:      -8.0      4.067      7.529
REMARK  6 active torsions:
REMARK  status: ('A' for Active; 'I' for Inactive)
REMARK    1  A    between atoms: C2_2  and  N1_3 
REMARK    2  A    between atoms: C5_7  and  N3_8 
REMARK    3  A    between atoms: N3_8  and  C6_9 
REMARK    4  A    between atoms: C12_18  and  N5_19 
REMARK    5  A    between atoms: N5_19  and  C13_20 
REMARK    6  A    between atoms: C16_23  and  N6_25 
ROOT
HETATM    1  N1  UNL     1      26.443   0.262  53.286  1.00  0.00    -0.324 N 
HETATM    2  C3  UNL     1      25.777  -0.777  53.852  1.00  0.00     0.212 A 
HETATM    3  N2  UNL     1      24.453  -0.560  53.752  1.00  0.00    -0.236 NA
HETATM    4  C4  UNL     1      24.267   0.599  53.136  1.00  0.00     0.151 A 
HETATM    5  C5  UNL     1      23.205   1.371  52.737  1.00  0.00     0.179 A 
HETATM    6  N4  UNL     1      23.380   2.535  52.113  1.00  0.00    -0.043 NA
HETATM    7  C12 UNL     1      24.604   3.020  51.837  1.00  0.00     0.726 A 
HETATM    8  N7  UNL     1      25.668   2.310  52.203  1.00  0.00    -0.042 NA
HETATM    9  C19 UNL     1      25.518   1.123  52.839  1.00  0.00     0.182 A 
ENDROOT
BRANCH   7  10
HETATM   10  N5  UNL     1      24.755   4.267  51.169  1.00  0.00    -0.218 N 
HETATM   11  H13 UNL     1      24.567   5.151  51.658  1.00  0.00     0.178 HD
BRANCH  10  12
HETATM   12  C13 UNL     1      25.183   4.279  49.769  1.00  0.00     0.102 C 
HETATM   13  C14 UNL     1      24.267   5.080  48.894  1.00  0.00     0.028 C 
HETATM   14  C15 UNL     1      24.991   6.327  48.497  1.00  0.00     0.043 C 
HETATM   15  C16 UNL     1      26.369   6.254  49.098  1.00  0.00     0.153 C 
HETATM   16  C17 UNL     1      27.458   6.441  48.062  1.00  0.00     0.049 C 
HETATM   17  C18 UNL     1      26.555   4.867  49.663  1.00  0.00     0.066 C 
BRANCH  15  18
HETATM   18  N6  UNL     1      26.530   7.248  50.118  1.00  0.00     0.087 N 
HETATM   19  H22 UNL     1      25.713   7.884  50.251  1.00  0.00     0.313 HD
HETATM   20  H23 UNL     1      27.394   7.782  49.951  1.00  0.00     0.313 HD
ENDBRANCH  15  18
ENDBRANCH  10  12
ENDBRANCH   7  10
BRANCH   5  21
HETATM   21  N3  UNL     1      21.896   0.935  52.987  1.00  0.00    -0.347 N 
HETATM   22  H7  UNL     1      21.611   0.450  53.870  1.00  0.00     0.167 HD
BRANCH  21  23
HETATM   23  C6  UNL     1      20.820   1.106  52.072  1.00  0.00     0.101 C 
HETATM   24  C7  UNL     1      19.685   0.428  52.155  1.00  0.00    -0.019 A 
HETATM   25  C8  UNL     1      19.510  -0.545  53.227  1.00  0.00     0.013 A 
HETATM   26  C11 UNL     1      18.668   0.706  51.146  1.00  0.00     0.039 A 
HETATM   27  C9  UNL     1      18.410  -1.264  53.381  1.00  0.00     0.003 A 
HETATM   28  C10 UNL     1      17.230  -1.178  52.502  1.00  0.00     0.026 A 
HETATM   29  P1  UNL     1      17.285  -0.143  51.274  1.00  0.00     0.030 P 
HETATM   30 CL1  UNL     1      15.717   0.086  49.965  1.00  0.00    -0.087 Cl
ENDBRANCH  21  23
ENDBRANCH   5  21
BRANCH   1  31
HETATM   31  C2  UNL     1      27.875   0.354  53.219  1.00  0.00     0.127 C 
HETATM   32  C1  UNL     1      28.397   0.105  54.629  1.00  0.00     0.027 C 
ENDBRANCH   1  31
TORSDOF 6
ENDMDL
MODEL 9
REMARK VINA RESULT:      -8.0      6.840     10.168
REMARK  6 active torsions:
REMARK  status: ('A' for Active; 'I' for Inactive)
REMARK    1  A    between atoms: C2_2  and  N1_3 
REMARK    2  A    between atoms: C5_7  and  N3_8 
REMARK    3  A    between atoms: N3_8  and  C6_9 
REMARK    4  A    between atoms: C12_18  and  N5_19 
REMARK    5  A    between atoms: N5_19  and  C13_20 
REMARK    6  A    between atoms: C16_23  and  N6_25 
ROOT
HETATM    1  N1  UNL     1      33.521   3.197  47.860  1.00  0.00    -0.324 N 
HETATM    2  C3  UNL     1      34.780   3.489  47.444  1.00  0.00     0.212 A 
HETATM    3  N2  UNL     1      34.929   4.826  47.388  1.00  0.00    -0.236 NA
HETATM    4  C4  UNL     1      33.786   5.387  47.759  1.00  0.00     0.151 A 
HETATM    5  C5  UNL     1      33.288   6.656  47.915  1.00  0.00     0.179 A 
HETATM    6  N4  UNL     1      32.039   6.874  48.323  1.00  0.00    -0.043 NA
HETATM    7  C12 UNL     1      31.194   5.867  48.606  1.00  0.00     0.726 A 
HETATM    8  N7  UNL     1      31.628   4.615  48.472  1.00  0.00    -0.042 NA
HETATM    9  C19 UNL     1      32.893   4.366  48.058  1.00  0.00     0.182 A 
ENDROOT
BRANCH   7  10
HETATM   10  N5  UNL     1      29.866   6.135  49.040  1.00  0.00    -0.218 N 
HETATM   11  H13 UNL     1      29.686   6.501  49.982  1.00  0.00     0.178 HD
BRANCH  10  12
HETATM   12  C13 UNL     1      28.753   5.883  48.124  1.00  0.00     0.102 C 
HETATM   13  C14 UNL     1      27.850   4.786  48.602  1.00  0.00     0.028 C 
HETATM   14  C15 UNL     1      26.563   5.412  49.035  1.00  0.00     0.043 C 
HETATM   15  C16 UNL     1      26.673   6.890  48.771  1.00  0.00     0.153 C 
HETATM   16  C17 UNL     1      25.528   7.409  47.926  1.00  0.00     0.049 C 
HETATM   17  C18 UNL     1      27.931   7.125  47.971  1.00  0.00     0.066 C 
BRANCH  15  18
HETATM   18  N6  UNL     1      26.705   7.623  50.002  1.00  0.00     0.087 N 
HETATM   19  H22 UNL     1      26.605   7.046  50.866  1.00  0.00     0.313 HD
HETATM   20  H23 UNL     1      26.004   8.378  49.976  1.00  0.00     0.313 HD
ENDBRANCH  15  18
ENDBRANCH  10  12
ENDBRANCH   7  10
BRANCH   5  21
HETATM   21  N3  UNL     1      34.106   7.761  47.640  1.00  0.00    -0.347 N 
HETATM   22  H7  UNL     1      34.674   8.252  48.371  1.00  0.00     0.167 HD
BRANCH  21  23
HETATM   23  C6  UNL     1      34.251   8.331  46.345  1.00  0.00     0.101 C 
HETATM   24  C7  UNL     1      33.706   9.488  45.997  1.00  0.00    -0.019 A 
HETATM   25  C8  UNL     1      32.914  10.227  46.974  1.00  0.00     0.013 A 
HETATM   26  C11 UNL     1      33.938   9.950  44.633  1.00  0.00     0.039 A 
HETATM   27  C9  UNL     1      32.335  11.387  46.709  1.00  0.00     0.003 A 
HETATM   28  C10 UNL     1      32.412  12.077  45.409  1.00  0.00     0.026 A 
HETATM   29  P1  UNL     1      33.255  11.374  44.236  1.00  0.00     0.030 P 
HETATM   30 CL1  UNL     1      33.451  12.217  42.372  1.00  0.00    -0.087 Cl
ENDBRANCH  21  23
ENDBRANCH   5  21
BRANCH   1  31
HETATM   31  C2  UNL     1      33.023   1.861  48.030  1.00  0.00     0.127 C 
HETATM   32  C1  UNL     1      32.363   1.468  46.714  1.00  0.00     0.027 C 
ENDBRANCH   1  31
TORSDOF 6
ENDMDL
