MODEL 1
REMARK VINA RESULT:      -7.4      0.000      0.000
REMARK  8 active torsions:
REMARK  status: ('A' for Active; 'I' for Inactive)
REMARK    1  A    between atoms: C2_2  and  C3_3 
REMARK    2  A    between atoms: N1_6  and  C6_7 
REMARK    3  A    between atoms: C8_11  and  O1_12 
REMARK    4  A    between atoms: O1_12  and  C9_13 
REMARK    5  A    between atoms: C9_13  and  O2_14 
REMARK    6  A    between atoms: C16_22  and  C17_23 
REMARK    7  A    between atoms: C17_23  and  O4_24 
REMARK    8  A    between atoms: C18_25  and  O5_26 
ROOT
HETATM    1  C6  UNL     1      24.281   3.578  50.786  1.00  0.00     0.143 A 
HETATM    2  N2  UNL     1      24.538   3.352  52.050  1.00  0.00    -0.224 NA
HETATM    3  C7  UNL     1      23.630   2.562  52.838  1.00  0.00     0.233 A 
HETATM    4  N3  UNL     1      22.544   2.033  52.417  1.00  0.00    -0.237 NA
HETATM    5  C8  UNL     1      22.086   2.171  51.078  1.00  0.00     0.211 A 
HETATM    6  C10 UNL     1      21.824   0.918  50.324  1.00  0.00     0.243 C 
HETATM    7  O3  UNL     1      20.852   1.217  49.306  1.00  0.00    -0.357 OA
HETATM    8  C11 UNL     1      21.052   1.955  48.121  1.00  0.00     0.141 C 
HETATM    9  C12 UNL     1      22.042   2.853  47.998  1.00  0.00    -0.039 C 
HETATM   10  C13 UNL     1      22.078   3.527  46.660  1.00  0.00     0.050 C 
HETATM   11  C14 UNL     1      23.062   3.254  48.961  1.00  0.00     0.024 C 
HETATM   12  C15 UNL     1      23.073   2.965  50.253  1.00  0.00     0.048 A 
ENDROOT
BRANCH   1  13
HETATM   13  N1  UNL     1      25.246   4.374  50.113  1.00  0.00    -0.327 N 
HETATM   14  C5  UNL     1      26.298   3.607  49.485  1.00  0.00     0.159 A 
HETATM   15  C4  UNL     1      27.318   4.423  48.815  1.00  0.00     0.007 A 
HETATM   16  C3  UNL     1      27.158   5.731  48.830  1.00  0.00    -0.004 A 
HETATM   17  C18 UNL     1      26.110   6.507  49.435  1.00  0.00     0.103 A 
HETATM   18  C16 UNL     1      25.192   5.795  50.057  1.00  0.00     0.071 A 
BRANCH  16  19
HETATM   19  C2  UNL     1      28.255   6.354  48.128  1.00  0.00     0.004 C 
HETATM   20  C1  UNL     1      29.462   5.806  48.076  1.00  0.00     0.012 C 
ENDBRANCH  16  19
BRANCH  17  21
HETATM   21  O5  UNL     1      26.052   7.889  49.378  1.00  0.00    -0.353 OA
HETATM   22  C19 UNL     1      26.893   8.722  50.145  1.00  0.00     0.210 C 
ENDBRANCH  17  21
BRANCH  18  23
HETATM   23  C17 UNL     1      24.056   6.430  50.765  1.00  0.00     0.224 C 
BRANCH  23  24
HETATM   24  O4  UNL     1      24.560   6.933  51.973  1.00  0.00    -0.395 OA
HETATM   25  H20 UNL     1      23.981   7.639  52.340  1.00  0.00     0.209 HD
ENDBRANCH  23  24
ENDBRANCH  18  23
ENDBRANCH   1  13
BRANCH   5  26
HETATM   26  O1  UNL     1      20.919   2.939  51.110  1.00  0.00    -0.328 OA
BRANCH  26  27
HETATM   27  C9  UNL     1      20.160   2.634  52.201  1.00  0.00     0.338 C 
BRANCH  27  28
HETATM   28  O2  UNL     1      18.961   3.278  52.338  1.00  0.00    -0.377 OA
HETATM   29  H10 UNL     1      18.180   2.804  51.987  1.00  0.00     0.212 HD
ENDBRANCH  27  28
ENDBRANCH  26  27
ENDBRANCH   5  26
TORSDOF 8
ENDMDL
MODEL 2
REMARK VINA RESULT:      -6.9      3.114      5.653
REMARK  8 active torsions:
REMARK  status: ('A' for Active; 'I' for Inactive)
REMARK    1  A    between atoms: C2_2  and  C3_3 
REMARK    2  A    between atoms: N1_6  and  C6_7 
REMARK    3  A    between atoms: C8_11  and  O1_12 
REMARK    4  A    between atoms: O1_12  and  C9_13 
REMARK    5  A    between atoms: C9_13  and  O2_14 
REMARK    6  A    between atoms: C16_22  and  C17_23 
REMARK    7  A    between atoms: C17_23  and  O4_24 
REMARK    8  A    between atoms: C18_25  and  O5_26 
ROOT
HETATM    1  C6  UNL     1      24.367   2.619  51.056  1.00  0.00     0.143 A 
HETATM    2  N2  UNL     1      25.469   3.014  50.470  1.00  0.00    -0.224 NA
HETATM    3  C7  UNL     1      26.733   2.448  50.860  1.00  0.00     0.233 A 
HETATM    4  N3  UNL     1      26.905   1.561  51.765  1.00  0.00    -0.237 NA
HETATM    5  C8  UNL     1      25.834   1.011  52.522  1.00  0.00     0.211 A 
HETATM    6  C10 UNL     1      25.681  -0.466  52.499  1.00  0.00     0.243 C 
HETATM    7  O3  UNL     1      25.009  -0.854  53.711  1.00  0.00    -0.357 OA
HETATM    8  C11 UNL     1      23.651  -0.662  54.037  1.00  0.00     0.141 C 
HETATM    9  C12 UNL     1      22.908   0.297  53.463  1.00  0.00    -0.039 C 
HETATM   10  C13 UNL     1      21.491   0.331  53.950  1.00  0.00     0.050 C 
HETATM   11  C14 UNL     1      23.279   1.287  52.457  1.00  0.00     0.024 C 
HETATM   12  C15 UNL     1      24.509   1.583  52.067  1.00  0.00     0.048 A 
ENDROOT
BRANCH   1  13
HETATM   13  N1  UNL     1      23.184   3.252  50.590  1.00  0.00    -0.327 N 
HETATM   14  C5  UNL     1      22.503   2.518  49.547  1.00  0.00     0.159 A 
HETATM   15  C4  UNL     1      21.297   3.181  49.036  1.00  0.00     0.007 A 
HETATM   16  C3  UNL     1      20.952   4.327  49.587  1.00  0.00    -0.004 A 
HETATM   17  C18 UNL     1      21.607   5.060  50.635  1.00  0.00     0.103 A 
HETATM   18  C16 UNL     1      22.703   4.491  51.097  1.00  0.00     0.071 A 
BRANCH  16  19
HETATM   19  C2  UNL     1      19.751   4.818  48.953  1.00  0.00     0.004 C 
HETATM   20  C1  UNL     1      18.543   4.570  49.442  1.00  0.00     0.012 C 
ENDBRANCH  16  19
BRANCH  17  21
HETATM   21  O5  UNL     1      21.139   6.264  51.134  1.00  0.00    -0.353 OA
HETATM   22  C19 UNL     1      21.395   7.501  50.507  1.00  0.00     0.210 C 
ENDBRANCH  17  21
BRANCH  18  23
HETATM   23  C17 UNL     1      23.524   5.122  52.156  1.00  0.00     0.224 C 
BRANCH  23  24
HETATM   24  O4  UNL     1      24.406   6.005  51.516  1.00  0.00    -0.395 OA
HETATM   25  H20 UNL     1      25.249   5.562  51.272  1.00  0.00     0.209 HD
ENDBRANCH  23  24
ENDBRANCH  18  23
ENDBRANCH   1  13
BRANCH   5  26
HETATM   26  O1  UNL     1      25.993   1.436  53.843  1.00  0.00    -0.328 OA
BRANCH  26  27
HETATM   27  C9  UNL     1      27.313   1.546  54.168  1.00  0.00     0.338 C 
BRANCH  27  28
HETATM   28  O2  UNL     1      27.855   2.801  54.193  1.00  0.00    -0.377 OA
HETATM   29  H10 UNL     1      27.697   3.350  53.398  1.00  0.00     0.212 HD
ENDBRANCH  27  28
ENDBRANCH  26  27
ENDBRANCH   5  26
TORSDOF 8
ENDMDL
MODEL 3
REMARK VINA RESULT:      -6.9      2.670      6.208
REMARK  8 active torsions:
REMARK  status: ('A' for Active; 'I' for Inactive)
REMARK    1  A    between atoms: C2_2  and  C3_3 
REMARK    2  A    between atoms: N1_6  and  C6_7 
REMARK    3  A    between atoms: C8_11  and  O1_12 
REMARK    4  A    between atoms: O1_12  and  C9_13 
REMARK    5  A    between atoms: C9_13  and  O2_14 
REMARK    6  A    between atoms: C16_22  and  C17_23 
REMARK    7  A    between atoms: C17_23  and  O4_24 
REMARK    8  A    between atoms: C18_25  and  O5_26 
ROOT
HETATM    1  C6  UNL     1      23.379   3.901  51.554  1.00  0.00     0.143 A 
HETATM    2  N2  UNL     1      23.696   4.833  52.419  1.00  0.00    -0.224 NA
HETATM    3  C7  UNL     1      23.896   6.187  51.976  1.00  0.00     0.233 A 
HETATM    4  N3  UNL     1      23.797   6.599  50.770  1.00  0.00    -0.237 NA
HETATM    5  C8  UNL     1      23.471   5.739  49.684  1.00  0.00     0.211 A 
HETATM    6  C10 UNL     1      22.292   6.112  48.861  1.00  0.00     0.243 C 
HETATM    7  O3  UNL     1      22.476   5.542  47.552  1.00  0.00    -0.357 OA
HETATM    8  C11 UNL     1      22.372   4.184  47.188  1.00  0.00     0.141 C 
HETATM    9  C12 UNL     1      22.532   3.192  48.077  1.00  0.00    -0.039 C 
HETATM   10  C13 UNL     1      22.382   1.824  47.484  1.00  0.00     0.050 C 
HETATM   11  C14 UNL     1      22.824   3.258  49.506  1.00  0.00     0.024 C 
HETATM   12  C15 UNL     1      23.219   4.331  50.173  1.00  0.00     0.048 A 
ENDROOT
BRANCH   1  13
HETATM   13  N1  UNL     1      23.212   2.604  52.108  1.00  0.00    -0.327 N 
HETATM   14  C5  UNL     1      21.838   2.272  52.409  1.00  0.00     0.159 A 
HETATM   15  C4  UNL     1      21.659   0.945  53.013  1.00  0.00     0.007 A 
HETATM   16  C3  UNL     1      22.736   0.205  53.184  1.00  0.00    -0.004 A 
HETATM   17  C18 UNL     1      24.105   0.513  52.875  1.00  0.00     0.103 A 
HETATM   18  C16 UNL     1      24.290   1.706  52.348  1.00  0.00     0.071 A 
BRANCH  16  19
HETATM   19  C2  UNL     1      22.358  -1.052  53.787  1.00  0.00     0.004 C 
HETATM   20  C1  UNL     1      21.282  -1.172  54.554  1.00  0.00     0.012 C 
ENDBRANCH  16  19
BRANCH  17  21
HETATM   21  O5  UNL     1      25.155  -0.360  53.102  1.00  0.00    -0.353 OA
HETATM   22  C19 UNL     1      25.762  -0.513  54.366  1.00  0.00     0.210 C 
ENDBRANCH  17  21
BRANCH  18  23
HETATM   23  C17 UNL     1      25.640   2.205  51.996  1.00  0.00     0.224 C 
BRANCH  23  24
HETATM   24  O4  UNL     1      26.202   2.723  53.172  1.00  0.00    -0.395 OA
HETATM   25  H20 UNL     1      26.989   3.282  52.982  1.00  0.00     0.209 HD
ENDBRANCH  23  24
ENDBRANCH  18  23
ENDBRANCH   1  13
BRANCH   5  26
HETATM   26  O1  UNL     1      24.597   5.656  48.862  1.00  0.00    -0.328 OA
BRANCH  26  27
HETATM   27  C9  UNL     1      25.438   6.709  49.073  1.00  0.00     0.338 C 
BRANCH  27  28
HETATM   28  O2  UNL     1      26.614   6.458  49.727  1.00  0.00    -0.377 OA
HETATM   29  H10 UNL     1      26.872   7.115  50.405  1.00  0.00     0.212 HD
ENDBRANCH  27  28
ENDBRANCH  26  27
ENDBRANCH   5  26
TORSDOF 8
ENDMDL
MODEL 4
REMARK VINA RESULT:      -6.8      6.555      9.389
REMARK  8 active torsions:
REMARK  status: ('A' for Active; 'I' for Inactive)
REMARK    1  A    between atoms: C2_2  and  C3_3 
REMARK    2  A    between atoms: N1_6  and  C6_7 
REMARK    3  A    between atoms: C8_11  and  O1_12 
REMARK    4  A    between atoms: O1_12  and  C9_13 
REMARK    5  A    between atoms: C9_13  and  O2_14 
REMARK    6  A    between atoms: C16_22  and  C17_23 
REMARK    7  A    between atoms: C17_23  and  O4_24 
REMARK    8  A    between atoms: C18_25  and  O5_26 
ROOT
HETATM    1  C6  UNL     1      30.216   7.161  47.556  1.00  0.00     0.143 A 
HETATM    2  N2  UNL     1      29.181   6.382  47.747  1.00  0.00    -0.224 NA
HETATM    3  C7  UNL     1      27.888   6.957  48.006  1.00  0.00     0.233 A 
HETATM    4  N3  UNL     1      27.628   8.207  48.079  1.00  0.00    -0.237 NA
HETATM    5  C8  UNL     1      28.619   9.213  47.910  1.00  0.00     0.211 A 
HETATM    6  C10 UNL     1      28.371  10.233  46.860  1.00  0.00     0.243 C 
HETATM    7  O3  UNL     1      29.093  11.422  47.227  1.00  0.00    -0.357 OA
HETATM    8  C11 UNL     1      30.487  11.627  47.177  1.00  0.00     0.141 C 
HETATM    9  C12 UNL     1      31.360  10.609  47.210  1.00  0.00    -0.039 C 
HETATM   10  C13 UNL     1      32.793  11.044  47.146  1.00  0.00     0.050 C 
HETATM   11  C14 UNL     1      31.115   9.173  47.297  1.00  0.00     0.024 C 
HETATM   12  C15 UNL     1      29.961   8.594  47.593  1.00  0.00     0.048 A 
ENDROOT
BRANCH   1  13
HETATM   13  N1  UNL     1      31.439   6.481  47.314  1.00  0.00    -0.327 N 
HETATM   14  C5  UNL     1      31.653   6.145  45.924  1.00  0.00     0.159 A 
HETATM   15  C4  UNL     1      32.899   5.412  45.668  1.00  0.00     0.007 A 
HETATM   16  C3  UNL     1      33.685   5.170  46.698  1.00  0.00    -0.004 A 
HETATM   17  C18 UNL     1      33.496   5.512  48.081  1.00  0.00     0.103 A 
HETATM   18  C16 UNL     1      32.374   6.155  48.335  1.00  0.00     0.071 A 
BRANCH  16  19
HETATM   19  C2  UNL     1      34.849   4.444  46.248  1.00  0.00     0.004 C 
HETATM   20  C1  UNL     1      34.969   4.003  45.002  1.00  0.00     0.012 C 
ENDBRANCH  16  19
BRANCH  17  21
HETATM   21  O5  UNL     1      34.406   5.201  49.076  1.00  0.00    -0.353 OA
HETATM   22  C19 UNL     1      35.617   5.902  49.251  1.00  0.00     0.210 C 
ENDBRANCH  17  21
BRANCH  18  23
HETATM   23  C17 UNL     1      31.999   6.558  49.710  1.00  0.00     0.224 C 
BRANCH  23  24
HETATM   24  O4  UNL     1      31.630   5.389  50.391  1.00  0.00    -0.395 OA
HETATM   25  H20 UNL     1      32.120   4.604  50.056  1.00  0.00     0.209 HD
ENDBRANCH  23  24
ENDBRANCH  18  23
ENDBRANCH   1  13
BRANCH   5  26
HETATM   26  O1  UNL     1      28.782   9.852  49.142  1.00  0.00    -0.328 OA
BRANCH  26  27
HETATM   27  C9  UNL     1      27.618   9.851  49.853  1.00  0.00     0.338 C 
BRANCH  27  28
HETATM   28  O2  UNL     1      27.677   9.454  51.161  1.00  0.00    -0.377 OA
HETATM   29  H10 UNL     1      27.447   8.518  51.333  1.00  0.00     0.212 HD
ENDBRANCH  27  28
ENDBRANCH  26  27
ENDBRANCH   5  26
TORSDOF 8
ENDMDL
MODEL 5
REMARK VINA RESULT:      -6.8      3.001      6.757
REMARK  8 active torsions:
REMARK  status: ('A' for Active; 'I' for Inactive)
REMARK    1  A    between atoms: C2_2  and  C3_3 
REMARK    2  A    between atoms: N1_6  and  C6_7 
REMARK    3  A    between atoms: C8_11  and  O1_12 
REMARK    4  A    between atoms: O1_12  and  C9_13 
REMARK    5  A    between atoms: C9_13  and  O2_14 
REMARK    6  A    between atoms: C16_22  and  C17_23 
REMARK    7  A    between atoms: C17_23  and  O4_24 
REMARK    8  A    between atoms: C18_25  and  O5_26 
ROOT
HETATM    1  C6  UNL     1      23.997   2.768  51.064  1.00  0.00     0.143 A 
HETATM    2  N2  UNL     1      24.738   3.533  50.302  1.00  0.00    -0.224 NA
HETATM    3  C7  UNL     1      26.168   3.382  50.305  1.00  0.00     0.233 A 
HETATM    4  N3  UNL     1      26.828   2.543  51.010  1.00  0.00    -0.237 NA
HETATM    5  C8  UNL     1      26.207   1.631  51.908  1.00  0.00     0.211 A 
HETATM    6  C10 UNL     1      26.497   0.188  51.711  1.00  0.00     0.243 C 
HETATM    7  O3  UNL     1      26.315  -0.471  52.977  1.00  0.00    -0.357 OA
HETATM    8  C11 UNL     1      25.098  -0.748  53.631  1.00  0.00     0.141 C 
HETATM    9  C12 UNL     1      23.981  -0.045  53.388  1.00  0.00    -0.039 C 
HETATM   10  C13 UNL     1      22.799  -0.500  54.188  1.00  0.00     0.050 C 
HETATM   11  C14 UNL     1      23.763   1.072  52.474  1.00  0.00     0.024 C 
HETATM   12  C15 UNL     1      24.702   1.772  51.857  1.00  0.00     0.048 A 
ENDROOT
BRANCH   1  13
HETATM   13  N1  UNL     1      22.601   3.013  50.979  1.00  0.00    -0.327 N 
HETATM   14  C5  UNL     1      22.078   3.789  52.082  1.00  0.00     0.159 A 
HETATM   15  C4  UNL     1      20.629   4.019  52.019  1.00  0.00     0.007 A 
HETATM   16  C3  UNL     1      19.980   3.535  50.980  1.00  0.00    -0.004 A 
HETATM   17  C18 UNL     1      20.487   2.778  49.869  1.00  0.00     0.103 A 
HETATM   18  C16 UNL     1      21.783   2.545  49.913  1.00  0.00     0.071 A 
BRANCH  16  19
HETATM   19  C2  UNL     1      18.578   3.861  51.100  1.00  0.00     0.004 C 
HETATM   20  C1  UNL     1      17.695   3.006  51.600  1.00  0.00     0.012 C 
ENDBRANCH  16  19
BRANCH  17  21
HETATM   21  O5  UNL     1      19.695   2.325  48.828  1.00  0.00    -0.353 OA
HETATM   22  C19 UNL     1      19.286   3.153  47.762  1.00  0.00     0.210 C 
ENDBRANCH  17  21
BRANCH  18  23
HETATM   23  C17 UNL     1      22.471   1.752  48.868  1.00  0.00     0.224 C 
BRANCH  23  24
HETATM   24  O4  UNL     1      22.730   2.622  47.801  1.00  0.00    -0.395 OA
HETATM   25  H20 UNL     1      23.552   2.373  47.321  1.00  0.00     0.209 HD
ENDBRANCH  23  24
ENDBRANCH  18  23
ENDBRANCH   1  13
BRANCH   5  26
HETATM   26  O1  UNL     1      26.576   2.001  53.204  1.00  0.00    -0.328 OA
BRANCH  26  27
HETATM   27  C9  UNL     1      27.928   1.930  53.368  1.00  0.00     0.338 C 
BRANCH  27  28
HETATM   28  O2  UNL     1      28.661   3.045  53.068  1.00  0.00    -0.377 OA
HETATM   29  H10 UNL     1      28.670   3.745  53.752  1.00  0.00     0.212 HD
ENDBRANCH  27  28
ENDBRANCH  26  27
ENDBRANCH   5  26
TORSDOF 8
ENDMDL
MODEL 6
REMARK VINA RESULT:      -6.7      3.079      6.074
REMARK  8 active torsions:
REMARK  status: ('A' for Active; 'I' for Inactive)
REMARK    1  A    between atoms: C2_2  and  C3_3 
REMARK    2  A    between atoms: N1_6  and  C6_7 
REMARK    3  A    between atoms: C8_11  and  O1_12 
REMARK    4  A    between atoms: O1_12  and  C9_13 
REMARK    5  A    between atoms: C9_13  and  O2_14 
REMARK    6  A    between atoms: C16_22  and  C17_23 
REMARK    7  A    between atoms: C17_23  and  O4_24 
REMARK    8  A    between atoms: C18_25  and  O5_26 
ROOT
HETATM    1  C6  UNL     1      22.693   1.250  51.650  1.00  0.00     0.143 A 
HETATM    2  N2  UNL     1      22.036   0.496  52.496  1.00  0.00    -0.224 NA
HETATM    3  C7  UNL     1      22.735  -0.153  53.573  1.00  0.00     0.233 A 
HETATM    4  N3  UNL     1      23.990  -0.073  53.802  1.00  0.00    -0.237 NA
HETATM    5  C8  UNL     1      24.877   0.688  52.992  1.00  0.00     0.211 A 
HETATM    6  C10 UNL     1      25.692   1.724  53.675  1.00  0.00     0.243 C 
HETATM    7  O3  UNL     1      26.878   1.935  52.888  1.00  0.00    -0.357 OA
HETATM    8  C11 UNL     1      26.976   2.597  51.647  1.00  0.00     0.141 C 
HETATM    9  C12 UNL     1      25.926   2.723  50.821  1.00  0.00    -0.039 C 
HETATM   10  C13 UNL     1      26.244   3.459  49.555  1.00  0.00     0.050 C 
HETATM   11  C14 UNL     1      24.553   2.255  50.980  1.00  0.00     0.024 C 
HETATM   12  C15 UNL     1      24.120   1.400  51.893  1.00  0.00     0.048 A 
ENDROOT
BRANCH   1  13
HETATM   13  N1  UNL     1      21.898   1.833  50.628  1.00  0.00    -0.327 N 
HETATM   14  C5  UNL     1      21.941   1.113  49.375  1.00  0.00     0.159 A 
HETATM   15  C4  UNL     1      21.148   1.727  48.303  1.00  0.00     0.007 A 
HETATM   16  C3  UNL     1      20.475   2.822  48.593  1.00  0.00    -0.004 A 
HETATM   17  C18 UNL     1      20.407   3.539  49.837  1.00  0.00     0.103 A 
HETATM   18  C16 UNL     1      21.126   3.015  50.809  1.00  0.00     0.071 A 
BRANCH  16  19
HETATM   19  C2  UNL     1      19.765   3.272  47.419  1.00  0.00     0.004 C 
HETATM   20  C1  UNL     1      20.343   4.021  46.488  1.00  0.00     0.012 C 
ENDBRANCH  16  19
BRANCH  17  21
HETATM   21  O5  UNL     1      19.654   4.686  50.018  1.00  0.00    -0.353 OA
HETATM   22  C19 UNL     1      18.261   4.659  50.236  1.00  0.00     0.210 C 
ENDBRANCH  17  21
BRANCH  18  23
HETATM   23  C17 UNL     1      21.202   3.639  52.150  1.00  0.00     0.224 C 
BRANCH  23  24
HETATM   24  O4  UNL     1      20.096   3.177  52.878  1.00  0.00    -0.395 OA
HETATM   25  H20 UNL     1      19.248   3.403  52.432  1.00  0.00     0.209 HD
ENDBRANCH  23  24
ENDBRANCH  18  23
ENDBRANCH   1  13
BRANCH   5  26
HETATM   26  O1  UNL     1      25.727  -0.210  52.341  1.00  0.00    -0.328 OA
BRANCH  26  27
HETATM   27  C9  UNL     1      26.190  -1.160  53.204  1.00  0.00     0.338 C 
BRANCH  27  28
HETATM   28  O2  UNL     1      27.533  -1.173  53.467  1.00  0.00    -0.377 OA
HETATM   29  H10 UNL     1      27.835  -1.853  54.104  1.00  0.00     0.212 HD
ENDBRANCH  27  28
ENDBRANCH  26  27
ENDBRANCH   5  26
TORSDOF 8
ENDMDL
MODEL 7
REMARK VINA RESULT:      -6.5      2.258      6.403
REMARK  8 active torsions:
REMARK  status: ('A' for Active; 'I' for Inactive)
REMARK    1  A    between atoms: C2_2  and  C3_3 
REMARK    2  A    between atoms: N1_6  and  C6_7 
REMARK    3  A    between atoms: C8_11  and  O1_12 
REMARK    4  A    between atoms: O1_12  and  C9_13 
REMARK    5  A    between atoms: C9_13  and  O2_14 
REMARK    6  A    between atoms: C16_22  and  C17_23 
REMARK    7  A    between atoms: C17_23  and  O4_24 
REMARK    8  A    between atoms: C18_25  and  O5_26 
ROOT
HETATM    1  C6  UNL     1      23.260   3.890  51.582  1.00  0.00     0.143 A 
HETATM    2  N2  UNL     1      23.619   4.832  52.420  1.00  0.00    -0.224 NA
HETATM    3  C7  UNL     1      23.941   6.145  51.929  1.00  0.00     0.233 A 
HETATM    4  N3  UNL     1      23.918   6.510  50.703  1.00  0.00    -0.237 NA
HETATM    5  C8  UNL     1      23.564   5.631  49.643  1.00  0.00     0.211 A 
HETATM    6  C10 UNL     1      22.449   6.057  48.760  1.00  0.00     0.243 C 
HETATM    7  O3  UNL     1      22.633   5.417  47.484  1.00  0.00    -0.357 OA
HETATM    8  C11 UNL     1      22.435   4.056  47.172  1.00  0.00     0.141 C 
HETATM    9  C12 UNL     1      22.483   3.095  48.107  1.00  0.00    -0.039 C 
HETATM   10  C13 UNL     1      22.246   1.718  47.566  1.00  0.00     0.050 C 
HETATM   11  C14 UNL     1      22.729   3.202  49.542  1.00  0.00     0.024 C 
HETATM   12  C15 UNL     1      23.184   4.270  50.180  1.00  0.00     0.048 A 
ENDROOT
BRANCH   1  13
HETATM   13  N1  UNL     1      22.972   2.636  52.182  1.00  0.00    -0.327 N 
HETATM   14  C5  UNL     1      24.131   1.786  52.342  1.00  0.00     0.159 A 
HETATM   15  C4  UNL     1      23.837   0.475  52.931  1.00  0.00     0.007 A 
HETATM   16  C3  UNL     1      22.588   0.226  53.272  1.00  0.00    -0.004 A 
HETATM   17  C18 UNL     1      21.429   1.065  53.137  1.00  0.00     0.103 A 
HETATM   18  C16 UNL     1      21.668   2.241  52.593  1.00  0.00     0.071 A 
BRANCH  16  19
HETATM   19  C2  UNL     1      22.501  -1.105  53.827  1.00  0.00     0.004 C 
HETATM   20  C1  UNL     1      22.620  -1.335  55.128  1.00  0.00     0.012 C 
ENDBRANCH  16  19
BRANCH  17  21
HETATM   21  O5  UNL     1      20.160   0.686  53.539  1.00  0.00    -0.353 OA
HETATM   22  C19 UNL     1      19.379  -0.248  52.827  1.00  0.00     0.210 C 
ENDBRANCH  17  21
BRANCH  18  23
HETATM   23  C17 UNL     1      20.586   3.223  52.347  1.00  0.00     0.224 C 
BRANCH  23  24
HETATM   24  O4  UNL     1      19.819   2.726  51.283  1.00  0.00    -0.395 OA
HETATM   25  H20 UNL     1      19.989   1.768  51.130  1.00  0.00     0.209 HD
ENDBRANCH  23  24
ENDBRANCH  18  23
ENDBRANCH   1  13
BRANCH   5  26
HETATM   26  O1  UNL     1      24.709   5.424  48.869  1.00  0.00    -0.328 OA
BRANCH  26  27
HETATM   27  C9  UNL     1      25.549   6.496  48.939  1.00  0.00     0.338 C 
BRANCH  27  28
HETATM   28  O2  UNL     1      26.705   6.348  49.654  1.00  0.00    -0.377 OA
HETATM   29  H10 UNL     1      27.369   5.739  49.270  1.00  0.00     0.212 HD
ENDBRANCH  27  28
ENDBRANCH  26  27
ENDBRANCH   5  26
TORSDOF 8
ENDMDL
MODEL 8
REMARK VINA RESULT:      -6.3      1.510      2.184
REMARK  8 active torsions:
REMARK  status: ('A' for Active; 'I' for Inactive)
REMARK    1  A    between atoms: C2_2  and  C3_3 
REMARK    2  A    between atoms: N1_6  and  C6_7 
REMARK    3  A    between atoms: C8_11  and  O1_12 
REMARK    4  A    between atoms: O1_12  and  C9_13 
REMARK    5  A    between atoms: C9_13  and  O2_14 
REMARK    6  A    between atoms: C16_22  and  C17_23 
REMARK    7  A    between atoms: C17_23  and  O4_24 
REMARK    8  A    between atoms: C18_25  and  O5_26 
ROOT
HETATM    1  C6  UNL     1      24.098   4.353  50.487  1.00  0.00     0.143 A 
HETATM    2  N2  UNL     1      24.327   4.322  51.776  1.00  0.00    -0.224 NA
HETATM    3  C7  UNL     1      23.510   3.504  52.632  1.00  0.00     0.233 A 
HETATM    4  N3  UNL     1      22.534   2.771  52.252  1.00  0.00    -0.237 NA
HETATM    5  C8  UNL     1      22.122   2.675  50.894  1.00  0.00     0.211 A 
HETATM    6  C10 UNL     1      22.082   1.317  50.296  1.00  0.00     0.243 C 
HETATM    7  O3  UNL     1      21.124   1.340  49.222  1.00  0.00    -0.357 OA
HETATM    8  C11 UNL     1      21.267   1.952  47.960  1.00  0.00     0.141 C 
HETATM    9  C12 UNL     1      22.120   2.967  47.752  1.00  0.00    -0.039 C 
HETATM   10  C13 UNL     1      22.118   3.473  46.342  1.00  0.00     0.050 C 
HETATM   11  C14 UNL     1      23.025   3.631  48.685  1.00  0.00     0.024 C 
HETATM   12  C15 UNL     1      23.020   3.505  50.003  1.00  0.00     0.048 A 
ENDROOT
BRANCH   1  13
HETATM   13  N1  UNL     1      24.966   5.199  49.746  1.00  0.00    -0.327 N 
HETATM   14  C5  UNL     1      24.431   6.522  49.515  1.00  0.00     0.159 A 
HETATM   15  C4  UNL     1      25.307   7.393  48.722  1.00  0.00     0.007 A 
HETATM   16  C3  UNL     1      26.469   6.904  48.340  1.00  0.00    -0.004 A 
HETATM   17  C18 UNL     1      27.022   5.598  48.576  1.00  0.00     0.103 A 
HETATM   18  C16 UNL     1      26.244   4.794  49.272  1.00  0.00     0.071 A 
BRANCH  16  19
HETATM   19  C2  UNL     1      27.179   7.902  47.576  1.00  0.00     0.004 C 
HETATM   20  C1  UNL     1      26.838   8.215  46.333  1.00  0.00     0.012 C 
ENDBRANCH  16  19
BRANCH  17  21
HETATM   21  O5  UNL     1      28.268   5.202  48.119  1.00  0.00    -0.353 OA
HETATM   22  C19 UNL     1      29.465   5.827  48.526  1.00  0.00     0.210 C 
ENDBRANCH  17  21
BRANCH  18  23
HETATM   23  C17 UNL     1      26.639   3.400  49.581  1.00  0.00     0.224 C 
BRANCH  23  24
HETATM   24  O4  UNL     1      27.234   3.417  50.850  1.00  0.00    -0.395 OA
HETATM   25  H20 UNL     1      26.634   3.802  51.527  1.00  0.00     0.209 HD
ENDBRANCH  23  24
ENDBRANCH  18  23
ENDBRANCH   1  13
BRANCH   5  26
HETATM   26  O1  UNL     1      20.856   3.257  50.797  1.00  0.00    -0.328 OA
BRANCH  26  27
HETATM   27  C9  UNL     1      20.336   3.509  52.033  1.00  0.00     0.338 C 
BRANCH  27  28
HETATM   28  O2  UNL     1      19.629   2.507  52.638  1.00  0.00    -0.377 OA
HETATM   29  H10 UNL     1      19.623   1.647  52.170  1.00  0.00     0.212 HD
ENDBRANCH  27  28
ENDBRANCH  26  27
ENDBRANCH   5  26
TORSDOF 8
ENDMDL
MODEL 9
REMARK VINA RESULT:      -6.2      2.665      5.518
REMARK  8 active torsions:
REMARK  status: ('A' for Active; 'I' for Inactive)
REMARK    1  A    between atoms: C2_2  and  C3_3 
REMARK    2  A    between atoms: N1_6  and  C6_7 
REMARK    3  A    between atoms: C8_11  and  O1_12 
REMARK    4  A    between atoms: O1_12  and  C9_13 
REMARK    5  A    between atoms: C9_13  and  O2_14 
REMARK    6  A    between atoms: C16_22  and  C17_23 
REMARK    7  A    between atoms: C17_23  and  O4_24 
REMARK    8  A    between atoms: C18_25  and  O5_26 
ROOT
HETATM    1  C6  UNL     1      24.823   5.790  49.871  1.00  0.00     0.143 A 
HETATM    2  N2  UNL     1      25.428   6.820  50.408  1.00  0.00    -0.224 NA
HETATM    3  C7  UNL     1      25.188   8.142  49.896  1.00  0.00     0.233 A 
HETATM    4  N3  UNL     1      24.411   8.436  48.924  1.00  0.00    -0.237 NA
HETATM    5  C8  UNL     1      23.671   7.457  48.204  1.00  0.00     0.211 A 
HETATM    6  C10 UNL     1      22.199   7.642  48.136  1.00  0.00     0.243 C 
HETATM    7  O3  UNL     1      21.730   6.979  46.948  1.00  0.00    -0.357 OA
HETATM    8  C11 UNL     1      21.623   5.590  46.727  1.00  0.00     0.141 C 
HETATM    9  C12 UNL     1      22.356   4.700  47.413  1.00  0.00    -0.039 C 
HETATM   10  C13 UNL     1      22.091   3.278  47.025  1.00  0.00     0.050 C 
HETATM   11  C14 UNL     1      23.352   4.919  48.457  1.00  0.00     0.024 C 
HETATM   12  C15 UNL     1      23.900   6.080  48.783  1.00  0.00     0.048 A 
ENDROOT
BRANCH   1  13
HETATM   13  N1  UNL     1      25.143   4.536  50.456  1.00  0.00    -0.327 N 
HETATM   14  C5  UNL     1      26.252   3.862  49.818  1.00  0.00     0.159 A 
HETATM   15  C4  UNL     1      26.569   2.551  50.396  1.00  0.00     0.007 A 
HETATM   16  C3  UNL     1      25.852   2.149  51.425  1.00  0.00    -0.004 A 
HETATM   17  C18 UNL     1      24.759   2.813  52.082  1.00  0.00     0.103 A 
HETATM   18  C16 UNL     1      24.446   3.986  51.567  1.00  0.00     0.071 A 
BRANCH  16  19
HETATM   19  C2  UNL     1      26.310   0.846  51.847  1.00  0.00     0.004 C 
HETATM   20  C1  UNL     1      27.281   0.694  52.738  1.00  0.00     0.012 C 
ENDBRANCH  16  19
BRANCH  17  21
HETATM   21  O5  UNL     1      24.082   2.282  53.166  1.00  0.00    -0.353 OA
HETATM   22  C19 UNL     1      23.031   1.351  53.029  1.00  0.00     0.210 C 
ENDBRANCH  17  21
BRANCH  18  23
HETATM   23  C17 UNL     1      23.325   4.796  52.096  1.00  0.00     0.224 C 
BRANCH  23  24
HETATM   24  O4  UNL     1      23.742   5.313  53.331  1.00  0.00    -0.395 OA
HETATM   25  H20 UNL     1      23.559   6.277  53.401  1.00  0.00     0.209 HD
ENDBRANCH  23  24
ENDBRANCH  18  23
ENDBRANCH   1  13
BRANCH   5  26
HETATM   26  O1  UNL     1      24.188   7.410  46.907  1.00  0.00    -0.328 OA
BRANCH  26  27
HETATM   27  C9  UNL     1      24.869   8.553  46.608  1.00  0.00     0.338 C 
BRANCH  27  28
HETATM   28  O2  UNL     1      24.166   9.576  46.033  1.00  0.00    -0.377 OA
HETATM   29  H10 UNL     1      23.305   9.788  46.448  1.00  0.00     0.212 HD
ENDBRANCH  27  28
ENDBRANCH  26  27
ENDBRANCH   5  26
TORSDOF 8
ENDMDL
