MODEL 1
REMARK VINA RESULT:      -8.4      0.000      0.000
REMARK  2 active torsions:
REMARK  status: ('A' for Active; 'I' for Inactive)
REMARK    1  A    between atoms: C11_15  and  N3_16 
REMARK    2  A    between atoms: N3_16  and  C12_17 
ROOT
HETATM    1  O1  UNL     1      25.759   4.741  49.386  1.00  0.00    -0.268 OA
HETATM    2  C1  UNL     1      25.351   4.151  50.425  1.00  0.00     0.245 C 
HETATM    3  C2  UNL     1      23.970   4.269  50.878  1.00  0.00     0.070 C 
HETATM    4  C3  UNL     1      23.381   3.986  52.026  1.00  0.00    -0.020 C 
HETATM    5  C4  UNL     1      24.136   3.445  53.148  1.00  0.00     0.045 C 
HETATM    6  C5  UNL     1      24.924   2.189  52.874  1.00  0.00     0.108 C 
HETATM    7  C6  UNL     1      26.212   2.390  52.211  1.00  0.00     0.024 C 
HETATM    8  C7  UNL     1      27.403   1.838  52.394  1.00  0.00     0.027 C 
HETATM    9  C8  UNL     1      27.976   0.837  53.277  1.00  0.00     0.021 C 
HETATM   10  C9  UNL     1      27.590   0.046  54.263  1.00  0.00     0.114 C 
HETATM   11  N1  UNL     1      26.548  -0.434  55.142  1.00  0.00    -0.276 N 
HETATM   12  O2  UNL     1      25.768  -0.317  54.073  1.00  0.00    -0.259 OA
HETATM   13  C10 UNL     1      24.420  -0.210  54.274  1.00  0.00     0.351 C 
HETATM   14  N2  UNL     1      23.818  -0.022  52.937  1.00  0.00    -0.248 NA
HETATM   15  C11 UNL     1      24.076   1.108  52.313  1.00  0.00     0.112 C 
HETATM   16  N4  UNL     1      26.301   3.354  51.152  1.00  0.00    -0.327 N 
HETATM   17  H9  UNL     1      26.578  -0.695  56.140  1.00  0.00     0.193 HD
HETATM   18  H17 UNL     1      27.272   3.557  50.793  1.00  0.00     0.169 HD
ENDROOT
BRANCH  15  19
HETATM   19  N3  UNL     1      23.475   1.179  51.050  1.00  0.00    -0.344 N 
HETATM   20  H12 UNL     1      24.120   1.327  50.214  1.00  0.00     0.167 HD
BRANCH  19  21
HETATM   21  C12 UNL     1      22.083   1.071  50.809  1.00  0.00     0.034 A 
HETATM   22  C13 UNL     1      21.442   1.554  49.696  1.00  0.00     0.029 A 
HETATM   23  C14 UNL     1      20.089   1.460  49.446  1.00  0.00     0.004 A 
HETATM   24  C15 UNL     1      19.289   0.831  50.382  1.00  0.00     0.019 A 
HETATM   25  C16 UNL     1      19.899   0.332  51.513  1.00  0.00     0.013 A 
HETATM   26 BR1  UNL     1      18.816  -0.546  52.826  1.00  0.00    -0.051 Br
HETATM   27  C17 UNL     1      21.255   0.450  51.719  1.00  0.00     0.048 A 
ENDBRANCH  19  21
ENDBRANCH  15  19
TORSDOF 2
ENDMDL
MODEL 2
REMARK VINA RESULT:      -8.4      2.049      4.741
REMARK  2 active torsions:
REMARK  status: ('A' for Active; 'I' for Inactive)
REMARK    1  A    between atoms: C11_15  and  N3_16 
REMARK    2  A    between atoms: N3_16  and  C12_17 
ROOT
HETATM    1  O1  UNL     1      26.643   1.420  54.963  1.00  0.00    -0.268 OA
HETATM    2  C1  UNL     1      26.220   1.720  53.812  1.00  0.00     0.245 C 
HETATM    3  C2  UNL     1      26.632   0.975  52.628  1.00  0.00     0.070 C 
HETATM    4  C3  UNL     1      26.551   1.240  51.336  1.00  0.00    -0.020 C 
HETATM    5  C4  UNL     1      25.961   2.481  50.855  1.00  0.00     0.045 C 
HETATM    6  C5  UNL     1      24.562   2.779  51.330  1.00  0.00     0.108 C 
HETATM    7  C6  UNL     1      24.464   3.349  52.674  1.00  0.00     0.024 C 
HETATM    8  C7  UNL     1      23.711   4.316  53.177  1.00  0.00     0.027 C 
HETATM    9  C8  UNL     1      22.687   5.220  52.683  1.00  0.00     0.021 C 
HETATM   10  C9  UNL     1      22.059   5.485  51.550  1.00  0.00     0.114 C 
HETATM   11  N1  UNL     1      21.852   5.212  50.146  1.00  0.00    -0.276 N 
HETATM   12  O2  UNL     1      22.036   3.943  50.495  1.00  0.00    -0.259 OA
HETATM   13  C10 UNL     1      22.412   3.060  49.522  1.00  0.00     0.351 C 
HETATM   14  N2  UNL     1      22.612   1.762  50.199  1.00  0.00    -0.248 NA
HETATM   15  C11 UNL     1      23.623   1.667  51.037  1.00  0.00     0.112 C 
HETATM   16  N4  UNL     1      25.312   2.831  53.708  1.00  0.00    -0.327 N 
HETATM   17  H9  UNL     1      21.665   5.851  49.358  1.00  0.00     0.193 HD
HETATM   18  H17 UNL     1      25.300   3.356  54.622  1.00  0.00     0.169 HD
ENDROOT
BRANCH  15  19
HETATM   19  N3  UNL     1      23.713   0.406  51.637  1.00  0.00    -0.344 N 
HETATM   20  H12 UNL     1      24.484  -0.244  51.289  1.00  0.00     0.167 HD
BRANCH  19  21
HETATM   21  C12 UNL     1      22.858  -0.065  52.664  1.00  0.00     0.034 A 
HETATM   22  C13 UNL     1      23.274  -0.457  53.911  1.00  0.00     0.029 A 
HETATM   23  C14 UNL     1      22.456  -0.920  54.921  1.00  0.00     0.004 A 
HETATM   24  C15 UNL     1      21.098  -1.006  54.680  1.00  0.00     0.019 A 
HETATM   25  C16 UNL     1      20.643  -0.620  53.437  1.00  0.00     0.013 A 
HETATM   26 BR1  UNL     1      18.765  -0.728  53.076  1.00  0.00    -0.051 Br
HETATM   27  C17 UNL     1      21.498  -0.164  52.460  1.00  0.00     0.048 A 
ENDBRANCH  19  21
ENDBRANCH  15  19
TORSDOF 2
ENDMDL
MODEL 3
REMARK VINA RESULT:      -8.1      3.043      4.510
REMARK  2 active torsions:
REMARK  status: ('A' for Active; 'I' for Inactive)
REMARK    1  A    between atoms: C11_15  and  N3_16 
REMARK    2  A    between atoms: N3_16  and  C12_17 
ROOT
HETATM    1  O1  UNL     1      27.335   0.371  51.637  1.00  0.00    -0.268 OA
HETATM    2  C1  UNL     1      26.265   0.946  51.982  1.00  0.00     0.245 C 
HETATM    3  C2  UNL     1      25.973   2.318  51.585  1.00  0.00     0.070 C 
HETATM    4  C3  UNL     1      25.091   3.203  52.017  1.00  0.00    -0.020 C 
HETATM    5  C4  UNL     1      24.166   2.882  53.095  1.00  0.00     0.045 C 
HETATM    6  C5  UNL     1      23.317   1.653  52.898  1.00  0.00     0.108 C 
HETATM    7  C6  UNL     1      23.975   0.381  53.195  1.00  0.00     0.024 C 
HETATM    8  C7  UNL     1      23.557  -0.715  53.811  1.00  0.00     0.027 C 
HETATM    9  C8  UNL     1      22.331  -1.163  54.449  1.00  0.00     0.021 C 
HETATM   10  C9  UNL     1      21.116  -0.704  54.697  1.00  0.00     0.114 C 
HETATM   11  N1  UNL     1      20.141   0.358  54.603  1.00  0.00    -0.276 N 
HETATM   12  O2  UNL     1      20.671   0.566  53.402  1.00  0.00    -0.259 OA
HETATM   13  C10 UNL     1      20.498   1.796  52.831  1.00  0.00     0.351 C 
HETATM   14  N2  UNL     1      21.243   1.767  51.555  1.00  0.00    -0.248 NA
HETATM   15  C11 UNL     1      22.556   1.698  51.624  1.00  0.00     0.112 C 
HETATM   16  N4  UNL     1      25.338   0.196  52.786  1.00  0.00    -0.327 N 
HETATM   17  H9  UNL     1      19.429   0.679  55.277  1.00  0.00     0.193 HD
HETATM   18  H17 UNL     1      25.810  -0.680  53.133  1.00  0.00     0.169 HD
ENDROOT
BRANCH  15  19
HETATM   19  N3  UNL     1      23.163   1.656  50.363  1.00  0.00    -0.344 N 
HETATM   20  H12 UNL     1      23.938   0.938  50.222  1.00  0.00     0.167 HD
BRANCH  19  21
HETATM   21  C12 UNL     1      22.825   2.496  49.273  1.00  0.00     0.034 A 
HETATM   22  C13 UNL     1      22.146   2.089  48.153  1.00  0.00     0.029 A 
HETATM   23  C14 UNL     1      21.811   2.892  47.083  1.00  0.00     0.004 A 
HETATM   24  C15 UNL     1      22.181   4.223  47.118  1.00  0.00     0.019 A 
HETATM   25  C16 UNL     1      22.865   4.668  48.228  1.00  0.00     0.013 A 
HETATM   26 BR1  UNL     1      23.389   6.509  48.304  1.00  0.00    -0.051 Br
HETATM   27  C17 UNL     1      23.177   3.829  49.273  1.00  0.00     0.048 A 
ENDBRANCH  19  21
ENDBRANCH  15  19
TORSDOF 2
ENDMDL
MODEL 4
REMARK VINA RESULT:      -8.1      2.770      5.678
REMARK  2 active torsions:
REMARK  status: ('A' for Active; 'I' for Inactive)
REMARK    1  A    between atoms: C11_15  and  N3_16 
REMARK    2  A    between atoms: N3_16  and  C12_17 
ROOT
HETATM    1  O1  UNL     1      25.395   6.915  50.607  1.00  0.00    -0.268 OA
HETATM    2  C1  UNL     1      24.973   5.730  50.497  1.00  0.00     0.245 C 
HETATM    3  C2  UNL     1      25.817   4.663  49.972  1.00  0.00     0.070 C 
HETATM    4  C3  UNL     1      25.545   3.451  49.523  1.00  0.00    -0.020 C 
HETATM    5  C4  UNL     1      24.179   2.948  49.487  1.00  0.00     0.045 C 
HETATM    6  C5  UNL     1      23.423   2.983  50.790  1.00  0.00     0.108 C 
HETATM    7  C6  UNL     1      22.849   4.281  51.147  1.00  0.00     0.024 C 
HETATM    8  C7  UNL     1      21.682   4.623  51.674  1.00  0.00     0.027 C 
HETATM    9  C8  UNL     1      20.486   3.933  52.124  1.00  0.00     0.021 C 
HETATM   10  C9  UNL     1      20.028   2.696  52.215  1.00  0.00     0.114 C 
HETATM   11  N1  UNL     1      20.219   1.278  52.011  1.00  0.00    -0.276 N 
HETATM   12  O2  UNL     1      21.474   1.524  52.372  1.00  0.00    -0.259 OA
HETATM   13  C10 UNL     1      22.435   0.629  51.994  1.00  0.00     0.351 C 
HETATM   14  N2  UNL     1      23.722   1.185  52.461  1.00  0.00    -0.248 NA
HETATM   15  C11 UNL     1      24.152   2.285  51.878  1.00  0.00     0.112 C 
HETATM   16  N4  UNL     1      23.621   5.466  50.910  1.00  0.00    -0.327 N 
HETATM   17  H9  UNL     1      19.557   0.547  51.707  1.00  0.00     0.193 HD
HETATM   18  H17 UNL     1      23.119   6.382  51.061  1.00  0.00     0.169 HD
ENDROOT
BRANCH  15  19
HETATM   19  N3  UNL     1      25.367   2.738  52.405  1.00  0.00    -0.344 N 
HETATM   20  H12 UNL     1      25.475   3.790  52.541  1.00  0.00     0.167 HD
BRANCH  19  21
HETATM   21  C12 UNL     1      26.455   1.904  52.763  1.00  0.00     0.034 A 
HETATM   22  C13 UNL     1      27.621   2.343  53.339  1.00  0.00     0.029 A 
HETATM   23  C14 UNL     1      28.690   1.547  53.691  1.00  0.00     0.004 A 
HETATM   24  C15 UNL     1      28.605   0.188  53.455  1.00  0.00     0.019 A 
HETATM   25  C16 UNL     1      27.447  -0.290  52.878  1.00  0.00     0.013 A 
HETATM   26 BR1  UNL     1      27.301  -2.169  52.540  1.00  0.00    -0.051 Br
HETATM   27  C17 UNL     1      26.406   0.544  52.543  1.00  0.00     0.048 A 
ENDBRANCH  19  21
ENDBRANCH  15  19
TORSDOF 2
ENDMDL
MODEL 5
REMARK VINA RESULT:      -8.0      3.621      6.046
REMARK  2 active torsions:
REMARK  status: ('A' for Active; 'I' for Inactive)
REMARK    1  A    between atoms: C11_15  and  N3_16 
REMARK    2  A    between atoms: N3_16  and  C12_17 
ROOT
HETATM    1  O1  UNL     1      28.146   4.728  48.994  1.00  0.00    -0.268 OA
HETATM    2  C1  UNL     1      26.904   4.584  49.166  1.00  0.00     0.245 C 
HETATM    3  C2  UNL     1      26.305   3.266  49.349  1.00  0.00     0.070 C 
HETATM    4  C3  UNL     1      25.057   2.837  49.282  1.00  0.00    -0.020 C 
HETATM    5  C4  UNL     1      23.962   3.745  48.973  1.00  0.00     0.045 C 
HETATM    6  C5  UNL     1      23.836   4.959  49.857  1.00  0.00     0.108 C 
HETATM    7  C6  UNL     1      24.736   6.066  49.536  1.00  0.00     0.024 C 
HETATM    8  C7  UNL     1      24.555   7.379  49.497  1.00  0.00     0.027 C 
HETATM    9  C8  UNL     1      23.456   8.298  49.736  1.00  0.00     0.021 C 
HETATM   10  C9  UNL     1      22.183   8.253  50.090  1.00  0.00     0.114 C 
HETATM   11  N1  UNL     1      21.019   7.482  50.462  1.00  0.00    -0.276 N 
HETATM   12  O2  UNL     1      21.890   6.715  51.108  1.00  0.00    -0.259 OA
HETATM   13  C10 UNL     1      21.520   5.432  51.401  1.00  0.00     0.351 C 
HETATM   14  N2  UNL     1      22.691   4.801  52.044  1.00  0.00    -0.248 NA
HETATM   15  C11 UNL     1      23.754   4.597  51.295  1.00  0.00     0.112 C 
HETATM   16  N4  UNL     1      26.093   5.771  49.174  1.00  0.00    -0.327 N 
HETATM   17  H9  UNL     1      20.023   7.613  50.228  1.00  0.00     0.193 HD
HETATM   18  H17 UNL     1      26.666   6.585  48.826  1.00  0.00     0.169 HD
ENDROOT
BRANCH  15  19
HETATM   19  N3  UNL     1      24.812   4.013  52.002  1.00  0.00    -0.344 N 
HETATM   20  H12 UNL     1      25.694   4.599  52.127  1.00  0.00     0.167 HD
BRANCH  19  21
HETATM   21  C12 UNL     1      24.793   2.710  52.557  1.00  0.00     0.034 A 
HETATM   22  C13 UNL     1      23.717   1.859  52.520  1.00  0.00     0.029 A 
HETATM   23  C14 UNL     1      23.680   0.589  53.057  1.00  0.00     0.004 A 
HETATM   24  C15 UNL     1      24.811   0.110  53.692  1.00  0.00     0.019 A 
HETATM   25  C16 UNL     1      25.912   0.937  53.748  1.00  0.00     0.013 A 
HETATM   26 BR1  UNL     1      27.493   0.299  54.620  1.00  0.00    -0.051 Br
HETATM   27  C17 UNL     1      25.902   2.199  53.197  1.00  0.00     0.048 A 
ENDBRANCH  19  21
ENDBRANCH  15  19
TORSDOF 2
ENDMDL
MODEL 6
REMARK VINA RESULT:      -7.9      3.244      5.375
REMARK  2 active torsions:
REMARK  status: ('A' for Active; 'I' for Inactive)
REMARK    1  A    between atoms: C11_15  and  N3_16 
REMARK    2  A    between atoms: N3_16  and  C12_17 
ROOT
HETATM    1  O1  UNL     1      18.803   3.688  51.855  1.00  0.00    -0.268 OA
HETATM    2  C1  UNL     1      19.812   2.945  51.703  1.00  0.00     0.245 C 
HETATM    3  C2  UNL     1      20.692   3.077  50.547  1.00  0.00     0.070 C 
HETATM    4  C3  UNL     1      21.618   2.285  50.037  1.00  0.00    -0.020 C 
HETATM    5  C4  UNL     1      21.926   0.996  50.641  1.00  0.00     0.045 C 
HETATM    6  C5  UNL     1      22.295   1.020  52.102  1.00  0.00     0.108 C 
HETATM    7  C6  UNL     1      21.169   1.094  53.033  1.00  0.00     0.024 C 
HETATM    8  C7  UNL     1      20.925   0.488  54.186  1.00  0.00     0.027 C 
HETATM    9  C8  UNL     1      21.604  -0.476  55.033  1.00  0.00     0.021 C 
HETATM   10  C9  UNL     1      22.732  -1.166  55.047  1.00  0.00     0.114 C 
HETATM   11  N1  UNL     1      23.987  -1.516  54.421  1.00  0.00    -0.276 N 
HETATM   12  O2  UNL     1      24.024  -0.235  54.070  1.00  0.00    -0.259 OA
HETATM   13  C10 UNL     1      24.811   0.115  53.009  1.00  0.00     0.351 C 
HETATM   14  N2  UNL     1      24.604   1.563  52.802  1.00  0.00    -0.248 NA
HETATM   15  C11 UNL     1      23.418   1.950  52.381  1.00  0.00     0.112 C 
HETATM   16  N4  UNL     1      20.067   1.956  52.716  1.00  0.00    -0.327 N 
HETATM   17  H9  UNL     1      24.480  -2.420  54.363  1.00  0.00     0.193 HD
HETATM   18  H17 UNL     1      19.225   1.880  53.346  1.00  0.00     0.169 HD
ENDROOT
BRANCH  15  19
HETATM   19  N3  UNL     1      23.320   3.339  52.235  1.00  0.00    -0.344 N 
HETATM   20  H12 UNL     1      22.599   3.840  52.838  1.00  0.00     0.167 HD
BRANCH  19  21
HETATM   21  C12 UNL     1      24.105   4.117  51.349  1.00  0.00     0.034 A 
HETATM   22  C13 UNL     1      25.093   3.621  50.536  1.00  0.00     0.029 A 
HETATM   23  C14 UNL     1      25.868   4.364  49.670  1.00  0.00     0.004 A 
HETATM   24  C15 UNL     1      25.651   5.727  49.598  1.00  0.00     0.019 A 
HETATM   25  C16 UNL     1      24.666   6.261  50.401  1.00  0.00     0.013 A 
HETATM   26 BR1  UNL     1      24.343   8.148  50.320  1.00  0.00    -0.051 Br
HETATM   27  C17 UNL     1      23.917   5.479  51.250  1.00  0.00     0.048 A 
ENDBRANCH  19  21
ENDBRANCH  15  19
TORSDOF 2
ENDMDL
MODEL 7
REMARK VINA RESULT:      -7.9      6.253      9.229
REMARK  2 active torsions:
REMARK  status: ('A' for Active; 'I' for Inactive)
REMARK    1  A    between atoms: C11_15  and  N3_16 
REMARK    2  A    between atoms: N3_16  and  C12_17 
ROOT
HETATM    1  O1  UNL     1      30.964   5.588  49.332  1.00  0.00    -0.268 OA
HETATM    2  C1  UNL     1      30.186   6.466  48.865  1.00  0.00     0.245 C 
HETATM    3  C2  UNL     1      28.932   6.108  48.213  1.00  0.00     0.070 C 
HETATM    4  C3  UNL     1      28.105   6.786  47.438  1.00  0.00    -0.020 C 
HETATM    5  C4  UNL     1      28.371   8.172  47.080  1.00  0.00     0.045 C 
HETATM    6  C5  UNL     1      28.587   9.125  48.227  1.00  0.00     0.108 C 
HETATM    7  C6  UNL     1      29.926   9.105  48.816  1.00  0.00     0.024 C 
HETATM    8  C7  UNL     1      30.727  10.072  49.239  1.00  0.00     0.027 C 
HETATM    9  C8  UNL     1      30.675  11.522  49.324  1.00  0.00     0.021 C 
HETATM   10  C9  UNL     1      29.841  12.504  49.031  1.00  0.00     0.114 C 
HETATM   11  N1  UNL     1      28.569  12.944  48.505  1.00  0.00    -0.276 N 
HETATM   12  O2  UNL     1      28.091  11.852  49.092  1.00  0.00    -0.259 OA
HETATM   13  C10 UNL     1      26.902  11.352  48.641  1.00  0.00     0.351 C 
HETATM   14  N2  UNL     1      26.656  10.116  49.413  1.00  0.00    -0.248 NA
HETATM   15  C11 UNL     1      27.462   9.098  49.196  1.00  0.00     0.112 C 
HETATM   16  N4  UNL     1      30.581   7.842  49.000  1.00  0.00    -0.327 N 
HETATM   17  H9  UNL     1      28.327  13.769  47.933  1.00  0.00     0.193 HD
HETATM   18  H17 UNL     1      31.590   7.885  49.305  1.00  0.00     0.169 HD
ENDROOT
BRANCH  15  19
HETATM   19  N3  UNL     1      27.156   7.985  49.988  1.00  0.00    -0.344 N 
HETATM   20  H12 UNL     1      27.961   7.534  50.522  1.00  0.00     0.167 HD
BRANCH  19  21
HETATM   21  C12 UNL     1      25.864   7.421  50.127  1.00  0.00     0.034 A 
HETATM   22  C13 UNL     1      24.741   8.118  50.493  1.00  0.00     0.029 A 
HETATM   23  C14 UNL     1      23.477   7.584  50.636  1.00  0.00     0.004 A 
HETATM   24  C15 UNL     1      23.302   6.235  50.396  1.00  0.00     0.019 A 
HETATM   25  C16 UNL     1      24.409   5.502  50.025  1.00  0.00     0.013 A 
HETATM   26 BR1  UNL     1      24.195   3.629  49.685  1.00  0.00    -0.051 Br
HETATM   27  C17 UNL     1      25.651   6.078  49.896  1.00  0.00     0.048 A 
ENDBRANCH  19  21
ENDBRANCH  15  19
TORSDOF 2
ENDMDL
MODEL 8
REMARK VINA RESULT:      -7.8      3.622      5.416
REMARK  2 active torsions:
REMARK  status: ('A' for Active; 'I' for Inactive)
REMARK    1  A    between atoms: C11_15  and  N3_16 
REMARK    2  A    between atoms: N3_16  and  C12_17 
ROOT
HETATM    1  O1  UNL     1      19.783   3.236  52.592  1.00  0.00    -0.268 OA
HETATM    2  C1  UNL     1      21.033   3.253  52.416  1.00  0.00     0.245 C 
HETATM    3  C2  UNL     1      21.842   2.049  52.567  1.00  0.00     0.070 C 
HETATM    4  C3  UNL     1      23.143   1.860  52.696  1.00  0.00    -0.020 C 
HETATM    5  C4  UNL     1      24.072   2.982  52.708  1.00  0.00     0.045 C 
HETATM    6  C5  UNL     1      24.000   3.916  51.528  1.00  0.00     0.108 C 
HETATM    7  C6  UNL     1      22.927   4.909  51.578  1.00  0.00     0.024 C 
HETATM    8  C7  UNL     1      22.888   6.195  51.259  1.00  0.00     0.027 C 
HETATM    9  C8  UNL     1      23.821   7.180  50.740  1.00  0.00     0.021 C 
HETATM   10  C9  UNL     1      25.085   7.247  50.360  1.00  0.00     0.114 C 
HETATM   11  N1  UNL     1      26.363   6.602  50.161  1.00  0.00    -0.276 N 
HETATM   12  O2  UNL     1      25.634   5.559  49.778  1.00  0.00    -0.259 OA
HETATM   13  C10 UNL     1      26.213   4.323  49.823  1.00  0.00     0.351 C 
HETATM   14  N2  UNL     1      25.166   3.362  49.419  1.00  0.00    -0.248 NA
HETATM   15  C11 UNL     1      24.147   3.199  50.237  1.00  0.00     0.112 C 
HETATM   16  N4  UNL     1      21.636   4.508  52.059  1.00  0.00    -0.327 N 
HETATM   17  H9  UNL     1      27.322   6.950  50.312  1.00  0.00     0.193 HD
HETATM   18  H17 UNL     1      20.934   5.283  52.200  1.00  0.00     0.169 HD
ENDROOT
BRANCH  15  19
HETATM   19  N3  UNL     1      23.204   2.284  49.753  1.00  0.00    -0.344 N 
HETATM   20  H12 UNL     1      23.300   1.272  50.077  1.00  0.00     0.167 HD
BRANCH  19  21
HETATM   21  C12 UNL     1      22.144   2.605  48.871  1.00  0.00     0.034 A 
HETATM   22  C13 UNL     1      20.836   2.229  49.049  1.00  0.00     0.029 A 
HETATM   23  C14 UNL     1      19.792   2.530  48.199  1.00  0.00     0.004 A 
HETATM   24  C15 UNL     1      20.061   3.271  47.064  1.00  0.00     0.019 A 
HETATM   25  C16 UNL     1      21.365   3.666  46.851  1.00  0.00     0.013 A 
HETATM   26 BR1  UNL     1      21.766   4.695  45.286  1.00  0.00    -0.051 Br
HETATM   27  C17 UNL     1      22.374   3.342  47.729  1.00  0.00     0.048 A 
ENDBRANCH  19  21
ENDBRANCH  15  19
TORSDOF 2
ENDMDL
MODEL 9
REMARK VINA RESULT:      -7.8      3.025      5.636
REMARK  2 active torsions:
REMARK  status: ('A' for Active; 'I' for Inactive)
REMARK    1  A    between atoms: C11_15  and  N3_16 
REMARK    2  A    between atoms: N3_16  and  C12_17 
ROOT
HETATM    1  O1  UNL     1      21.969   0.990  47.480  1.00  0.00    -0.268 OA
HETATM    2  C1  UNL     1      21.916   1.654  48.552  1.00  0.00     0.245 C 
HETATM    3  C2  UNL     1      21.258   1.131  49.743  1.00  0.00     0.070 C 
HETATM    4  C3  UNL     1      20.847   1.706  50.859  1.00  0.00    -0.020 C 
HETATM    5  C4  UNL     1      21.019   3.135  51.080  1.00  0.00     0.045 C 
HETATM    6  C5  UNL     1      22.424   3.664  50.946  1.00  0.00     0.108 C 
HETATM    7  C6  UNL     1      22.876   3.904  49.576  1.00  0.00     0.024 C 
HETATM    8  C7  UNL     1      23.580   4.885  49.030  1.00  0.00     0.027 C 
HETATM    9  C8  UNL     1      24.205   6.114  49.487  1.00  0.00     0.021 C 
HETATM   10  C9  UNL     1      24.355   6.794  50.612  1.00  0.00     0.114 C 
HETATM   11  N1  UNL     1      24.113   6.925  52.030  1.00  0.00    -0.276 N 
HETATM   12  O2  UNL     1      24.277   5.607  52.052  1.00  0.00    -0.259 OA
HETATM   13  C10 UNL     1      23.747   4.914  53.104  1.00  0.00     0.351 C 
HETATM   14  N2  UNL     1      24.013   3.486  52.833  1.00  0.00    -0.248 NA
HETATM   15  C11 UNL     1      23.380   2.936  51.818  1.00  0.00     0.112 C 
HETATM   16  N4  UNL     1      22.532   2.954  48.558  1.00  0.00    -0.327 N 
HETATM   17  H9  UNL     1      23.909   7.759  52.603  1.00  0.00     0.193 HD
HETATM   18  H17 UNL     1      22.766   3.232  47.568  1.00  0.00     0.169 HD
ENDROOT
BRANCH  15  19
HETATM   19  N3  UNL     1      23.715   1.589  51.635  1.00  0.00    -0.344 N 
HETATM   20  H12 UNL     1      23.504   1.162  50.682  1.00  0.00     0.167 HD
BRANCH  19  21
HETATM   21  C12 UNL     1      24.308   0.762  52.620  1.00  0.00     0.034 A 
HETATM   22  C13 UNL     1      23.614   0.046  53.563  1.00  0.00     0.029 A 
HETATM   23  C14 UNL     1      24.175  -0.761  54.530  1.00  0.00     0.004 A 
HETATM   24  C15 UNL     1      25.552  -0.875  54.575  1.00  0.00     0.019 A 
HETATM   25  C16 UNL     1      26.283  -0.171  53.642  1.00  0.00     0.013 A 
HETATM   26 BR1  UNL     1      28.193  -0.311  53.680  1.00  0.00    -0.051 Br
HETATM   27  C17 UNL     1      25.678   0.624  52.695  1.00  0.00     0.048 A 
ENDBRANCH  19  21
ENDBRANCH  15  19
TORSDOF 2
ENDMDL
