MODEL 1
REMARK VINA RESULT:      -8.0      0.000      0.000
REMARK  8 active torsions:
REMARK  status: ('A' for Active; 'I' for Inactive)
REMARK    1  A    between atoms: C2_2  and  C3_3 
REMARK       I    between atoms: C3_3  and  N1_5 
REMARK    2  A    between atoms: N1_5  and  C4_6 
REMARK    3  A    between atoms: C4_6  and  C5_7 
REMARK    4  A    between atoms: C5_7  and  C6_8 
REMARK    5  A    between atoms: C6_8  and  C7_9 
REMARK    6  A    between atoms: C10_14  and  C11_15 
REMARK    7  A    between atoms: C14_18  and  C15_19 
REMARK    8  A    between atoms: C15_19  and  N4_22 
ROOT
HETATM    1  C7  UNL     1      22.876  -0.508  53.595  1.00  0.00    -0.012 A 
HETATM    2  C8  UNL     1      22.075  -1.588  54.211  1.00  0.00     0.191 A 
HETATM    3  N2  UNL     1      20.664  -1.197  54.231  1.00  0.00    -0.278 NA
HETATM    4  C9  UNL     1      20.264  -0.088  53.742  1.00  0.00     0.227 A 
HETATM    5  N3  UNL     1      21.090   0.874  53.143  1.00  0.00    -0.241 NA
HETATM    6  C10 UNL     1      22.358   0.722  53.040  1.00  0.00     0.076 A 
ENDROOT
BRANCH   6   7
HETATM    7  C11 UNL     1      23.076   1.794  52.396  1.00  0.00    -0.007 A 
HETATM    8  C12 UNL     1      23.044   1.777  50.995  1.00  0.00     0.014 A 
HETATM    9  C13 UNL     1      23.673   2.699  50.189  1.00  0.00     0.011 A 
HETATM   10  C14 UNL     1      24.397   3.728  50.740  1.00  0.00    -0.021 A 
HETATM   11  C18 UNL     1      24.482   3.821  52.109  1.00  0.00     0.011 A 
HETATM   12  C19 UNL     1      23.821   2.855  52.817  1.00  0.00     0.014 A 
BRANCH  10  13
HETATM   13  C15 UNL     1      25.077   4.725  49.900  1.00  0.00     0.175 C 
HETATM   14  C16 UNL     1      26.398   4.224  49.348  1.00  0.00     0.054 C 
HETATM   15  C17 UNL     1      24.247   5.202  48.746  1.00  0.00     0.054 C 
BRANCH  13  16
HETATM   16  N4  UNL     1      25.377   5.881  50.731  1.00  0.00     0.091 N 
HETATM   17  H21 UNL     1      26.417   5.980  50.728  1.00  0.00     0.314 HD
HETATM   18  H22 UNL     1      24.990   6.713  50.229  1.00  0.00     0.314 HD
ENDBRANCH  13  16
ENDBRANCH  10  13
ENDBRANCH   6   7
BRANCH   1  19
HETATM   19  C6  UNL     1      24.179  -0.721  53.598  1.00  0.00    -0.014 C 
BRANCH  19  20
HETATM   20  C5  UNL     1      24.937  -0.824  54.858  1.00  0.00     0.047 C 
BRANCH  20  21
HETATM   21  C4  UNL     1      26.097   0.160  54.969  1.00  0.00     0.126 C 
BRANCH  21  22
HETATM   22  N1  UNL     1      27.274  -0.453  54.396  1.00  0.00    -0.357 N 
HETATM   23  C3  UNL     1      28.613   0.010  54.467  1.00  0.00     0.240 C 
HETATM   24  O1  UNL     1      28.870   1.059  55.078  1.00  0.00    -0.269 OA
HETATM   25  H4  UNL     1      27.163  -1.359  53.852  1.00  0.00     0.162 HD
BRANCH  23  26
HETATM   26  C2  UNL     1      29.703  -0.704  53.845  1.00  0.00     0.064 C 
HETATM   27  C1  UNL     1      29.532  -1.902  53.311  1.00  0.00     0.017 C 
ENDBRANCH  23  26
ENDBRANCH  21  22
ENDBRANCH  20  21
ENDBRANCH  19  20
ENDBRANCH   1  19
TORSDOF 8
ENDMDL
MODEL 2
REMARK VINA RESULT:      -7.9      2.056      3.185
REMARK  8 active torsions:
REMARK  status: ('A' for Active; 'I' for Inactive)
REMARK    1  A    between atoms: C2_2  and  C3_3 
REMARK       I    between atoms: C3_3  and  N1_5 
REMARK    2  A    between atoms: N1_5  and  C4_6 
REMARK    3  A    between atoms: C4_6  and  C5_7 
REMARK    4  A    between atoms: C5_7  and  C6_8 
REMARK    5  A    between atoms: C6_8  and  C7_9 
REMARK    6  A    between atoms: C10_14  and  C11_15 
REMARK    7  A    between atoms: C14_18  and  C15_19 
REMARK    8  A    between atoms: C15_19  and  N4_22 
ROOT
HETATM    1  C7  UNL     1      23.204   1.782  51.327  1.00  0.00    -0.012 A 
HETATM    2  C8  UNL     1      22.150   0.781  51.601  1.00  0.00     0.191 A 
HETATM    3  N2  UNL     1      21.344   0.581  50.395  1.00  0.00    -0.278 NA
HETATM    4  C9  UNL     1      21.599   1.193  49.304  1.00  0.00     0.227 A 
HETATM    5  N3  UNL     1      22.643   2.109  49.118  1.00  0.00    -0.241 NA
HETATM    6  C10 UNL     1      23.453   2.428  50.058  1.00  0.00     0.076 A 
ENDROOT
BRANCH   6   7
HETATM    7  C11 UNL     1      24.481   3.379  49.716  1.00  0.00    -0.007 A 
HETATM    8  C12 UNL     1      24.021   4.662  49.386  1.00  0.00     0.014 A 
HETATM    9  C13 UNL     1      24.835   5.711  49.018  1.00  0.00     0.011 A 
HETATM   10  C14 UNL     1      26.196   5.548  48.951  1.00  0.00    -0.021 A 
HETATM   11  C18 UNL     1      26.734   4.320  49.258  1.00  0.00     0.011 A 
HETATM   12  C19 UNL     1      25.839   3.346  49.611  1.00  0.00     0.014 A 
BRANCH  10  13
HETATM   13  C15 UNL     1      27.084   6.653  48.562  1.00  0.00     0.175 C 
HETATM   14  C16 UNL     1      28.462   6.178  48.141  1.00  0.00     0.054 C 
HETATM   15  C17 UNL     1      26.533   7.504  47.457  1.00  0.00     0.054 C 
BRANCH  13  16
HETATM   16  N4  UNL     1      27.269   7.510  49.723  1.00  0.00     0.091 N 
HETATM   17  H21 UNL     1      27.820   6.952  50.413  1.00  0.00     0.314 HD
HETATM   18  H22 UNL     1      27.879   8.300  49.412  1.00  0.00     0.314 HD
ENDBRANCH  13  16
ENDBRANCH  10  13
ENDBRANCH   6   7
BRANCH   1  19
HETATM   19  C6  UNL     1      23.944   2.100  52.374  1.00  0.00    -0.014 C 
BRANCH  19  20
HETATM   20  C5  UNL     1      25.134   1.314  52.740  1.00  0.00     0.047 C 
BRANCH  20  21
HETATM   21  C4  UNL     1      26.041   1.993  53.761  1.00  0.00     0.126 C 
BRANCH  21  22
HETATM   22  N1  UNL     1      27.402   1.572  53.517  1.00  0.00    -0.357 N 
HETATM   23  C3  UNL     1      28.085   0.471  54.095  1.00  0.00     0.240 C 
HETATM   24  O1  UNL     1      27.500  -0.255  54.914  1.00  0.00    -0.269 OA
HETATM   25  H4  UNL     1      27.992   2.127  52.828  1.00  0.00     0.162 HD
BRANCH  23  26
HETATM   26  C2  UNL     1      29.455   0.161  53.762  1.00  0.00     0.064 C 
HETATM   27  C1  UNL     1      29.874  -1.087  53.638  1.00  0.00     0.017 C 
ENDBRANCH  23  26
ENDBRANCH  21  22
ENDBRANCH  20  21
ENDBRANCH  19  20
ENDBRANCH   1  19
TORSDOF 8
ENDMDL
MODEL 3
REMARK VINA RESULT:      -7.7      2.430      5.321
REMARK  8 active torsions:
REMARK  status: ('A' for Active; 'I' for Inactive)
REMARK    1  A    between atoms: C2_2  and  C3_3 
REMARK       I    between atoms: C3_3  and  N1_5 
REMARK    2  A    between atoms: N1_5  and  C4_6 
REMARK    3  A    between atoms: C4_6  and  C5_7 
REMARK    4  A    between atoms: C5_7  and  C6_8 
REMARK    5  A    between atoms: C6_8  and  C7_9 
REMARK    6  A    between atoms: C10_14  and  C11_15 
REMARK    7  A    between atoms: C14_18  and  C15_19 
REMARK    8  A    between atoms: C15_19  and  N4_22 
ROOT
HETATM    1  C7  UNL     1      27.594   0.330  52.995  1.00  0.00    -0.012 A 
HETATM    2  C8  UNL     1      28.787  -0.293  53.608  1.00  0.00     0.191 A 
HETATM    3  N2  UNL     1      29.619   0.745  54.220  1.00  0.00    -0.278 NA
HETATM    4  C9  UNL     1      29.279   1.975  54.210  1.00  0.00     0.227 A 
HETATM    5  N3  UNL     1      28.108   2.483  53.631  1.00  0.00    -0.241 NA
HETATM    6  C10 UNL     1      27.255   1.735  53.035  1.00  0.00     0.076 A 
ENDROOT
BRANCH   6   7
HETATM    7  C11 UNL     1      26.096   2.399  52.493  1.00  0.00    -0.007 A 
HETATM    8  C12 UNL     1      25.077   2.671  53.416  1.00  0.00     0.014 A 
HETATM    9  C13 UNL     1      23.885   3.286  53.103  1.00  0.00     0.011 A 
HETATM   10  C14 UNL     1      23.620   3.680  51.815  1.00  0.00    -0.021 A 
HETATM   11  C18 UNL     1      24.566   3.451  50.844  1.00  0.00     0.011 A 
HETATM   12  C19 UNL     1      25.715   2.835  51.259  1.00  0.00     0.014 A 
BRANCH  10  13
HETATM   13  C15 UNL     1      22.355   4.338  51.458  1.00  0.00     0.175 C 
HETATM   14  C16 UNL     1      22.170   4.477  49.959  1.00  0.00     0.054 C 
HETATM   15  C17 UNL     1      21.144   3.648  52.010  1.00  0.00     0.054 C 
BRANCH  13  16
HETATM   16  N4  UNL     1      22.380   5.685  52.008  1.00  0.00     0.091 N 
HETATM   17  H21 UNL     1      22.928   5.628  52.895  1.00  0.00     0.314 HD
HETATM   18  H22 UNL     1      22.939   6.265  51.341  1.00  0.00     0.314 HD
ENDBRANCH  13  16
ENDBRANCH  10  13
ENDBRANCH   6   7
BRANCH   1  19
HETATM   19  C6  UNL     1      26.811  -0.509  52.342  1.00  0.00    -0.014 C 
BRANCH  19  20
HETATM   20  C5  UNL     1      25.952  -1.469  53.056  1.00  0.00     0.047 C 
BRANCH  20  21
HETATM   21  C4  UNL     1      25.217  -0.877  54.255  1.00  0.00     0.126 C 
BRANCH  21  22
HETATM   22  N1  UNL     1      23.835  -0.669  53.887  1.00  0.00    -0.357 N 
HETATM   23  C3  UNL     1      22.678  -1.060  54.610  1.00  0.00     0.240 C 
HETATM   24  O1  UNL     1      22.800  -1.656  55.691  1.00  0.00    -0.269 OA
HETATM   25  H4  UNL     1      23.619  -0.165  52.976  1.00  0.00     0.162 HD
BRANCH  23  26
HETATM   26  C2  UNL     1      21.346  -0.789  54.125  1.00  0.00     0.064 C 
HETATM   27  C1  UNL     1      20.745   0.366  54.355  1.00  0.00     0.017 C 
ENDBRANCH  23  26
ENDBRANCH  21  22
ENDBRANCH  20  21
ENDBRANCH  19  20
ENDBRANCH   1  19
TORSDOF 8
ENDMDL
MODEL 4
REMARK VINA RESULT:      -7.5      2.639      5.195
REMARK  8 active torsions:
REMARK  status: ('A' for Active; 'I' for Inactive)
REMARK    1  A    between atoms: C2_2  and  C3_3 
REMARK       I    between atoms: C3_3  and  N1_5 
REMARK    2  A    between atoms: N1_5  and  C4_6 
REMARK    3  A    between atoms: C4_6  and  C5_7 
REMARK    4  A    between atoms: C5_7  and  C6_8 
REMARK    5  A    between atoms: C6_8  and  C7_9 
REMARK    6  A    between atoms: C10_14  and  C11_15 
REMARK    7  A    between atoms: C14_18  and  C15_19 
REMARK    8  A    between atoms: C15_19  and  N4_22 
ROOT
HETATM    1  C7  UNL     1      24.649   0.237  53.593  1.00  0.00    -0.012 A 
HETATM    2  C8  UNL     1      25.182  -0.863  54.425  1.00  0.00     0.191 A 
HETATM    3  N2  UNL     1      26.534  -0.522  54.875  1.00  0.00    -0.278 NA
HETATM    4  C9  UNL     1      27.083   0.591  54.577  1.00  0.00     0.227 A 
HETATM    5  N3  UNL     1      26.494   1.600  53.803  1.00  0.00    -0.241 NA
HETATM    6  C10 UNL     1      25.318   1.487  53.306  1.00  0.00     0.076 A 
ENDROOT
BRANCH   6   7
HETATM    7  C11 UNL     1      24.843   2.609  52.537  1.00  0.00    -0.007 A 
HETATM    8  C12 UNL     1      24.057   3.529  53.245  1.00  0.00     0.014 A 
HETATM    9  C13 UNL     1      23.495   4.660  52.697  1.00  0.00     0.011 A 
HETATM   10  C14 UNL     1      23.682   4.959  51.370  1.00  0.00    -0.021 A 
HETATM   11  C18 UNL     1      24.440   4.110  50.599  1.00  0.00     0.011 A 
HETATM   12  C19 UNL     1      24.953   3.015  51.240  1.00  0.00     0.014 A 
BRANCH  10  13
HETATM   13  C15 UNL     1      23.093   6.161  50.763  1.00  0.00     0.175 C 
HETATM   14  C16 UNL     1      23.977   7.385  50.909  1.00  0.00     0.054 C 
HETATM   15  C17 UNL     1      22.766   5.999  49.309  1.00  0.00     0.054 C 
BRANCH  13  16
HETATM   16  N4  UNL     1      21.850   6.452  51.461  1.00  0.00     0.091 N 
HETATM   17  H21 UNL     1      21.109   5.892  50.983  1.00  0.00     0.314 HD
HETATM   18  H22 UNL     1      21.955   6.060  52.424  1.00  0.00     0.314 HD
ENDBRANCH  13  16
ENDBRANCH  10  13
ENDBRANCH   6   7
BRANCH   1  19
HETATM   19  C6  UNL     1      23.463   0.000  53.064  1.00  0.00    -0.014 C 
BRANCH  19  20
HETATM   20  C5  UNL     1      22.297  -0.314  53.908  1.00  0.00     0.047 C 
BRANCH  20  21
HETATM   21  C4  UNL     1      21.119   0.637  53.723  1.00  0.00     0.126 C 
BRANCH  21  22
HETATM   22  N1  UNL     1      21.182   1.190  52.389  1.00  0.00    -0.357 N 
HETATM   23  C3  UNL     1      20.688   2.445  51.947  1.00  0.00     0.240 C 
HETATM   24  O1  UNL     1      20.125   3.203  52.751  1.00  0.00    -0.269 OA
HETATM   25  H4  UNL     1      21.647   0.620  51.622  1.00  0.00     0.162 HD
BRANCH  23  26
HETATM   26  C2  UNL     1      20.818   2.877  50.575  1.00  0.00     0.064 C 
HETATM   27  C1  UNL     1      21.498   2.172  49.687  1.00  0.00     0.017 C 
ENDBRANCH  23  26
ENDBRANCH  21  22
ENDBRANCH  20  21
ENDBRANCH  19  20
ENDBRANCH   1  19
TORSDOF 8
ENDMDL
MODEL 5
REMARK VINA RESULT:      -7.5      2.559      5.554
REMARK  8 active torsions:
REMARK  status: ('A' for Active; 'I' for Inactive)
REMARK    1  A    between atoms: C2_2  and  C3_3 
REMARK       I    between atoms: C3_3  and  N1_5 
REMARK    2  A    between atoms: N1_5  and  C4_6 
REMARK    3  A    between atoms: C4_6  and  C5_7 
REMARK    4  A    between atoms: C5_7  and  C6_8 
REMARK    5  A    between atoms: C6_8  and  C7_9 
REMARK    6  A    between atoms: C10_14  and  C11_15 
REMARK    7  A    between atoms: C14_18  and  C15_19 
REMARK    8  A    between atoms: C15_19  and  N4_22 
ROOT
HETATM    1  C7  UNL     1      22.022   2.279  51.481  1.00  0.00    -0.012 A 
HETATM    2  C8  UNL     1      20.844   3.072  51.071  1.00  0.00     0.191 A 
HETATM    3  N2  UNL     1      21.117   4.496  51.283  1.00  0.00    -0.278 NA
HETATM    4  C9  UNL     1      22.240   4.908  51.728  1.00  0.00     0.227 A 
HETATM    5  N3  UNL     1      23.324   4.087  52.066  1.00  0.00    -0.241 NA
HETATM    6  C10 UNL     1      23.278   2.810  51.962  1.00  0.00     0.076 A 
ENDROOT
BRANCH   6   7
HETATM    7  C11 UNL     1      24.473   2.099  52.342  1.00  0.00    -0.007 A 
HETATM    8  C12 UNL     1      25.082   2.542  53.524  1.00  0.00     0.014 A 
HETATM    9  C13 UNL     1      26.236   2.009  54.055  1.00  0.00     0.011 A 
HETATM   10  C14 UNL     1      26.877   0.971  53.426  1.00  0.00    -0.021 A 
HETATM   11  C18 UNL     1      26.349   0.473  52.259  1.00  0.00     0.011 A 
HETATM   12  C19 UNL     1      25.201   1.073  51.817  1.00  0.00     0.014 A 
BRANCH  10  13
HETATM   13  C15 UNL     1      28.109   0.385  53.974  1.00  0.00     0.175 C 
HETATM   14  C16 UNL     1      28.584  -0.824  53.189  1.00  0.00     0.054 C 
HETATM   15  C17 UNL     1      29.249   1.355  54.059  1.00  0.00     0.054 C 
BRANCH  13  16
HETATM   16  N4  UNL     1      27.825  -0.075  55.325  1.00  0.00     0.091 N 
HETATM   17  H21 UNL     1      26.788  -0.190  55.382  1.00  0.00     0.314 HD
HETATM   18  H22 UNL     1      28.242  -1.030  55.405  1.00  0.00     0.314 HD
ENDBRANCH  13  16
ENDBRANCH  10  13
ENDBRANCH   6   7
BRANCH   1  19
HETATM   19  C6  UNL     1      21.857   0.971  51.408  1.00  0.00    -0.014 C 
BRANCH  19  20
HETATM   20  C5  UNL     1      20.672   0.315  51.988  1.00  0.00     0.047 C 
BRANCH  20  21
HETATM   21  C4  UNL     1      20.450   0.622  53.465  1.00  0.00     0.126 C 
BRANCH  21  22
HETATM   22  N1  UNL     1      21.635   0.232  54.197  1.00  0.00    -0.357 N 
HETATM   23  C3  UNL     1      21.910  -1.025  54.793  1.00  0.00     0.240 C 
HETATM   24  O1  UNL     1      21.076  -1.940  54.713  1.00  0.00    -0.269 OA
HETATM   25  H4  UNL     1      22.414   0.945  54.323  1.00  0.00     0.162 HD
BRANCH  23  26
HETATM   26  C2  UNL     1      23.142  -1.282  55.501  1.00  0.00     0.064 C 
HETATM   27  C1  UNL     1      24.320  -1.144  54.917  1.00  0.00     0.017 C 
ENDBRANCH  23  26
ENDBRANCH  21  22
ENDBRANCH  20  21
ENDBRANCH  19  20
ENDBRANCH   1  19
TORSDOF 8
ENDMDL
MODEL 6
REMARK VINA RESULT:      -7.4      2.736      5.933
REMARK  8 active torsions:
REMARK  status: ('A' for Active; 'I' for Inactive)
REMARK    1  A    between atoms: C2_2  and  C3_3 
REMARK       I    between atoms: C3_3  and  N1_5 
REMARK    2  A    between atoms: N1_5  and  C4_6 
REMARK    3  A    between atoms: C4_6  and  C5_7 
REMARK    4  A    between atoms: C5_7  and  C6_8 
REMARK    5  A    between atoms: C6_8  and  C7_9 
REMARK    6  A    between atoms: C10_14  and  C11_15 
REMARK    7  A    between atoms: C14_18  and  C15_19 
REMARK    8  A    between atoms: C15_19  and  N4_22 
ROOT
HETATM    1  C7  UNL     1      25.258   2.156  51.736  1.00  0.00    -0.012 A 
HETATM    2  C8  UNL     1      26.691   2.479  51.569  1.00  0.00     0.191 A 
HETATM    3  N2  UNL     1      26.878   3.239  50.330  1.00  0.00    -0.278 NA
HETATM    4  C9  UNL     1      25.897   3.560  49.581  1.00  0.00     0.227 A 
HETATM    5  N3  UNL     1      24.555   3.240  49.829  1.00  0.00    -0.241 NA
HETATM    6  C10 UNL     1      24.186   2.568  50.856  1.00  0.00     0.076 A 
ENDROOT
BRANCH   6   7
HETATM    7  C11 UNL     1      22.772   2.321  50.980  1.00  0.00    -0.007 A 
HETATM    8  C12 UNL     1      22.288   1.238  50.233  1.00  0.00     0.014 A 
HETATM    9  C13 UNL     1      20.969   0.840  50.200  1.00  0.00     0.011 A 
HETATM   10  C14 UNL     1      20.019   1.514  50.927  1.00  0.00    -0.021 A 
HETATM   11  C18 UNL     1      20.407   2.591  51.689  1.00  0.00     0.011 A 
HETATM   12  C19 UNL     1      21.739   2.902  51.652  1.00  0.00     0.014 A 
BRANCH  10  13
HETATM   13  C15 UNL     1      18.607   1.107  50.908  1.00  0.00     0.175 C 
HETATM   14  C16 UNL     1      18.357  -0.184  51.664  1.00  0.00     0.054 C 
HETATM   15  C17 UNL     1      17.676   2.148  51.454  1.00  0.00     0.054 C 
BRANCH  13  16
HETATM   16  N4  UNL     1      18.228   0.866  49.524  1.00  0.00     0.091 N 
HETATM   17  H21 UNL     1      19.023   1.210  48.940  1.00  0.00     0.314 HD
HETATM   18  H22 UNL     1      18.191  -0.172  49.406  1.00  0.00     0.314 HD
ENDBRANCH  13  16
ENDBRANCH  10  13
ENDBRANCH   6   7
BRANCH   1  19
HETATM   19  C6  UNL     1      24.983   1.401  52.783  1.00  0.00    -0.014 C 
BRANCH  19  20
HETATM   20  C5  UNL     1      25.810   0.229  53.120  1.00  0.00     0.047 C 
BRANCH  20  21
HETATM   21  C4  UNL     1      25.113  -0.788  54.019  1.00  0.00     0.126 C 
BRANCH  21  22
HETATM   22  N1  UNL     1      23.684  -0.650  53.843  1.00  0.00    -0.357 N 
HETATM   23  C3  UNL     1      22.657  -1.090  54.718  1.00  0.00     0.240 C 
HETATM   24  O1  UNL     1      22.955  -1.667  55.775  1.00  0.00    -0.269 OA
HETATM   25  H4  UNL     1      23.322  -0.167  52.968  1.00  0.00     0.162 HD
BRANCH  23  26
HETATM   26  C2  UNL     1      21.260  -0.888  54.418  1.00  0.00     0.064 C 
HETATM   27  C1  UNL     1      20.707   0.313  54.458  1.00  0.00     0.017 C 
ENDBRANCH  23  26
ENDBRANCH  21  22
ENDBRANCH  20  21
ENDBRANCH  19  20
ENDBRANCH   1  19
TORSDOF 8
ENDMDL
MODEL 7
REMARK VINA RESULT:      -7.3      2.778      5.488
REMARK  8 active torsions:
REMARK  status: ('A' for Active; 'I' for Inactive)
REMARK    1  A    between atoms: C2_2  and  C3_3 
REMARK       I    between atoms: C3_3  and  N1_5 
REMARK    2  A    between atoms: N1_5  and  C4_6 
REMARK    3  A    between atoms: C4_6  and  C5_7 
REMARK    4  A    between atoms: C5_7  and  C6_8 
REMARK    5  A    between atoms: C6_8  and  C7_9 
REMARK    6  A    between atoms: C10_14  and  C11_15 
REMARK    7  A    between atoms: C14_18  and  C15_19 
REMARK    8  A    between atoms: C15_19  and  N4_22 
ROOT
HETATM    1  C7  UNL     1      20.223   0.751  51.409  1.00  0.00    -0.012 A 
HETATM    2  C8  UNL     1      18.784   0.452  51.249  1.00  0.00     0.191 A 
HETATM    3  N2  UNL     1      18.346  -0.430  52.334  1.00  0.00    -0.278 NA
HETATM    4  C9  UNL     1      19.141  -0.810  53.257  1.00  0.00     0.227 A 
HETATM    5  N3  UNL     1      20.494  -0.454  53.353  1.00  0.00    -0.241 NA
HETATM    6  C10 UNL     1      21.069   0.301  52.493  1.00  0.00     0.076 A 
ENDROOT
BRANCH   6   7
HETATM    7  C11 UNL     1      22.462   0.585  52.727  1.00  0.00    -0.007 A 
HETATM    8  C12 UNL     1      23.243  -0.519  53.097  1.00  0.00     0.014 A 
HETATM    9  C13 UNL     1      24.590  -0.463  53.378  1.00  0.00     0.011 A 
HETATM   10  C14 UNL     1      25.268   0.729  53.308  1.00  0.00    -0.021 A 
HETATM   11  C18 UNL     1      24.579   1.865  52.953  1.00  0.00     0.011 A 
HETATM   12  C19 UNL     1      23.246   1.700  52.695  1.00  0.00     0.014 A 
BRANCH  10  13
HETATM   13  C15 UNL     1      26.706   0.813  53.603  1.00  0.00     0.175 C 
HETATM   14  C16 UNL     1      27.494  -0.342  53.014  1.00  0.00     0.054 C 
HETATM   15  C17 UNL     1      27.339   2.089  53.137  1.00  0.00     0.054 C 
BRANCH  13  16
HETATM   16  N4  UNL     1      26.872   0.745  55.047  1.00  0.00     0.091 N 
HETATM   17  H21 UNL     1      27.539   1.508  55.301  1.00  0.00     0.314 HD
HETATM   18  H22 UNL     1      25.946   0.999  55.462  1.00  0.00     0.314 HD
ENDBRANCH  13  16
ENDBRANCH  10  13
ENDBRANCH   6   7
BRANCH   1  19
HETATM   19  C6  UNL     1      20.745   1.476  50.437  1.00  0.00    -0.014 C 
BRANCH  19  20
HETATM   20  C5  UNL     1      21.267   0.850  49.210  1.00  0.00     0.047 C 
BRANCH  20  21
HETATM   21  C4  UNL     1      22.050   1.802  48.311  1.00  0.00     0.126 C 
BRANCH  21  22
HETATM   22  N1  UNL     1      23.183   2.307  49.054  1.00  0.00    -0.357 N 
HETATM   23  C3  UNL     1      23.684   3.634  49.074  1.00  0.00     0.240 C 
HETATM   24  O1  UNL     1      23.129   4.511  48.395  1.00  0.00    -0.269 OA
HETATM   25  H4  UNL     1      23.729   1.634  49.671  1.00  0.00     0.162 HD
BRANCH  23  26
HETATM   26  C2  UNL     1      24.832   4.005  49.866  1.00  0.00     0.064 C 
HETATM   27  C1  UNL     1      25.980   3.356  49.771  1.00  0.00     0.017 C 
ENDBRANCH  23  26
ENDBRANCH  21  22
ENDBRANCH  20  21
ENDBRANCH  19  20
ENDBRANCH   1  19
TORSDOF 8
ENDMDL
MODEL 8
REMARK VINA RESULT:      -7.3      2.620      6.261
REMARK  8 active torsions:
REMARK  status: ('A' for Active; 'I' for Inactive)
REMARK    1  A    between atoms: C2_2  and  C3_3 
REMARK       I    between atoms: C3_3  and  N1_5 
REMARK    2  A    between atoms: N1_5  and  C4_6 
REMARK    3  A    between atoms: C4_6  and  C5_7 
REMARK    4  A    between atoms: C5_7  and  C6_8 
REMARK    5  A    between atoms: C6_8  and  C7_9 
REMARK    6  A    between atoms: C10_14  and  C11_15 
REMARK    7  A    between atoms: C14_18  and  C15_19 
REMARK    8  A    between atoms: C15_19  and  N4_22 
ROOT
HETATM    1  C7  UNL     1      22.808   3.067  49.902  1.00  0.00    -0.012 A 
HETATM    2  C8  UNL     1      22.024   4.045  49.118  1.00  0.00     0.191 A 
HETATM    3  N2  UNL     1      22.331   5.400  49.583  1.00  0.00    -0.278 NA
HETATM    4  C9  UNL     1      23.181   5.619  50.508  1.00  0.00     0.227 A 
HETATM    5  N3  UNL     1      23.910   4.630  51.184  1.00  0.00    -0.241 NA
HETATM    6  C10 UNL     1      23.775   3.382  50.930  1.00  0.00     0.076 A 
ENDROOT
BRANCH   6   7
HETATM    7  C11 UNL     1      24.595   2.484  51.703  1.00  0.00    -0.007 A 
HETATM    8  C12 UNL     1      25.919   2.353  51.260  1.00  0.00     0.014 A 
HETATM    9  C13 UNL     1      26.861   1.538  51.847  1.00  0.00     0.011 A 
HETATM   10  C14 UNL     1      26.539   0.778  52.945  1.00  0.00    -0.021 A 
HETATM   11  C18 UNL     1      25.261   0.845  53.447  1.00  0.00     0.011 A 
HETATM   12  C19 UNL     1      24.403   1.684  52.790  1.00  0.00     0.014 A 
BRANCH  10  13
HETATM   13  C15 UNL     1      27.528  -0.098  53.589  1.00  0.00     0.175 C 
HETATM   14  C16 UNL     1      27.607  -1.469  52.943  1.00  0.00     0.054 C 
HETATM   15  C17 UNL     1      28.912   0.479  53.617  1.00  0.00     0.054 C 
BRANCH  13  16
HETATM   16  N4  UNL     1      27.113  -0.304  54.968  1.00  0.00     0.091 N 
HETATM   17  H21 UNL     1      26.092  -0.521  54.937  1.00  0.00     0.314 HD
HETATM   18  H22 UNL     1      27.599  -1.171  55.296  1.00  0.00     0.314 HD
ENDBRANCH  13  16
ENDBRANCH  10  13
ENDBRANCH   6   7
BRANCH   1  19
HETATM   19  C6  UNL     1      22.549   1.803  49.620  1.00  0.00    -0.014 C 
BRANCH  19  20
HETATM   20  C5  UNL     1      21.166   1.319  49.471  1.00  0.00     0.047 C 
BRANCH  20  21
HETATM   21  C4  UNL     1      20.461   1.031  50.792  1.00  0.00     0.126 C 
BRANCH  21  22
HETATM   22  N1  UNL     1      21.329   0.210  51.606  1.00  0.00    -0.357 N 
HETATM   23  C3  UNL     1      21.073  -0.298  52.906  1.00  0.00     0.240 C 
HETATM   24  O1  UNL     1      19.996  -0.042  53.465  1.00  0.00    -0.269 OA
HETATM   25  H4  UNL     1      22.279  -0.069  51.217  1.00  0.00     0.162 HD
BRANCH  23  26
HETATM   26  C2  UNL     1      22.035  -1.111  53.611  1.00  0.00     0.064 C 
HETATM   27  C1  UNL     1      22.232  -0.981  54.912  1.00  0.00     0.017 C 
ENDBRANCH  23  26
ENDBRANCH  21  22
ENDBRANCH  20  21
ENDBRANCH  19  20
ENDBRANCH   1  19
TORSDOF 8
ENDMDL
MODEL 9
REMARK VINA RESULT:      -7.0      2.140      4.910
REMARK  8 active torsions:
REMARK  status: ('A' for Active; 'I' for Inactive)
REMARK    1  A    between atoms: C2_2  and  C3_3 
REMARK       I    between atoms: C3_3  and  N1_5 
REMARK    2  A    between atoms: N1_5  and  C4_6 
REMARK    3  A    between atoms: C4_6  and  C5_7 
REMARK    4  A    between atoms: C5_7  and  C6_8 
REMARK    5  A    between atoms: C6_8  and  C7_9 
REMARK    6  A    between atoms: C10_14  and  C11_15 
REMARK    7  A    between atoms: C14_18  and  C15_19 
REMARK    8  A    between atoms: C15_19  and  N4_22 
ROOT
HETATM    1  C7  UNL     1      25.363   1.285  51.852  1.00  0.00    -0.012 A 
HETATM    2  C8  UNL     1      26.777   1.680  51.679  1.00  0.00     0.191 A 
HETATM    3  N2  UNL     1      26.844   2.933  50.924  1.00  0.00    -0.278 NA
HETATM    4  C9  UNL     1      25.794   3.546  50.539  1.00  0.00     0.227 A 
HETATM    5  N3  UNL     1      24.479   3.117  50.772  1.00  0.00    -0.241 NA
HETATM    6  C10 UNL     1      24.211   2.036  51.405  1.00  0.00     0.076 A 
ENDROOT
BRANCH   6   7
HETATM    7  C11 UNL     1      22.813   1.729  51.573  1.00  0.00    -0.007 A 
HETATM    8  C12 UNL     1      22.184   1.175  50.449  1.00  0.00     0.014 A 
HETATM    9  C13 UNL     1      20.853   0.823  50.394  1.00  0.00     0.011 A 
HETATM   10  C14 UNL     1      20.038   1.003  51.484  1.00  0.00    -0.021 A 
HETATM   11  C18 UNL     1      20.573   1.541  52.631  1.00  0.00     0.011 A 
HETATM   12  C19 UNL     1      21.904   1.857  52.580  1.00  0.00     0.014 A 
BRANCH  10  13
HETATM   13  C15 UNL     1      18.616   0.633  51.449  1.00  0.00     0.175 C 
HETATM   14  C16 UNL     1      18.149   0.228  50.063  1.00  0.00     0.054 C 
HETATM   15  C17 UNL     1      18.261  -0.472  52.397  1.00  0.00     0.054 C 
BRANCH  13  16
HETATM   16  N4  UNL     1      17.840   1.803  51.831  1.00  0.00     0.091 N 
HETATM   17  H21 UNL     1      16.950   1.754  51.285  1.00  0.00     0.314 HD
HETATM   18  H22 UNL     1      17.587   1.674  52.837  1.00  0.00     0.314 HD
ENDBRANCH  13  16
ENDBRANCH  10  13
ENDBRANCH   6   7
BRANCH   1  19
HETATM   19  C6  UNL     1      25.186   0.123  52.452  1.00  0.00    -0.014 C 
BRANCH  19  20
HETATM   20  C5  UNL     1      24.659   0.040  53.825  1.00  0.00     0.047 C 
BRANCH  20  21
HETATM   21  C4  UNL     1      25.733  -0.115  54.897  1.00  0.00     0.126 C 
BRANCH  21  22
HETATM   22  N1  UNL     1      26.904  -0.709  54.290  1.00  0.00    -0.357 N 
HETATM   23  C3  UNL     1      28.250  -0.275  54.398  1.00  0.00     0.240 C 
HETATM   24  O1  UNL     1      28.521   0.726  55.078  1.00  0.00    -0.269 OA
HETATM   25  H4  UNL     1      26.781  -1.575  53.686  1.00  0.00     0.162 HD
BRANCH  23  26
HETATM   26  C2  UNL     1      29.330  -0.965  53.734  1.00  0.00     0.064 C 
HETATM   27  C1  UNL     1      30.474  -0.361  53.458  1.00  0.00     0.017 C 
ENDBRANCH  23  26
ENDBRANCH  21  22
ENDBRANCH  20  21
ENDBRANCH  19  20
ENDBRANCH   1  19
TORSDOF 8
ENDMDL
