MODEL 1
REMARK VINA RESULT:      -7.9      0.000      0.000
REMARK  4 active torsions:
REMARK  status: ('A' for Active; 'I' for Inactive)
REMARK    1  A    between atoms: N1_2  and  C2_3 
REMARK    2  A    between atoms: C6_8  and  N2_9 
REMARK    3  A    between atoms: N2_9  and  C7_10 
REMARK    4  A    between atoms: C10_14  and  C11_15 
ROOT
HETATM    1  C7  UNL     1      25.991   2.663  51.361  1.00  0.00     0.723 A 
HETATM    2  N3  UNL     1      24.683   2.652  51.667  1.00  0.00    -0.075 NA
HETATM    3  C8  UNL     1      24.163   1.590  52.311  1.00  0.00     0.139 A 
HETATM    4  C9  UNL     1      24.949   0.490  52.673  1.00  0.00     0.053 A 
HETATM    5  C10 UNL     1      26.287   0.532  52.344  1.00  0.00     0.089 A 
HETATM    6  N5  UNL     1      26.782   1.604  51.701  1.00  0.00    -0.062 NA
ENDROOT
BRANCH   1   7
HETATM    7  N2  UNL     1      26.553   3.779  50.680  1.00  0.00    -0.211 N 
HETATM    8  H10 UNL     1      27.544   4.057  50.881  1.00  0.00     0.178 HD
BRANCH   7   9
HETATM    9  C6  UNL     1      25.697   4.474  49.731  1.00  0.00     0.172 A 
HETATM   10  C2  UNL     1      25.316   5.773  50.267  1.00  0.00     0.033 A 
HETATM   11  C3  UNL     1      25.933   6.417  49.343  1.00  0.00    -0.039 A 
HETATM   12  C4  UNL     1      26.127   7.850  49.029  1.00  0.00     0.047 C 
HETATM   13  C5  UNL     1      26.403   5.243  48.675  1.00  0.00     0.142 A 
HETATM   14 CL1  UNL     1      28.164   5.005  48.603  1.00  0.00    -0.118 Cl
BRANCH  10  15
HETATM   15  N1  UNL     1      24.513   5.956  51.445  1.00  0.00    -0.396 N 
HETATM   16  C1  UNL     1      23.069   5.798  51.409  1.00  0.00     0.146 C 
HETATM   17  H4  UNL     1      24.905   6.211  52.396  1.00  0.00     0.159 HD
ENDBRANCH  10  15
ENDBRANCH   7   9
ENDBRANCH   1   7
BRANCH   5  18
HETATM   18  C11 UNL     1      27.219  -0.543  52.660  1.00  0.00     0.011 A 
HETATM   19  C12 UNL     1      28.442  -0.206  53.197  1.00  0.00     0.017 A 
HETATM   20  C13 UNL     1      29.407  -1.161  53.537  1.00  0.00     0.020 A 
HETATM   21  C14 UNL     1      29.099  -2.494  53.314  1.00  0.00     0.116 A 
HETATM   22  N4  UNL     1      27.905  -2.812  52.791  1.00  0.00    -0.272 NA
HETATM   23  C15 UNL     1      26.970  -1.880  52.464  1.00  0.00     0.130 A 
ENDBRANCH   5  18
TORSDOF 4
ENDMDL
MODEL 2
REMARK VINA RESULT:      -7.5      2.121      3.448
REMARK  4 active torsions:
REMARK  status: ('A' for Active; 'I' for Inactive)
REMARK    1  A    between atoms: N1_2  and  C2_3 
REMARK    2  A    between atoms: C6_8  and  N2_9 
REMARK    3  A    between atoms: N2_9  and  C7_10 
REMARK    4  A    between atoms: C10_14  and  C11_15 
ROOT
HETATM    1  C7  UNL     1      27.091   2.106  52.322  1.00  0.00     0.723 A 
HETATM    2  N3  UNL     1      28.307   1.777  52.790  1.00  0.00    -0.075 NA
HETATM    3  C8  UNL     1      28.422   0.795  53.703  1.00  0.00     0.139 A 
HETATM    4  C9  UNL     1      27.306   0.101  54.183  1.00  0.00     0.053 A 
HETATM    5  C10 UNL     1      26.072   0.462  53.684  1.00  0.00     0.089 A 
HETATM    6  N5  UNL     1      25.984   1.447  52.772  1.00  0.00    -0.062 NA
ENDROOT
BRANCH   1   7
HETATM    7  N2  UNL     1      26.956   3.143  51.357  1.00  0.00    -0.211 N 
HETATM    8  H10 UNL     1      27.691   3.887  51.298  1.00  0.00     0.178 HD
BRANCH   7   9
HETATM    9  C6  UNL     1      25.780   3.099  50.501  1.00  0.00     0.172 A 
HETATM   10  C2  UNL     1      24.837   4.134  50.900  1.00  0.00     0.033 A 
HETATM   11  C3  UNL     1      24.948   4.767  49.788  1.00  0.00    -0.039 A 
HETATM   12  C4  UNL     1      24.349   6.000  49.231  1.00  0.00     0.047 C 
HETATM   13  C5  UNL     1      25.889   3.850  49.224  1.00  0.00     0.142 A 
HETATM   14 CL1  UNL     1      27.507   4.485  48.846  1.00  0.00    -0.118 Cl
BRANCH  10  15
HETATM   15  N1  UNL     1      24.167   4.169  52.172  1.00  0.00    -0.396 N 
HETATM   16  C1  UNL     1      22.816   3.660  52.328  1.00  0.00     0.146 C 
HETATM   17  H4  UNL     1      24.599   4.557  53.058  1.00  0.00     0.159 HD
ENDBRANCH  10  15
ENDBRANCH   7   9
ENDBRANCH   1   7
BRANCH   5  18
HETATM   18  C11 UNL     1      24.828  -0.177  54.096  1.00  0.00     0.011 A 
HETATM   19  C12 UNL     1      23.714  -0.001  53.304  1.00  0.00     0.017 A 
HETATM   20  C13 UNL     1      22.473  -0.571  53.609  1.00  0.00     0.020 A 
HETATM   21  C14 UNL     1      22.384  -1.338  54.760  1.00  0.00     0.116 A 
HETATM   22  N4  UNL     1      23.473  -1.503  55.524  1.00  0.00    -0.272 NA
HETATM   23  C15 UNL     1      24.678  -0.948  55.223  1.00  0.00     0.130 A 
ENDBRANCH   5  18
TORSDOF 4
ENDMDL
MODEL 3
REMARK VINA RESULT:      -7.5      2.900      6.383
REMARK  4 active torsions:
REMARK  status: ('A' for Active; 'I' for Inactive)
REMARK    1  A    between atoms: N1_2  and  C2_3 
REMARK    2  A    between atoms: C6_8  and  N2_9 
REMARK    3  A    between atoms: N2_9  and  C7_10 
REMARK    4  A    between atoms: C10_14  and  C11_15 
ROOT
HETATM    1  C7  UNL     1      25.760   1.940  52.671  1.00  0.00     0.723 A 
HETATM    2  N3  UNL     1      25.613   2.703  51.574  1.00  0.00    -0.075 NA
HETATM    3  C8  UNL     1      24.437   2.702  50.921  1.00  0.00     0.139 A 
HETATM    4  C9  UNL     1      23.355   1.926  51.351  1.00  0.00     0.053 A 
HETATM    5  C10 UNL     1      23.538   1.154  52.480  1.00  0.00     0.089 A 
HETATM    6  N5  UNL     1      24.723   1.173  53.115  1.00  0.00    -0.062 NA
ENDROOT
BRANCH   1   7
HETATM    7  N2  UNL     1      26.999   1.932  53.371  1.00  0.00    -0.211 N 
HETATM    8  H10 UNL     1      27.650   2.748  53.272  1.00  0.00     0.178 HD
BRANCH   7   9
HETATM    9  C6  UNL     1      27.286   0.766  54.193  1.00  0.00     0.172 A 
HETATM   10  C2  UNL     1      27.734  -0.335  53.353  1.00  0.00     0.033 A 
HETATM   11  C3  UNL     1      28.905  -0.358  53.880  1.00  0.00    -0.039 A 
HETATM   12  C4  UNL     1      30.122  -1.173  53.672  1.00  0.00     0.047 C 
HETATM   13  C5  UNL     1      28.647   0.719  54.786  1.00  0.00     0.142 A 
HETATM   14 CL1  UNL     1      29.620   2.194  54.585  1.00  0.00    -0.118 Cl
BRANCH  10  15
HETATM   15  N1  UNL     1      26.918  -0.977  52.359  1.00  0.00    -0.396 N 
HETATM   16  C1  UNL     1      26.828  -2.425  52.274  1.00  0.00     0.146 C 
HETATM   17  H4  UNL     1      26.340  -0.456  51.639  1.00  0.00     0.159 HD
ENDBRANCH  10  15
ENDBRANCH   7   9
ENDBRANCH   1   7
BRANCH   5  18
HETATM   18  C11 UNL     1      22.497   0.300  53.037  1.00  0.00     0.011 A 
HETATM   19  C12 UNL     1      22.863  -0.649  53.967  1.00  0.00     0.017 A 
HETATM   20  C13 UNL     1      21.943  -1.517  54.564  1.00  0.00     0.020 A 
HETATM   21  C14 UNL     1      20.614  -1.402  54.188  1.00  0.00     0.116 A 
HETATM   22  N4  UNL     1      20.267  -0.476  53.282  1.00  0.00    -0.272 NA
HETATM   23  C15 UNL     1      21.165   0.367  52.706  1.00  0.00     0.130 A 
ENDBRANCH   5  18
TORSDOF 4
ENDMDL
MODEL 4
REMARK VINA RESULT:      -7.4      3.218      5.447
REMARK  4 active torsions:
REMARK  status: ('A' for Active; 'I' for Inactive)
REMARK    1  A    between atoms: N1_2  and  C2_3 
REMARK    2  A    between atoms: C6_8  and  N2_9 
REMARK    3  A    between atoms: N2_9  and  C7_10 
REMARK    4  A    between atoms: C10_14  and  C11_15 
ROOT
HETATM    1  C7  UNL     1      24.085   1.383  52.478  1.00  0.00     0.723 A 
HETATM    2  N3  UNL     1      24.441   2.516  51.848  1.00  0.00    -0.075 NA
HETATM    3  C8  UNL     1      25.719   2.684  51.460  1.00  0.00     0.139 A 
HETATM    4  C9  UNL     1      26.695   1.708  51.694  1.00  0.00     0.053 A 
HETATM    5  C10 UNL     1      26.298   0.557  52.342  1.00  0.00     0.089 A 
HETATM    6  N5  UNL     1      25.015   0.414  52.719  1.00  0.00    -0.062 NA
ENDROOT
BRANCH   1   7
HETATM    7  N2  UNL     1      22.738   1.194  52.894  1.00  0.00    -0.211 N 
HETATM    8  H10 UNL     1      22.308   1.875  53.565  1.00  0.00     0.178 HD
BRANCH   7   9
HETATM    9  C6  UNL     1      22.034   0.042  52.349  1.00  0.00     0.172 A 
HETATM   10  C2  UNL     1      20.879  -0.270  53.178  1.00  0.00     0.033 A 
HETATM   11  C3  UNL     1      20.042  -0.005  52.240  1.00  0.00    -0.039 A 
HETATM   12  C4  UNL     1      18.567  -0.030  52.128  1.00  0.00     0.047 C 
HETATM   13  C5  UNL     1      21.046   0.342  51.282  1.00  0.00     0.142 A 
HETATM   14 CL1  UNL     1      21.048   2.017  50.686  1.00  0.00    -0.118 Cl
BRANCH  10  15
HETATM   15  N1  UNL     1      20.960  -0.703  54.546  1.00  0.00    -0.396 N 
HETATM   16  C1  UNL     1      22.088  -1.483  55.026  1.00  0.00     0.146 C 
HETATM   17  H4  UNL     1      20.225  -0.491  55.280  1.00  0.00     0.159 HD
ENDBRANCH  10  15
ENDBRANCH   7   9
ENDBRANCH   1   7
BRANCH   5  18
HETATM   18  C11 UNL     1      27.208  -0.538  52.648  1.00  0.00     0.011 A 
HETATM   19  C12 UNL     1      28.454  -0.227  53.149  1.00  0.00     0.017 A 
HETATM   20  C13 UNL     1      29.402  -1.203  53.476  1.00  0.00     0.020 A 
HETATM   21  C14 UNL     1      29.053  -2.530  53.278  1.00  0.00     0.116 A 
HETATM   22  N4  UNL     1      27.839  -2.823  52.789  1.00  0.00    -0.272 NA
HETATM   23  C15 UNL     1      26.921  -1.870  52.474  1.00  0.00     0.130 A 
ENDBRANCH   5  18
TORSDOF 4
ENDMDL
MODEL 5
REMARK VINA RESULT:      -7.4      4.038      5.843
REMARK  4 active torsions:
REMARK  status: ('A' for Active; 'I' for Inactive)
REMARK    1  A    between atoms: N1_2  and  C2_3 
REMARK    2  A    between atoms: C6_8  and  N2_9 
REMARK    3  A    between atoms: N2_9  and  C7_10 
REMARK    4  A    between atoms: C10_14  and  C11_15 
ROOT
HETATM    1  C7  UNL     1      23.684   0.783  52.763  1.00  0.00     0.723 A 
HETATM    2  N3  UNL     1      23.778   2.093  53.050  1.00  0.00    -0.075 NA
HETATM    3  C8  UNL     1      24.971   2.610  53.398  1.00  0.00     0.139 A 
HETATM    4  C9  UNL     1      26.124   1.820  53.471  1.00  0.00     0.053 A 
HETATM    5  C10 UNL     1      25.994   0.480  53.171  1.00  0.00     0.089 A 
HETATM    6  N5  UNL     1      24.791  -0.012  52.826  1.00  0.00    -0.062 NA
ENDROOT
BRANCH   1   7
HETATM    7  N2  UNL     1      22.429   0.224  52.394  1.00  0.00    -0.211 N 
HETATM    8  H10 UNL     1      22.392  -0.499  51.635  1.00  0.00     0.178 HD
BRANCH   7   9
HETATM    9  C6  UNL     1      21.256   0.703  53.110  1.00  0.00     0.172 A 
HETATM   10  C2  UNL     1      20.060   0.470  52.313  1.00  0.00     0.033 A 
HETATM   11  C3  UNL     1      19.564  -0.354  53.164  1.00  0.00    -0.039 A 
HETATM   12  C4  UNL     1      18.320  -1.151  53.234  1.00  0.00     0.047 C 
HETATM   13  C5  UNL     1      20.660  -0.253  54.077  1.00  0.00     0.142 A 
HETATM   14 CL1  UNL     1      21.604  -1.732  54.372  1.00  0.00    -0.118 Cl
BRANCH  10  15
HETATM   15  N1  UNL     1      19.800   1.095  51.044  1.00  0.00    -0.396 N 
HETATM   16  C1  UNL     1      19.088   2.358  50.956  1.00  0.00     0.146 C 
HETATM   17  H4  UNL     1      20.102   0.692  50.112  1.00  0.00     0.159 HD
ENDBRANCH  10  15
ENDBRANCH   7   9
ENDBRANCH   1   7
BRANCH   5  18
HETATM   18  C11 UNL     1      27.111  -0.455  53.207  1.00  0.00     0.011 A 
HETATM   19  C12 UNL     1      28.346   0.022  53.591  1.00  0.00     0.017 A 
HETATM   20  C13 UNL     1      29.482  -0.792  53.659  1.00  0.00     0.020 A 
HETATM   21  C14 UNL     1      29.337  -2.128  53.322  1.00  0.00     0.116 A 
HETATM   22  N4  UNL     1      28.131  -2.583  52.949  1.00  0.00    -0.272 NA
HETATM   23  C15 UNL     1      27.030  -1.788  52.885  1.00  0.00     0.130 A 
ENDBRANCH   5  18
TORSDOF 4
ENDMDL
MODEL 6
REMARK VINA RESULT:      -7.3      1.752      2.399
REMARK  4 active torsions:
REMARK  status: ('A' for Active; 'I' for Inactive)
REMARK    1  A    between atoms: N1_2  and  C2_3 
REMARK    2  A    between atoms: C6_8  and  N2_9 
REMARK    3  A    between atoms: N2_9  and  C7_10 
REMARK    4  A    between atoms: C10_14  and  C11_15 
ROOT
HETATM    1  C7  UNL     1      26.312   4.032  49.786  1.00  0.00     0.723 A 
HETATM    2  N3  UNL     1      24.999   3.928  49.520  1.00  0.00    -0.075 NA
HETATM    3  C8  UNL     1      24.257   3.028  50.192  1.00  0.00     0.139 A 
HETATM    4  C9  UNL     1      24.815   2.192  51.166  1.00  0.00     0.053 A 
HETATM    5  C10 UNL     1      26.165   2.324  51.416  1.00  0.00     0.089 A 
HETATM    6  N5  UNL     1      26.884   3.231  50.730  1.00  0.00    -0.062 NA
ENDROOT
BRANCH   1   7
HETATM    7  N2  UNL     1      27.107   4.979  49.082  1.00  0.00    -0.211 N 
HETATM    8  H10 UNL     1      28.128   4.787  48.941  1.00  0.00     0.178 HD
BRANCH   7   9
HETATM    9  C6  UNL     1      26.436   6.176  48.597  1.00  0.00     0.172 A 
HETATM   10  C2  UNL     1      26.345   7.160  49.666  1.00  0.00     0.033 A 
HETATM   11  C3  UNL     1      27.099   8.001  49.055  1.00  0.00    -0.039 A 
HETATM   12  C4  UNL     1      27.608   9.355  49.366  1.00  0.00     0.047 C 
HETATM   13  C5  UNL     1      27.306   7.166  47.913  1.00  0.00     0.142 A 
HETATM   14 CL1  UNL     1      28.972   6.630  47.595  1.00  0.00    -0.118 Cl
BRANCH  10  15
HETATM   15  N1  UNL     1      25.589   6.972  50.874  1.00  0.00    -0.396 N 
HETATM   16  C1  UNL     1      24.163   7.247  50.925  1.00  0.00     0.146 C 
HETATM   17  H4  UNL     1      26.005   6.631  51.787  1.00  0.00     0.159 HD
ENDBRANCH  10  15
ENDBRANCH   7   9
ENDBRANCH   1   7
BRANCH   5  18
HETATM   18  C11 UNL     1      26.874   1.519  52.402  1.00  0.00     0.011 A 
HETATM   19  C12 UNL     1      26.856   0.149  52.257  1.00  0.00     0.017 A 
HETATM   20  C13 UNL     1      27.505  -0.714  53.148  1.00  0.00     0.020 A 
HETATM   21  C14 UNL     1      28.186  -0.145  54.212  1.00  0.00     0.116 A 
HETATM   22  N4  UNL     1      28.198   1.190  54.345  1.00  0.00    -0.272 NA
HETATM   23  C15 UNL     1      27.567   2.024  53.476  1.00  0.00     0.130 A 
ENDBRANCH   5  18
TORSDOF 4
ENDMDL
MODEL 7
REMARK VINA RESULT:      -7.2      2.958      6.872
REMARK  4 active torsions:
REMARK  status: ('A' for Active; 'I' for Inactive)
REMARK    1  A    between atoms: N1_2  and  C2_3 
REMARK    2  A    between atoms: C6_8  and  N2_9 
REMARK    3  A    between atoms: N2_9  and  C7_10 
REMARK    4  A    between atoms: C10_14  and  C11_15 
ROOT
HETATM    1  C7  UNL     1      24.346   3.312  51.180  1.00  0.00     0.723 A 
HETATM    2  N3  UNL     1      23.176   3.252  50.521  1.00  0.00    -0.075 NA
HETATM    3  C8  UNL     1      23.032   3.927  49.366  1.00  0.00     0.139 A 
HETATM    4  C9  UNL     1      24.070   4.695  48.826  1.00  0.00     0.053 A 
HETATM    5  C10 UNL     1      25.257   4.736  49.526  1.00  0.00     0.089 A 
HETATM    6  N5  UNL     1      25.376   4.052  50.678  1.00  0.00    -0.062 NA
ENDROOT
BRANCH   1   7
HETATM    7  N2  UNL     1      24.511   2.603  52.402  1.00  0.00    -0.211 N 
HETATM    8  H10 UNL     1      23.964   2.901  53.246  1.00  0.00     0.178 HD
BRANCH   7   9
HETATM    9  C6  UNL     1      25.449   1.490  52.399  1.00  0.00     0.172 A 
HETATM   10  C2  UNL     1      26.271   1.532  53.600  1.00  0.00     0.033 A 
HETATM   11  C3  UNL     1      25.804   0.422  54.047  1.00  0.00    -0.039 A 
HETATM   12  C4  UNL     1      26.044  -0.392  55.259  1.00  0.00     0.047 C 
HETATM   13  C5  UNL     1      24.925   0.210  52.939  1.00  0.00     0.142 A 
HETATM   14 CL1  UNL     1      23.181   0.182  53.285  1.00  0.00    -0.118 Cl
BRANCH  10  15
HETATM   15  N1  UNL     1      27.199   2.586  53.907  1.00  0.00    -0.396 N 
HETATM   16  C1  UNL     1      28.618   2.448  53.627  1.00  0.00     0.146 C 
HETATM   17  H4  UNL     1      26.923   3.510  54.346  1.00  0.00     0.159 HD
ENDBRANCH  10  15
ENDBRANCH   7   9
ENDBRANCH   1   7
BRANCH   5  18
HETATM   18  C11 UNL     1      26.419   5.495  49.079  1.00  0.00     0.011 A 
HETATM   19  C12 UNL     1      27.538   4.796  48.683  1.00  0.00     0.017 A 
HETATM   20  C13 UNL     1      28.704   5.428  48.237  1.00  0.00     0.020 A 
HETATM   21  C14 UNL     1      28.712   6.813  48.202  1.00  0.00     0.116 A 
HETATM   22  N4  UNL     1      27.617   7.485  48.590  1.00  0.00    -0.272 NA
HETATM   23  C15 UNL     1      26.486   6.866  49.021  1.00  0.00     0.130 A 
ENDBRANCH   5  18
TORSDOF 4
ENDMDL
MODEL 8
REMARK VINA RESULT:      -7.1      3.717      6.407
REMARK  4 active torsions:
REMARK  status: ('A' for Active; 'I' for Inactive)
REMARK    1  A    between atoms: N1_2  and  C2_3 
REMARK    2  A    between atoms: C6_8  and  N2_9 
REMARK    3  A    between atoms: N2_9  and  C7_10 
REMARK    4  A    between atoms: C10_14  and  C11_15 
ROOT
HETATM    1  C7  UNL     1      23.928  -0.487  53.829  1.00  0.00     0.723 A 
HETATM    2  N3  UNL     1      23.290  -1.093  54.845  1.00  0.00    -0.075 NA
HETATM    3  C8  UNL     1      21.950  -1.218  54.804  1.00  0.00     0.139 A 
HETATM    4  C9  UNL     1      21.197  -0.733  53.729  1.00  0.00     0.053 A 
HETATM    5  C10 UNL     1      21.881  -0.116  52.703  1.00  0.00     0.089 A 
HETATM    6  N5  UNL     1      23.220  -0.004  52.768  1.00  0.00    -0.062 NA
ENDROOT
BRANCH   1   7
HETATM    7  N2  UNL     1      25.344  -0.348  53.860  1.00  0.00    -0.211 N 
HETATM    8  H10 UNL     1      25.890  -0.834  54.611  1.00  0.00     0.178 HD
BRANCH   7   9
HETATM    9  C6  UNL     1      25.950   0.477  52.826  1.00  0.00     0.172 A 
HETATM   10  C2  UNL     1      26.222   1.808  53.350  1.00  0.00     0.033 A 
HETATM   11  C3  UNL     1      27.494   1.678  53.222  1.00  0.00    -0.039 A 
HETATM   12  C4  UNL     1      28.659   2.545  53.506  1.00  0.00     0.047 C 
HETATM   13  C5  UNL     1      27.423   0.353  52.689  1.00  0.00     0.142 A 
HETATM   14 CL1  UNL     1      28.174  -0.944  53.647  1.00  0.00    -0.118 Cl
BRANCH  10  15
HETATM   15  N1  UNL     1      25.206   2.729  53.783  1.00  0.00    -0.396 N 
HETATM   16  C1  UNL     1      24.245   3.289  52.848  1.00  0.00     0.146 C 
HETATM   17  H4  UNL     1      25.089   3.055  54.785  1.00  0.00     0.159 HD
ENDBRANCH  10  15
ENDBRANCH   7   9
ENDBRANCH   1   7
BRANCH   5  18
HETATM   18  C11 UNL     1      21.223   0.434  51.525  1.00  0.00     0.011 A 
HETATM   19  C12 UNL     1      22.008   1.021  50.556  1.00  0.00     0.017 A 
HETATM   20  C13 UNL     1      21.477   1.578  49.388  1.00  0.00     0.020 A 
HETATM   21  C14 UNL     1      20.102   1.526  49.219  1.00  0.00     0.116 A 
HETATM   22  N4  UNL     1      19.346   0.953  50.167  1.00  0.00    -0.272 NA
HETATM   23  C15 UNL     1      19.868   0.412  51.301  1.00  0.00     0.130 A 
ENDBRANCH   5  18
TORSDOF 4
ENDMDL
MODEL 9
REMARK VINA RESULT:      -7.0      3.682      5.823
REMARK  4 active torsions:
REMARK  status: ('A' for Active; 'I' for Inactive)
REMARK    1  A    between atoms: N1_2  and  C2_3 
REMARK    2  A    between atoms: C6_8  and  N2_9 
REMARK    3  A    between atoms: N2_9  and  C7_10 
REMARK    4  A    between atoms: C10_14  and  C11_15 
ROOT
HETATM    1  C7  UNL     1      23.239   2.069  52.126  1.00  0.00     0.723 A 
HETATM    2  N3  UNL     1      23.449   2.869  51.067  1.00  0.00    -0.075 NA
HETATM    3  C8  UNL     1      24.710   3.165  50.702  1.00  0.00     0.139 A 
HETATM    4  C9  UNL     1      25.816   2.661  51.395  1.00  0.00     0.053 A 
HETATM    5  C10 UNL     1      25.567   1.842  52.476  1.00  0.00     0.089 A 
HETATM    6  N5  UNL     1      24.297   1.562  52.821  1.00  0.00    -0.062 NA
ENDROOT
BRANCH   1   7
HETATM    7  N2  UNL     1      21.910   1.749  52.524  1.00  0.00    -0.211 N 
HETATM    8  H10 UNL     1      21.355   2.450  53.071  1.00  0.00     0.178 HD
BRANCH   7   9
HETATM    9  C6  UNL     1      21.401   0.442  52.137  1.00  0.00     0.172 A 
HETATM   10  C2  UNL     1      20.379   0.009  53.079  1.00  0.00     0.033 A 
HETATM   11  C3  UNL     1      19.450   0.024  52.192  1.00  0.00    -0.039 A 
HETATM   12  C4  UNL     1      18.002  -0.277  52.200  1.00  0.00     0.047 C 
HETATM   13  C5  UNL     1      20.309   0.451  51.131  1.00  0.00     0.142 A 
HETATM   14 CL1  UNL     1      19.960   2.032  50.396  1.00  0.00    -0.118 Cl
BRANCH  10  15
HETATM   15  N1  UNL     1      20.626  -0.266  54.468  1.00  0.00    -0.396 N 
HETATM   16  C1  UNL     1      21.803  -1.002  54.896  1.00  0.00     0.146 C 
HETATM   17  H4  UNL     1      19.986   0.040  55.256  1.00  0.00     0.159 HD
ENDBRANCH  10  15
ENDBRANCH   7   9
ENDBRANCH   1   7
BRANCH   5  18
HETATM   18  C11 UNL     1      26.623   1.249  53.286  1.00  0.00     0.011 A 
HETATM   19  C12 UNL     1      27.921   1.651  53.056  1.00  0.00     0.017 A 
HETATM   20  C13 UNL     1      29.008   1.145  53.777  1.00  0.00     0.020 A 
HETATM   21  C14 UNL     1      28.745   0.200  54.757  1.00  0.00     0.116 A 
HETATM   22  N4  UNL     1      27.479  -0.185  54.973  1.00  0.00    -0.272 NA
HETATM   23  C15 UNL     1      26.426   0.311  54.270  1.00  0.00     0.130 A 
ENDBRANCH   5  18
TORSDOF 4
ENDMDL
