MODEL 1
REMARK VINA RESULT:      -8.8      0.000      0.000
REMARK  4 active torsions:
REMARK  status: ('A' for Active; 'I' for Inactive)
REMARK    1  A    between atoms: C2_2  and  C3_3 
REMARK       I    between atoms: C3_3  and  N1_5 
REMARK    2  A    between atoms: N1_5  and  C4_6 
REMARK    3  A    between atoms: C11_15  and  N4_16 
REMARK    4  A    between atoms: N4_16  and  C12_17 
ROOT
HETATM    1  C4  UNL     1      24.535   3.124  50.064  1.00  0.00     0.035 A 
HETATM    2  C5  UNL     1      23.479   2.899  49.168  1.00  0.00     0.032 A 
HETATM    3  C6  UNL     1      22.457   2.000  49.505  1.00  0.00     0.035 A 
HETATM    4  C7  UNL     1      22.521   1.358  50.722  1.00  0.00     0.069 A 
HETATM    5  N2  UNL     1      21.507   0.510  51.006  1.00  0.00    -0.259 NA
HETATM    6  C8  UNL     1      21.504  -0.153  52.205  1.00  0.00     0.142 A 
HETATM    7  C9  UNL     1      22.563   0.095  53.066  1.00  0.00     0.089 A 
HETATM    8  C10 UNL     1      22.506  -0.622  54.308  1.00  0.00     0.103 C 
HETATM    9  N3  UNL     1      22.441  -1.215  55.325  1.00  0.00    -0.191 NA
HETATM   10  C11 UNL     1      23.602   0.949  52.802  1.00  0.00     0.067 A 
HETATM   11  C17 UNL     1      23.577   1.608  51.575  1.00  0.00     0.023 A 
HETATM   12  C18 UNL     1      24.587   2.474  51.279  1.00  0.00     0.045 A 
ENDROOT
BRANCH  10  13
HETATM   13  N4  UNL     1      24.652   1.162  53.739  1.00  0.00    -0.353 N 
HETATM   14  H8  UNL     1      24.704   1.878  54.490  1.00  0.00     0.166 HD
BRANCH  13  15
HETATM   15  C12 UNL     1      25.761   0.252  53.580  1.00  0.00     0.045 C 
HETATM   16  C13 UNL     1      25.743  -0.857  52.849  1.00  0.00     0.004 C 
HETATM   17  C14 UNL     1      26.899  -1.057  52.228  1.00  0.00     0.033 C 
HETATM   18  C15 UNL     1      27.830  -0.573  53.267  1.00  0.00     0.014 C 
HETATM   19 BR1  UNL     1      29.695  -0.884  53.585  1.00  0.00    -0.051 Br
HETATM   20  C16 UNL     1      27.135   0.230  54.098  1.00  0.00     0.049 C 
ENDBRANCH  13  15
ENDBRANCH  10  13
BRANCH   1  21
HETATM   21  N1  UNL     1      25.435   4.074  49.522  1.00  0.00    -0.324 N 
HETATM   22  C3  UNL     1      25.791   5.433  49.601  1.00  0.00     0.244 C 
HETATM   23  O1  UNL     1      25.276   6.310  50.329  1.00  0.00    -0.268 OA
HETATM   24  H4  UNL     1      25.965   3.448  48.849  1.00  0.00     0.169 HD
BRANCH  22  25
HETATM   25  C2  UNL     1      26.872   5.898  48.753  1.00  0.00     0.064 C 
HETATM   26  C1  UNL     1      27.693   4.862  48.618  1.00  0.00     0.017 C 
ENDBRANCH  22  25
ENDBRANCH   1  21
TORSDOF 4
ENDMDL
MODEL 2
REMARK VINA RESULT:      -8.5      3.091      5.668
REMARK  4 active torsions:
REMARK  status: ('A' for Active; 'I' for Inactive)
REMARK    1  A    between atoms: C2_2  and  C3_3 
REMARK       I    between atoms: C3_3  and  N1_5 
REMARK    2  A    between atoms: N1_5  and  C4_6 
REMARK    3  A    between atoms: C11_15  and  N4_16 
REMARK    4  A    between atoms: N4_16  and  C12_17 
ROOT
HETATM    1  C4  UNL     1      25.325  -0.621  54.155  1.00  0.00     0.035 A 
HETATM    2  C5  UNL     1      24.859  -1.182  55.354  1.00  0.00     0.032 A 
HETATM    3  C6  UNL     1      23.480  -1.314  55.572  1.00  0.00     0.035 A 
HETATM    4  C7  UNL     1      22.615  -0.885  54.590  1.00  0.00     0.069 A 
HETATM    5  N2  UNL     1      21.296  -1.045  54.844  1.00  0.00    -0.259 NA
HETATM    6  C8  UNL     1      20.381  -0.649  53.904  1.00  0.00     0.142 A 
HETATM    7  C9  UNL     1      20.879  -0.100  52.731  1.00  0.00     0.089 A 
HETATM    8  C10 UNL     1      19.876   0.293  51.782  1.00  0.00     0.103 C 
HETATM    9  N3  UNL     1      19.040   0.604  51.011  1.00  0.00    -0.191 NA
HETATM   10  C11 UNL     1      22.209   0.072  52.451  1.00  0.00     0.067 A 
HETATM   11  C17 UNL     1      23.114  -0.340  53.426  1.00  0.00     0.023 A 
HETATM   12  C18 UNL     1      24.447  -0.195  53.181  1.00  0.00     0.045 A 
ENDROOT
BRANCH  10  13
HETATM   13  N4  UNL     1      22.646   0.635  51.219  1.00  0.00    -0.353 N 
HETATM   14  H8  UNL     1      22.802   0.151  50.313  1.00  0.00     0.166 HD
BRANCH  13  15
HETATM   15  C12 UNL     1      22.902   2.054  51.291  1.00  0.00     0.045 C 
HETATM   16  C13 UNL     1      22.577   2.840  52.312  1.00  0.00     0.004 C 
HETATM   17  C14 UNL     1      23.503   3.764  52.538  1.00  0.00     0.033 C 
HETATM   18  C15 UNL     1      23.903   4.063  51.148  1.00  0.00     0.014 C 
HETATM   19 BR1  UNL     1      24.780   5.568  50.346  1.00  0.00    -0.051 Br
HETATM   20  C16 UNL     1      23.536   3.017  50.381  1.00  0.00     0.049 C 
ENDBRANCH  13  15
ENDBRANCH  10  13
BRANCH   1  21
HETATM   21  N1  UNL     1      26.742  -0.600  54.149  1.00  0.00    -0.324 N 
HETATM   22  C3  UNL     1      27.837   0.260  54.347  1.00  0.00     0.244 C 
HETATM   23  O1  UNL     1      27.802   1.477  54.636  1.00  0.00    -0.268 OA
HETATM   24  H4  UNL     1      26.930  -1.615  53.903  1.00  0.00     0.169 HD
BRANCH  22  25
HETATM   25  C2  UNL     1      29.169  -0.298  54.205  1.00  0.00     0.064 C 
HETATM   26  C1  UNL     1      29.045  -1.306  53.347  1.00  0.00     0.017 C 
ENDBRANCH  22  25
ENDBRANCH   1  21
TORSDOF 4
ENDMDL
MODEL 3
REMARK VINA RESULT:      -8.5      3.548      7.115
REMARK  4 active torsions:
REMARK  status: ('A' for Active; 'I' for Inactive)
REMARK    1  A    between atoms: C2_2  and  C3_3 
REMARK       I    between atoms: C3_3  and  N1_5 
REMARK    2  A    between atoms: N1_5  and  C4_6 
REMARK    3  A    between atoms: C11_15  and  N4_16 
REMARK    4  A    between atoms: N4_16  and  C12_17 
ROOT
HETATM    1  C4  UNL     1      21.273  -0.816  53.714  1.00  0.00     0.035 A 
HETATM    2  C5  UNL     1      21.879  -1.458  54.804  1.00  0.00     0.032 A 
HETATM    3  C6  UNL     1      23.252  -1.293  55.035  1.00  0.00     0.035 A 
HETATM    4  C7  UNL     1      23.974  -0.497  54.174  1.00  0.00     0.069 A 
HETATM    5  N2  UNL     1      25.291  -0.361  54.445  1.00  0.00    -0.259 NA
HETATM    6  C8  UNL     1      26.065   0.427  53.634  1.00  0.00     0.142 A 
HETATM    7  C9  UNL     1      25.431   1.046  52.566  1.00  0.00     0.089 A 
HETATM    8  C10 UNL     1      26.288   1.861  51.753  1.00  0.00     0.103 C 
HETATM    9  N3  UNL     1      27.004   2.532  51.099  1.00  0.00    -0.191 NA
HETATM   10  C11 UNL     1      24.099   0.924  52.270  1.00  0.00     0.067 A 
HETATM   11  C17 UNL     1      23.339   0.117  53.113  1.00  0.00     0.023 A 
HETATM   12  C18 UNL     1      22.008  -0.022  52.858  1.00  0.00     0.045 A 
ENDROOT
BRANCH  10  13
HETATM   13  N4  UNL     1      23.515   1.599  51.161  1.00  0.00    -0.353 N 
HETATM   14  H8  UNL     1      23.209   1.194  50.254  1.00  0.00     0.166 HD
BRANCH  13  15
HETATM   15  C12 UNL     1      23.358   3.019  51.365  1.00  0.00     0.045 C 
HETATM   16  C13 UNL     1      22.771   3.581  52.416  1.00  0.00     0.004 C 
HETATM   17  C14 UNL     1      23.387   4.697  52.787  1.00  0.00     0.033 C 
HETATM   18  C15 UNL     1      23.763   5.229  51.462  1.00  0.00     0.014 C 
HETATM   19 BR1  UNL     1      24.226   6.988  50.855  1.00  0.00    -0.051 Br
HETATM   20  C16 UNL     1      23.746   4.203  50.588  1.00  0.00     0.049 C 
ENDBRANCH  13  15
ENDBRANCH  10  13
BRANCH   1  21
HETATM   21  N1  UNL     1      19.888  -1.112  53.687  1.00  0.00    -0.324 N 
HETATM   22  C3  UNL     1      18.712  -0.840  52.964  1.00  0.00     0.244 C 
HETATM   23  O1  UNL     1      18.594  -0.109  51.956  1.00  0.00    -0.268 OA
HETATM   24  H4  UNL     1      19.830  -1.755  54.529  1.00  0.00     0.169 HD
BRANCH  22  25
HETATM   25  C2  UNL     1      17.482  -1.463  53.416  1.00  0.00     0.064 C 
HETATM   26  C1  UNL     1      17.794  -2.730  53.670  1.00  0.00     0.017 C 
ENDBRANCH  22  25
ENDBRANCH   1  21
TORSDOF 4
ENDMDL
MODEL 4
REMARK VINA RESULT:      -8.1      3.422      5.829
REMARK  4 active torsions:
REMARK  status: ('A' for Active; 'I' for Inactive)
REMARK    1  A    between atoms: C2_2  and  C3_3 
REMARK       I    between atoms: C3_3  and  N1_5 
REMARK    2  A    between atoms: N1_5  and  C4_6 
REMARK    3  A    between atoms: C11_15  and  N4_16 
REMARK    4  A    between atoms: N4_16  and  C12_17 
ROOT
HETATM    1  C4  UNL     1      25.872   0.534  53.386  1.00  0.00     0.035 A 
HETATM    2  C5  UNL     1      25.229  -0.609  53.884  1.00  0.00     0.032 A 
HETATM    3  C6  UNL     1      23.828  -0.679  53.878  1.00  0.00     0.035 A 
HETATM    4  C7  UNL     1      23.118   0.389  53.376  1.00  0.00     0.069 A 
HETATM    5  N2  UNL     1      21.771   0.268  53.382  1.00  0.00    -0.259 NA
HETATM    6  C8  UNL     1      21.005   1.290  52.887  1.00  0.00     0.142 A 
HETATM    7  C9  UNL     1      21.676   2.404  52.402  1.00  0.00     0.089 A 
HETATM    8  C10 UNL     1      20.825   3.441  51.892  1.00  0.00     0.103 C 
HETATM    9  N3  UNL     1      20.111   4.280  51.472  1.00  0.00    -0.191 NA
HETATM   10  C11 UNL     1      23.038   2.550  52.385  1.00  0.00     0.067 A 
HETATM   11  C17 UNL     1      23.790   1.494  52.895  1.00  0.00     0.023 A 
HETATM   12  C18 UNL     1      25.149   1.597  52.887  1.00  0.00     0.045 A 
ENDROOT
BRANCH  10  13
HETATM   13  N4  UNL     1      23.658   3.720  51.862  1.00  0.00    -0.353 N 
HETATM   14  H8  UNL     1      24.143   4.476  52.384  1.00  0.00     0.166 HD
BRANCH  13  15
HETATM   15  C12 UNL     1      23.566   3.829  50.425  1.00  0.00     0.045 C 
HETATM   16  C13 UNL     1      23.839   2.855  49.564  1.00  0.00     0.004 C 
HETATM   17  C14 UNL     1      23.008   2.864  48.529  1.00  0.00     0.033 C 
HETATM   18  C15 UNL     1      22.841   4.320  48.354  1.00  0.00     0.014 C 
HETATM   19 BR1  UNL     1      22.268   5.391  46.870  1.00  0.00    -0.051 Br
HETATM   20  C16 UNL     1      23.182   4.916  49.515  1.00  0.00     0.049 C 
ENDBRANCH  13  15
ENDBRANCH  10  13
BRANCH   1  21
HETATM   21  N1  UNL     1      27.277   0.377  53.479  1.00  0.00    -0.324 N 
HETATM   22  C3  UNL     1      28.452   1.089  53.782  1.00  0.00     0.244 C 
HETATM   23  O1  UNL     1      28.546   2.292  54.111  1.00  0.00    -0.268 OA
HETATM   24  H4  UNL     1      27.358  -0.646  53.211  1.00  0.00     0.169 HD
BRANCH  22  25
HETATM   25  C2  UNL     1      29.712   0.373  53.714  1.00  0.00     0.064 C 
HETATM   26  C1  UNL     1      29.391  -0.897  53.485  1.00  0.00     0.017 C 
ENDBRANCH  22  25
ENDBRANCH   1  21
TORSDOF 4
ENDMDL
MODEL 5
REMARK VINA RESULT:      -7.8      3.768      6.514
REMARK  4 active torsions:
REMARK  status: ('A' for Active; 'I' for Inactive)
REMARK    1  A    between atoms: C2_2  and  C3_3 
REMARK       I    between atoms: C3_3  and  N1_5 
REMARK    2  A    between atoms: N1_5  and  C4_6 
REMARK    3  A    between atoms: C11_15  and  N4_16 
REMARK    4  A    between atoms: N4_16  and  C12_17 
ROOT
HETATM    1  C4  UNL     1      25.039   1.804  53.265  1.00  0.00     0.035 A 
HETATM    2  C5  UNL     1      24.069   0.799  53.133  1.00  0.00     0.032 A 
HETATM    3  C6  UNL     1      22.798   1.117  52.634  1.00  0.00     0.035 A 
HETATM    4  C7  UNL     1      22.537   2.423  52.284  1.00  0.00     0.069 A 
HETATM    5  N2  UNL     1      21.300   2.677  51.799  1.00  0.00    -0.259 NA
HETATM    6  C8  UNL     1      20.978   3.954  51.421  1.00  0.00     0.142 A 
HETATM    7  C9  UNL     1      21.963   4.922  51.566  1.00  0.00     0.089 A 
HETATM    8  C10 UNL     1      21.572   6.240  51.151  1.00  0.00     0.103 C 
HETATM    9  N3  UNL     1      21.237   7.314  50.801  1.00  0.00    -0.191 NA
HETATM   10  C11 UNL     1      23.221   4.690  52.055  1.00  0.00     0.067 A 
HETATM   11  C17 UNL     1      23.519   3.382  52.430  1.00  0.00     0.023 A 
HETATM   12  C18 UNL     1      24.763   3.108  52.912  1.00  0.00     0.045 A 
ENDROOT
BRANCH  10  13
HETATM   13  N4  UNL     1      24.184   5.732  52.166  1.00  0.00    -0.353 N 
HETATM   14  H8  UNL     1      24.496   6.228  53.024  1.00  0.00     0.166 HD
BRANCH  13  15
HETATM   15  C12 UNL     1      24.763   6.121  50.901  1.00  0.00     0.045 C 
HETATM   16  C13 UNL     1      25.280   5.285  50.007  1.00  0.00     0.004 C 
HETATM   17  C14 UNL     1      25.011   5.666  48.764  1.00  0.00     0.033 C 
HETATM   18  C15 UNL     1      25.113   7.130  48.923  1.00  0.00     0.014 C 
HETATM   19 BR1  UNL     1      25.400   8.554  47.670  1.00  0.00    -0.051 Br
HETATM   20  C16 UNL     1      24.961   7.413  50.232  1.00  0.00     0.049 C 
ENDBRANCH  13  15
ENDBRANCH  10  13
BRANCH   1  21
HETATM   21  N1  UNL     1      26.241   1.252  53.771  1.00  0.00    -0.324 N 
HETATM   22  C3  UNL     1      26.723   0.315  54.703  1.00  0.00     0.244 C 
HETATM   23  O1  UNL     1      26.048  -0.405  55.472  1.00  0.00    -0.268 OA
HETATM   24  H4  UNL     1      26.942   1.795  53.188  1.00  0.00     0.169 HD
BRANCH  22  25
HETATM   25  C2  UNL     1      28.160   0.144  54.808  1.00  0.00     0.064 C 
HETATM   26  C1  UNL     1      28.554  -0.311  53.623  1.00  0.00     0.017 C 
ENDBRANCH  22  25
ENDBRANCH   1  21
TORSDOF 4
ENDMDL
MODEL 6
REMARK VINA RESULT:      -7.8      3.069      4.681
REMARK  4 active torsions:
REMARK  status: ('A' for Active; 'I' for Inactive)
REMARK    1  A    between atoms: C2_2  and  C3_3 
REMARK       I    between atoms: C3_3  and  N1_5 
REMARK    2  A    between atoms: N1_5  and  C4_6 
REMARK    3  A    between atoms: C11_15  and  N4_16 
REMARK    4  A    between atoms: N4_16  and  C12_17 
ROOT
HETATM    1  C4  UNL     1      25.869   3.072  50.946  1.00  0.00     0.035 A 
HETATM    2  C5  UNL     1      26.868   2.123  51.208  1.00  0.00     0.032 A 
HETATM    3  C6  UNL     1      26.570   0.992  51.982  1.00  0.00     0.035 A 
HETATM    4  C7  UNL     1      25.289   0.846  52.466  1.00  0.00     0.069 A 
HETATM    5  N2  UNL     1      25.049  -0.266  53.198  1.00  0.00    -0.259 NA
HETATM    6  C8  UNL     1      23.793  -0.479  53.701  1.00  0.00     0.142 A 
HETATM    7  C9  UNL     1      22.831   0.481  53.420  1.00  0.00     0.089 A 
HETATM    8  C10 UNL     1      21.533   0.205  53.968  1.00  0.00     0.103 C 
HETATM    9  N3  UNL     1      20.472  -0.040  54.420  1.00  0.00    -0.191 NA
HETATM   10  C11 UNL     1      23.049   1.615  52.683  1.00  0.00     0.067 A 
HETATM   11  C17 UNL     1      24.336   1.803  52.185  1.00  0.00     0.023 A 
HETATM   12  C18 UNL     1      24.591   2.914  51.438  1.00  0.00     0.045 A 
ENDROOT
BRANCH  10  13
HETATM   13  N4  UNL     1      22.008   2.552  52.427  1.00  0.00    -0.353 N 
HETATM   14  H8  UNL     1      21.863   3.484  52.865  1.00  0.00     0.166 HD
BRANCH  13  15
HETATM   15  C12 UNL     1      21.056   2.104  51.439  1.00  0.00     0.045 C 
HETATM   16  C13 UNL     1      21.346   1.804  50.177  1.00  0.00     0.004 C 
HETATM   17  C14 UNL     1      20.643   0.765  49.743  1.00  0.00     0.033 C 
HETATM   18  C15 UNL     1      19.362   1.024  50.428  1.00  0.00     0.014 C 
HETATM   19 BR1  UNL     1      17.569   0.430  50.095  1.00  0.00    -0.051 Br
HETATM   20  C16 UNL     1      19.611   1.845  51.469  1.00  0.00     0.049 C 
ENDBRANCH  13  15
ENDBRANCH  10  13
BRANCH   1  21
HETATM   21  N1  UNL     1      26.391   4.114  50.139  1.00  0.00    -0.324 N 
HETATM   22  C3  UNL     1      25.991   5.204  49.345  1.00  0.00     0.244 C 
HETATM   23  O1  UNL     1      24.823   5.587  49.116  1.00  0.00    -0.268 OA
HETATM   24  H4  UNL     1      27.427   3.908  50.236  1.00  0.00     0.169 HD
BRANCH  22  25
HETATM   25  C2  UNL     1      27.030   5.990  48.705  1.00  0.00     0.064 C 
HETATM   26  C1  UNL     1      28.043   5.152  48.507  1.00  0.00     0.017 C 
ENDBRANCH  22  25
ENDBRANCH   1  21
TORSDOF 4
ENDMDL
MODEL 7
REMARK VINA RESULT:      -7.6      3.516      5.651
REMARK  4 active torsions:
REMARK  status: ('A' for Active; 'I' for Inactive)
REMARK    1  A    between atoms: C2_2  and  C3_3 
REMARK       I    between atoms: C3_3  and  N1_5 
REMARK    2  A    between atoms: N1_5  and  C4_6 
REMARK    3  A    between atoms: C11_15  and  N4_16 
REMARK    4  A    between atoms: N4_16  and  C12_17 
ROOT
HETATM    1  C4  UNL     1      26.213   1.606  52.341  1.00  0.00     0.035 A 
HETATM    2  C5  UNL     1      26.658   2.151  51.128  1.00  0.00     0.032 A 
HETATM    3  C6  UNL     1      25.756   2.823  50.291  1.00  0.00     0.035 A 
HETATM    4  C7  UNL     1      24.442   2.929  50.691  1.00  0.00     0.069 A 
HETATM    5  N2  UNL     1      23.613   3.594  49.855  1.00  0.00    -0.259 NA
HETATM    6  C8  UNL     1      22.296   3.745  50.199  1.00  0.00     0.142 A 
HETATM    7  C9  UNL     1      21.891   3.193  51.406  1.00  0.00     0.089 A 
HETATM    8  C10 UNL     1      20.503   3.385  51.717  1.00  0.00     0.103 C 
HETATM    9  N3  UNL     1      19.362   3.557  51.959  1.00  0.00    -0.191 NA
HETATM   10  C11 UNL     1      22.711   2.515  52.269  1.00  0.00     0.067 A 
HETATM   11  C17 UNL     1      24.044   2.378  51.893  1.00  0.00     0.023 A 
HETATM   12  C18 UNL     1      24.894   1.718  52.729  1.00  0.00     0.045 A 
ENDROOT
BRANCH  10  13
HETATM   13  N4  UNL     1      22.226   1.984  53.498  1.00  0.00    -0.353 N 
HETATM   14  H8  UNL     1      22.321   2.386  54.452  1.00  0.00     0.166 HD
BRANCH  13  15
HETATM   15  C12 UNL     1      21.534   0.726  53.350  1.00  0.00     0.045 C 
HETATM   16  C13 UNL     1      22.110  -0.471  53.364  1.00  0.00     0.004 C 
HETATM   17  C14 UNL     1      21.358  -1.374  53.983  1.00  0.00     0.033 C 
HETATM   18  C15 UNL     1      20.020  -0.925  53.548  1.00  0.00     0.014 C 
HETATM   19 BR1  UNL     1      18.320  -1.810  53.461  1.00  0.00    -0.051 Br
HETATM   20  C16 UNL     1      20.124   0.362  53.160  1.00  0.00     0.049 C 
ENDBRANCH  13  15
ENDBRANCH  10  13
BRANCH   1  21
HETATM   21  N1  UNL     1      27.293   0.992  53.022  1.00  0.00    -0.324 N 
HETATM   22  C3  UNL     1      27.668  -0.213  53.643  1.00  0.00     0.244 C 
HETATM   23  O1  UNL     1      26.977  -1.249  53.767  1.00  0.00    -0.268 OA
HETATM   24  H4  UNL     1      27.991   1.790  52.998  1.00  0.00     0.169 HD
BRANCH  22  25
HETATM   25  C2  UNL     1      28.999  -0.292  54.216  1.00  0.00     0.064 C 
HETATM   26  C1  UNL     1      29.686  -1.100  53.414  1.00  0.00     0.017 C 
ENDBRANCH  22  25
ENDBRANCH   1  21
TORSDOF 4
ENDMDL
MODEL 8
REMARK VINA RESULT:      -7.4      2.257      3.106
REMARK  4 active torsions:
REMARK  status: ('A' for Active; 'I' for Inactive)
REMARK    1  A    between atoms: C2_2  and  C3_3 
REMARK       I    between atoms: C3_3  and  N1_5 
REMARK    2  A    between atoms: N1_5  and  C4_6 
REMARK    3  A    between atoms: C11_15  and  N4_16 
REMARK    4  A    between atoms: N4_16  and  C12_17 
ROOT
HETATM    1  C4  UNL     1      25.477   5.689  49.847  1.00  0.00     0.035 A 
HETATM    2  C5  UNL     1      24.630   6.786  50.059  1.00  0.00     0.032 A 
HETATM    3  C6  UNL     1      23.412   6.609  50.732  1.00  0.00     0.035 A 
HETATM    4  C7  UNL     1      23.082   5.345  51.170  1.00  0.00     0.069 A 
HETATM    5  N2  UNL     1      21.903   5.228  51.822  1.00  0.00    -0.259 NA
HETATM    6  C8  UNL     1      21.518   4.001  52.295  1.00  0.00     0.142 A 
HETATM    7  C9  UNL     1      22.382   2.939  52.067  1.00  0.00     0.089 A 
HETATM    8  C10 UNL     1      21.931   1.679  52.587  1.00  0.00     0.103 C 
HETATM    9  N3  UNL     1      21.549   0.653  53.025  1.00  0.00    -0.191 NA
HETATM   10  C11 UNL     1      23.580   3.032  51.410  1.00  0.00     0.067 A 
HETATM   11  C17 UNL     1      23.944   4.292  50.941  1.00  0.00     0.023 A 
HETATM   12  C18 UNL     1      25.133   4.429  50.291  1.00  0.00     0.045 A 
ENDROOT
BRANCH  10  13
HETATM   13  N4  UNL     1      24.421   1.898  51.222  1.00  0.00    -0.353 N 
HETATM   14  H8  UNL     1      24.326   1.141  50.517  1.00  0.00     0.166 HD
BRANCH  13  15
HETATM   15  C12 UNL     1      25.518   1.832  52.158  1.00  0.00     0.045 C 
HETATM   16  C13 UNL     1      25.457   2.185  53.436  1.00  0.00     0.004 C 
HETATM   17  C14 UNL     1      26.177   1.378  54.206  1.00  0.00     0.033 C 
HETATM   18  C15 UNL     1      27.318   1.123  53.305  1.00  0.00     0.014 C 
HETATM   19 BR1  UNL     1      29.110   0.518  53.620  1.00  0.00    -0.051 Br
HETATM   20  C16 UNL     1      26.918   1.401  52.047  1.00  0.00     0.049 C 
ENDBRANCH  13  15
ENDBRANCH  10  13
BRANCH   1  21
HETATM   21  N1  UNL     1      26.648   6.105  49.166  1.00  0.00    -0.324 N 
HETATM   22  C3  UNL     1      27.816   5.602  48.566  1.00  0.00     0.244 C 
HETATM   23  O1  UNL     1      28.170   4.405  48.479  1.00  0.00    -0.268 OA
HETATM   24  H4  UNL     1      26.486   7.153  49.165  1.00  0.00     0.169 HD
BRANCH  22  25
HETATM   25  C2  UNL     1      28.735   6.556  47.973  1.00  0.00     0.064 C 
HETATM   26  C1  UNL     1      29.911   5.939  47.926  1.00  0.00     0.017 C 
ENDBRANCH  22  25
ENDBRANCH   1  21
TORSDOF 4
ENDMDL
MODEL 9
REMARK VINA RESULT:      -7.2      3.534      6.055
REMARK  4 active torsions:
REMARK  status: ('A' for Active; 'I' for Inactive)
REMARK    1  A    between atoms: C2_2  and  C3_3 
REMARK       I    between atoms: C3_3  and  N1_5 
REMARK    2  A    between atoms: N1_5  and  C4_6 
REMARK    3  A    between atoms: C11_15  and  N4_16 
REMARK    4  A    between atoms: N4_16  and  C12_17 
ROOT
HETATM    1  C4  UNL     1      25.998   2.397  51.831  1.00  0.00     0.035 A 
HETATM    2  C5  UNL     1      26.793   2.882  50.781  1.00  0.00     0.032 A 
HETATM    3  C6  UNL     1      26.230   3.723  49.811  1.00  0.00     0.035 A 
HETATM    4  C7  UNL     1      24.897   4.052  49.920  1.00  0.00     0.069 A 
HETATM    5  N2  UNL     1      24.404   4.874  48.966  1.00  0.00    -0.259 NA
HETATM    6  C8  UNL     1      23.088   5.251  49.021  1.00  0.00     0.142 A 
HETATM    7  C9  UNL     1      22.333   4.752  50.073  1.00  0.00     0.089 A 
HETATM    8  C10 UNL     1      20.963   5.181  50.083  1.00  0.00     0.103 C 
HETATM    9  N3  UNL     1      19.843   5.548  50.080  1.00  0.00    -0.191 NA
HETATM   10  C11 UNL     1      22.809   3.918  51.051  1.00  0.00     0.067 A 
HETATM   11  C17 UNL     1      24.150   3.554  50.968  1.00  0.00     0.023 A 
HETATM   12  C18 UNL     1      24.664   2.733  51.927  1.00  0.00     0.045 A 
ENDROOT
BRANCH  10  13
HETATM   13  N4  UNL     1      21.976   3.453  52.107  1.00  0.00    -0.353 N 
HETATM   14  H8  UNL     1      21.910   3.817  53.079  1.00  0.00     0.166 HD
BRANCH  13  15
HETATM   15  C12 UNL     1      21.146   2.331  51.738  1.00  0.00     0.045 C 
HETATM   16  C13 UNL     1      21.464   1.407  50.838  1.00  0.00     0.004 C 
HETATM   17  C14 UNL     1      21.049   0.200  51.202  1.00  0.00     0.033 C 
HETATM   18  C15 UNL     1      19.768   0.558  51.841  1.00  0.00     0.014 C 
HETATM   19 BR1  UNL     1      18.187  -0.456  52.235  1.00  0.00    -0.051 Br
HETATM   20  C16 UNL     1      19.823   1.864  52.171  1.00  0.00     0.049 C 
ENDBRANCH  13  15
ENDBRANCH  10  13
BRANCH   1  21
HETATM   21  N1  UNL     1      26.776   1.584  52.692  1.00  0.00    -0.324 N 
HETATM   22  C3  UNL     1      27.796   1.655  53.659  1.00  0.00     0.244 C 
HETATM   23  O1  UNL     1      28.380   2.681  54.070  1.00  0.00    -0.268 OA
HETATM   24  H4  UNL     1      26.378   0.633  52.442  1.00  0.00     0.169 HD
BRANCH  22  25
HETATM   25  C2  UNL     1      28.240   0.413  54.264  1.00  0.00     0.064 C 
HETATM   26  C1  UNL     1      29.422   0.150  53.715  1.00  0.00     0.017 C 
ENDBRANCH  22  25
ENDBRANCH   1  21
TORSDOF 4
ENDMDL
