MODEL 1
REMARK VINA RESULT:      -7.4      0.000      0.000
REMARK  10 active torsions:
REMARK  status: ('A' for Active; 'I' for Inactive)
REMARK    1  A    between atoms: C2_2  and  C3_3 
REMARK    2  A    between atoms: C3_3  and  C4_5 
REMARK    3  A    between atoms: C5_7  and  C6_8 
REMARK    4  A    between atoms: C6_8  and  N1_9 
REMARK    5  A    between atoms: N1_9  and  C7_10 
REMARK    6  A    between atoms: C11_16  and  O1_17 
REMARK    7  A    between atoms: C13_19  and  O2_20 
REMARK    8  A    between atoms: O2_20  and  C14_21 
REMARK    9  A    between atoms: C14_21  and  C15_22 
REMARK   10  A    between atoms: C15_22  and  N4_23 
ROOT
HETATM    1  C7  UNL     1      23.872  -0.189  53.437  1.00  0.00     0.137 A 
HETATM    2  N2  UNL     1      24.507  -0.751  54.474  1.00  0.00    -0.224 NA
HETATM    3  C8  UNL     1      23.839  -1.438  55.414  1.00  0.00     0.235 A 
HETATM    4  N3  UNL     1      22.506  -1.604  55.374  1.00  0.00    -0.241 NA
HETATM    5  C9  UNL     1      21.805  -1.072  54.370  1.00  0.00     0.075 A 
HETATM    6  C10 UNL     1      20.437  -1.204  54.264  1.00  0.00     0.072 A 
HETATM    7  C11 UNL     1      19.765  -0.629  53.193  1.00  0.00     0.103 A 
HETATM    8  C13 UNL     1      20.432   0.095  52.194  1.00  0.00     0.103 A 
HETATM    9  C18 UNL     1      21.792   0.177  52.379  1.00  0.00     0.057 A 
HETATM   10  C19 UNL     1      22.506  -0.370  53.414  1.00  0.00     0.041 A 
ENDROOT
BRANCH   1  11
HETATM   11  N1  UNL     1      24.617   0.538  52.462  1.00  0.00    -0.370 N 
HETATM   12  H6  UNL     1      24.226   1.279  51.844  1.00  0.00     0.161 HD
BRANCH  11  13
HETATM   13  C6  UNL     1      26.044   0.218  52.317  1.00  0.00     0.150 C 
BRANCH  13  14
HETATM   14  C5  UNL     1      26.783   1.484  52.192  1.00  0.00     0.020 C 
HETATM   15  C4  UNL     1      27.755   1.661  53.063  1.00  0.00     0.078 C 
HETATM   16 CL1  UNL     1      29.055   2.623  53.724  1.00  0.00    -0.081 Cl
BRANCH  15  17
HETATM   17  C3  UNL     1      27.939   0.576  54.006  1.00  0.00     0.179 C 
HETATM   18  F1  UNL     1      27.281   0.253  55.130  1.00  0.00    -0.195 F 
BRANCH  17  19
HETATM   19  C2  UNL     1      28.910  -0.298  53.791  1.00  0.00    -0.112 C 
HETATM   20  C1  UNL     1      29.679  -1.325  53.532  1.00  0.00     0.100 C 
ENDBRANCH  17  19
ENDBRANCH  15  17
ENDBRANCH  13  14
ENDBRANCH  11  13
ENDBRANCH   1  11
BRANCH   8  21
HETATM   21  O2  UNL     1      19.561   0.551  51.262  1.00  0.00    -0.347 OA
BRANCH  21  22
HETATM   22  C14 UNL     1      19.318   1.805  50.735  1.00  0.00     0.206 C 
BRANCH  22  23
HETATM   23  C15 UNL     1      19.432   2.944  51.707  1.00  0.00     0.297 C 
BRANCH  23  24
HETATM   24  N4  UNL     1      20.410   3.917  51.345  1.00  0.00     0.082 N 
HETATM   25  C16 UNL     1      21.540   4.041  52.205  1.00  0.00     0.309 C 
HETATM   26  C17 UNL     1      20.868   3.638  50.001  1.00  0.00     0.309 C 
ENDBRANCH  23  24
ENDBRANCH  22  23
ENDBRANCH  21  22
ENDBRANCH   8  21
BRANCH   7  27
HETATM   27  O1  UNL     1      18.394  -0.838  53.207  1.00  0.00    -0.353 OA
HETATM   28  C12 UNL     1      17.819  -2.075  53.522  1.00  0.00     0.210 C 
ENDBRANCH   7  27
TORSDOF 10
ENDMDL
MODEL 2
REMARK VINA RESULT:      -7.1      2.313      3.516
REMARK  10 active torsions:
REMARK  status: ('A' for Active; 'I' for Inactive)
REMARK    1  A    between atoms: C2_2  and  C3_3 
REMARK    2  A    between atoms: C3_3  and  C4_5 
REMARK    3  A    between atoms: C5_7  and  C6_8 
REMARK    4  A    between atoms: C6_8  and  N1_9 
REMARK    5  A    between atoms: N1_9  and  C7_10 
REMARK    6  A    between atoms: C11_16  and  O1_17 
REMARK    7  A    between atoms: C13_19  and  O2_20 
REMARK    8  A    between atoms: O2_20  and  C14_21 
REMARK    9  A    between atoms: C14_21  and  C15_22 
REMARK   10  A    between atoms: C15_22  and  N4_23 
ROOT
HETATM    1  C7  UNL     1      23.520  -0.095  53.379  1.00  0.00     0.137 A 
HETATM    2  N2  UNL     1      23.100  -1.099  54.160  1.00  0.00    -0.224 NA
HETATM    3  C8  UNL     1      21.833  -1.161  54.600  1.00  0.00     0.235 A 
HETATM    4  N3  UNL     1      20.916  -0.230  54.286  1.00  0.00    -0.241 NA
HETATM    5  C9  UNL     1      21.261   0.801  53.511  1.00  0.00     0.075 A 
HETATM    6  C10 UNL     1      20.373   1.790  53.147  1.00  0.00     0.072 A 
HETATM    7  C11 UNL     1      20.793   2.837  52.336  1.00  0.00     0.103 A 
HETATM    8  C13 UNL     1      22.109   2.932  51.860  1.00  0.00     0.103 A 
HETATM    9  C18 UNL     1      22.926   1.905  52.271  1.00  0.00     0.057 A 
HETATM   10  C19 UNL     1      22.565   0.849  53.069  1.00  0.00     0.041 A 
ENDROOT
BRANCH   1  11
HETATM   11  N1  UNL     1      24.876  -0.063  52.938  1.00  0.00    -0.370 N 
HETATM   12  H6  UNL     1      25.194   0.305  52.018  1.00  0.00     0.161 HD
BRANCH  11  13
HETATM   13  C6  UNL     1      25.901  -0.589  53.849  1.00  0.00     0.150 C 
BRANCH  13  14
HETATM   14  C5  UNL     1      26.943  -1.235  53.036  1.00  0.00     0.020 C 
HETATM   15  C4  UNL     1      28.182  -0.894  53.326  1.00  0.00     0.078 C 
HETATM   16 CL1  UNL     1      29.902  -1.017  53.052  1.00  0.00    -0.081 Cl
BRANCH  15  17
HETATM   17  C3  UNL     1      28.317   0.065  54.403  1.00  0.00     0.179 C 
HETATM   18  F1  UNL     1      28.263  -0.080  55.736  1.00  0.00    -0.195 F 
BRANCH  17  19
HETATM   19  C2  UNL     1      28.534   1.337  54.102  1.00  0.00    -0.112 C 
HETATM   20  C1  UNL     1      28.706   2.517  53.563  1.00  0.00     0.100 C 
ENDBRANCH  17  19
ENDBRANCH  15  17
ENDBRANCH  13  14
ENDBRANCH  11  13
ENDBRANCH   1  11
BRANCH   8  21
HETATM   21  O2  UNL     1      22.268   4.035  51.090  1.00  0.00    -0.347 OA
BRANCH  21  22
HETATM   22  C14 UNL     1      23.360   4.834  50.805  1.00  0.00     0.206 C 
BRANCH  22  23
HETATM   23  C15 UNL     1      24.329   4.267  49.808  1.00  0.00     0.297 C 
BRANCH  23  24
HETATM   24  N4  UNL     1      25.682   4.257  50.258  1.00  0.00     0.082 N 
HETATM   25  C16 UNL     1      26.182   3.022  50.762  1.00  0.00     0.309 C 
HETATM   26  C17 UNL     1      26.534   4.704  49.176  1.00  0.00     0.309 C 
ENDBRANCH  23  24
ENDBRANCH  22  23
ENDBRANCH  21  22
ENDBRANCH   8  21
BRANCH   7  27
HETATM   27  O1  UNL     1      19.802   3.762  52.046  1.00  0.00    -0.353 OA
HETATM   28  C12 UNL     1      18.626   3.424  51.366  1.00  0.00     0.210 C 
ENDBRANCH   7  27
TORSDOF 10
ENDMDL
MODEL 3
REMARK VINA RESULT:      -7.0      4.348      6.897
REMARK  10 active torsions:
REMARK  status: ('A' for Active; 'I' for Inactive)
REMARK    1  A    between atoms: C2_2  and  C3_3 
REMARK    2  A    between atoms: C3_3  and  C4_5 
REMARK    3  A    between atoms: C5_7  and  C6_8 
REMARK    4  A    between atoms: C6_8  and  N1_9 
REMARK    5  A    between atoms: N1_9  and  C7_10 
REMARK    6  A    between atoms: C11_16  and  O1_17 
REMARK    7  A    between atoms: C13_19  and  O2_20 
REMARK    8  A    between atoms: O2_20  and  C14_21 
REMARK    9  A    between atoms: C14_21  and  C15_22 
REMARK   10  A    between atoms: C15_22  and  N4_23 
ROOT
HETATM    1  C7  UNL     1      24.329   4.010  51.329  1.00  0.00     0.137 A 
HETATM    2  N2  UNL     1      23.316   4.875  51.191  1.00  0.00    -0.224 NA
HETATM    3  C8  UNL     1      22.076   4.574  51.606  1.00  0.00     0.235 A 
HETATM    4  N3  UNL     1      21.776   3.397  52.182  1.00  0.00    -0.241 NA
HETATM    5  C9  UNL     1      22.734   2.483  52.354  1.00  0.00     0.075 A 
HETATM    6  C10 UNL     1      22.499   1.257  52.938  1.00  0.00     0.072 A 
HETATM    7  C11 UNL     1      23.539   0.350  53.090  1.00  0.00     0.103 A 
HETATM    8  C13 UNL     1      24.846   0.633  52.667  1.00  0.00     0.103 A 
HETATM    9  C18 UNL     1      24.990   1.875  52.096  1.00  0.00     0.057 A 
HETATM   10  C19 UNL     1      24.000   2.809  51.921  1.00  0.00     0.041 A 
ENDROOT
BRANCH   1  11
HETATM   11  N1  UNL     1      25.631   4.366  50.869  1.00  0.00    -0.370 N 
HETATM   12  H6  UNL     1      26.504   4.287  51.431  1.00  0.00     0.161 HD
BRANCH  11  13
HETATM   13  C6  UNL     1      25.752   4.884  49.499  1.00  0.00     0.150 C 
BRANCH  13  14
HETATM   14  C5  UNL     1      27.062   4.473  48.972  1.00  0.00     0.020 C 
HETATM   15  C4  UNL     1      27.830   5.452  48.538  1.00  0.00     0.078 C 
HETATM   16 CL1  UNL     1      29.322   6.020  47.831  1.00  0.00    -0.081 Cl
BRANCH  15  17
HETATM   17  C3  UNL     1      27.257   6.777  48.651  1.00  0.00     0.179 C 
HETATM   18  F1  UNL     1      26.917   7.512  49.722  1.00  0.00    -0.195 F 
BRANCH  17  19
HETATM   19  C2  UNL     1      26.990   7.453  47.544  1.00  0.00    -0.112 C 
HETATM   20  C1  UNL     1      26.728   8.326  46.605  1.00  0.00     0.100 C 
ENDBRANCH  17  19
ENDBRANCH  15  17
ENDBRANCH  13  14
ENDBRANCH  11  13
ENDBRANCH   1  11
BRANCH   8  21
HETATM   21  O2  UNL     1      25.676  -0.406  52.927  1.00  0.00    -0.347 OA
BRANCH  21  22
HETATM   22  C14 UNL     1      27.036  -0.488  53.161  1.00  0.00     0.206 C 
BRANCH  22  23
HETATM   23  C15 UNL     1      27.512   0.165  54.426  1.00  0.00     0.297 C 
BRANCH  23  24
HETATM   24  N4  UNL     1      28.779   0.808  54.304  1.00  0.00     0.082 N 
HETATM   25  C16 UNL     1      29.811   0.072  53.652  1.00  0.00     0.309 C 
HETATM   26  C17 UNL     1      28.596   2.070  53.621  1.00  0.00     0.309 C 
ENDBRANCH  23  24
ENDBRANCH  22  23
ENDBRANCH  21  22
ENDBRANCH   8  21
BRANCH   7  27
HETATM   27  O1  UNL     1      23.167  -0.843  53.692  1.00  0.00    -0.353 OA
HETATM   28  C12 UNL     1      22.035  -0.959  54.507  1.00  0.00     0.210 C 
ENDBRANCH   7  27
TORSDOF 10
ENDMDL
MODEL 4
REMARK VINA RESULT:      -6.8      4.284      7.044
REMARK  10 active torsions:
REMARK  status: ('A' for Active; 'I' for Inactive)
REMARK    1  A    between atoms: C2_2  and  C3_3 
REMARK    2  A    between atoms: C3_3  and  C4_5 
REMARK    3  A    between atoms: C5_7  and  C6_8 
REMARK    4  A    between atoms: C6_8  and  N1_9 
REMARK    5  A    between atoms: N1_9  and  C7_10 
REMARK    6  A    between atoms: C11_16  and  O1_17 
REMARK    7  A    between atoms: C13_19  and  O2_20 
REMARK    8  A    between atoms: O2_20  and  C14_21 
REMARK    9  A    between atoms: C14_21  and  C15_22 
REMARK   10  A    between atoms: C15_22  and  N4_23 
ROOT
HETATM    1  C7  UNL     1      23.755  -0.242  53.447  1.00  0.00     0.137 A 
HETATM    2  N2  UNL     1      23.556  -1.008  54.529  1.00  0.00    -0.224 NA
HETATM    3  C8  UNL     1      24.515  -1.177  55.453  1.00  0.00     0.235 A 
HETATM    4  N3  UNL     1      25.722  -0.593  55.353  1.00  0.00    -0.241 NA
HETATM    5  C9  UNL     1      25.994   0.184  54.303  1.00  0.00     0.075 A 
HETATM    6  C10 UNL     1      27.207   0.815  54.136  1.00  0.00     0.072 A 
HETATM    7  C11 UNL     1      27.428   1.614  53.022  1.00  0.00     0.103 A 
HETATM    8  C13 UNL     1      26.449   1.812  52.038  1.00  0.00     0.103 A 
HETATM    9  C18 UNL     1      25.271   1.146  52.283  1.00  0.00     0.057 A 
HETATM   10  C19 UNL     1      24.999   0.346  53.364  1.00  0.00     0.041 A 
ENDROOT
BRANCH   1  11
HETATM   11  N1  UNL     1      22.713  -0.093  52.486  1.00  0.00    -0.370 N 
HETATM   12  H6  UNL     1      22.860   0.081  51.470  1.00  0.00     0.161 HD
BRANCH  11  13
HETATM   13  C6  UNL     1      21.327  -0.192  52.963  1.00  0.00     0.150 C 
BRANCH  13  14
HETATM   14  C5  UNL     1      20.844   1.169  53.243  1.00  0.00     0.020 C 
HETATM   15  C4  UNL     1      20.020   1.674  52.348  1.00  0.00     0.078 C 
HETATM   16 CL1  UNL     1      19.010   2.975  51.767  1.00  0.00    -0.081 Cl
BRANCH  15  17
HETATM   17  C3  UNL     1      19.721   0.803  51.230  1.00  0.00     0.179 C 
HETATM   18  F1  UNL     1      18.903  -0.256  51.120  1.00  0.00    -0.195 F 
BRANCH  17  19
HETATM   19  C2  UNL     1      20.321   1.024  50.070  1.00  0.00    -0.112 C 
HETATM   20  C1  UNL     1      21.107   1.109  49.027  1.00  0.00     0.100 C 
ENDBRANCH  17  19
ENDBRANCH  15  17
ENDBRANCH  13  14
ENDBRANCH  11  13
ENDBRANCH   1  11
BRANCH   8  21
HETATM   21  O2  UNL     1      26.903   2.630  51.058  1.00  0.00    -0.347 OA
BRANCH  21  22
HETATM   22  C14 UNL     1      26.376   3.024  49.843  1.00  0.00     0.206 C 
BRANCH  22  23
HETATM   23  C15 UNL     1      27.029   4.223  49.217  1.00  0.00     0.297 C 
BRANCH  23  24
HETATM   24  N4  UNL     1      26.139   5.314  48.990  1.00  0.00     0.082 N 
HETATM   25  C16 UNL     1      25.308   5.702  50.082  1.00  0.00     0.309 C 
HETATM   26  C17 UNL     1      26.909   6.459  48.554  1.00  0.00     0.309 C 
ENDBRANCH  23  24
ENDBRANCH  22  23
ENDBRANCH  21  22
ENDBRANCH   8  21
BRANCH   7  27
HETATM   27  O1  UNL     1      28.689   2.190  52.977  1.00  0.00    -0.353 OA
HETATM   28  C12 UNL     1      29.517   2.288  54.102  1.00  0.00     0.210 C 
ENDBRANCH   7  27
TORSDOF 10
ENDMDL
MODEL 5
REMARK VINA RESULT:      -6.7      3.053      4.766
REMARK  10 active torsions:
REMARK  status: ('A' for Active; 'I' for Inactive)
REMARK    1  A    between atoms: C2_2  and  C3_3 
REMARK    2  A    between atoms: C3_3  and  C4_5 
REMARK    3  A    between atoms: C5_7  and  C6_8 
REMARK    4  A    between atoms: C6_8  and  N1_9 
REMARK    5  A    between atoms: N1_9  and  C7_10 
REMARK    6  A    between atoms: C11_16  and  O1_17 
REMARK    7  A    between atoms: C13_19  and  O2_20 
REMARK    8  A    between atoms: O2_20  and  C14_21 
REMARK    9  A    between atoms: C14_21  and  C15_22 
REMARK   10  A    between atoms: C15_22  and  N4_23 
ROOT
HETATM    1  C7  UNL     1      27.027   1.934  52.378  1.00  0.00     0.137 A 
HETATM    2  N2  UNL     1      28.197   1.571  52.922  1.00  0.00    -0.224 NA
HETATM    3  C8  UNL     1      28.288   0.517  53.748  1.00  0.00     0.235 A 
HETATM    4  N3  UNL     1      27.222  -0.233  54.078  1.00  0.00    -0.241 NA
HETATM    5  C9  UNL     1      26.023   0.067  53.575  1.00  0.00     0.075 A 
HETATM    6  C10 UNL     1      24.889  -0.659  53.868  1.00  0.00     0.072 A 
HETATM    7  C11 UNL     1      23.669  -0.297  53.311  1.00  0.00     0.103 A 
HETATM    8  C13 UNL     1      23.539   0.798  52.445  1.00  0.00     0.103 A 
HETATM    9  C18 UNL     1      24.718   1.464  52.208  1.00  0.00     0.057 A 
HETATM   10  C19 UNL     1      25.947   1.151  52.730  1.00  0.00     0.041 A 
ENDROOT
BRANCH   1  11
HETATM   11  N1  UNL     1      26.971   3.063  51.510  1.00  0.00    -0.370 N 
HETATM   12  H6  UNL     1      27.217   4.037  51.783  1.00  0.00     0.161 HD
BRANCH  11  13
HETATM   13  C6  UNL     1      26.533   2.837  50.126  1.00  0.00     0.150 C 
BRANCH  13  14
HETATM   14  C5  UNL     1      26.781   4.070  49.364  1.00  0.00     0.020 C 
HETATM   15  C4  UNL     1      25.740   4.863  49.214  1.00  0.00     0.078 C 
HETATM   16 CL1  UNL     1      25.013   6.327  48.597  1.00  0.00    -0.081 Cl
BRANCH  15  17
HETATM   17  C3  UNL     1      24.516   4.389  49.826  1.00  0.00     0.179 C 
HETATM   18  F1  UNL     1      24.019   4.549  51.063  1.00  0.00    -0.195 F 
BRANCH  17  19
HETATM   19  C2  UNL     1      23.681   3.659  49.102  1.00  0.00    -0.112 C 
HETATM   20  C1  UNL     1      22.900   2.758  48.563  1.00  0.00     0.100 C 
ENDBRANCH  17  19
ENDBRANCH  15  17
ENDBRANCH  13  14
ENDBRANCH  11  13
ENDBRANCH   1  11
BRANCH   8  21
HETATM   21  O2  UNL     1      22.255   0.943  52.035  1.00  0.00    -0.347 OA
BRANCH  21  22
HETATM   22  C14 UNL     1      21.206   1.722  52.486  1.00  0.00     0.206 C 
BRANCH  22  23
HETATM   23  C15 UNL     1      21.306   3.184  52.162  1.00  0.00     0.297 C 
BRANCH  23  24
HETATM   24  N4  UNL     1      20.386   3.620  51.164  1.00  0.00     0.082 N 
HETATM   25  C16 UNL     1      19.000   3.528  51.485  1.00  0.00     0.309 C 
HETATM   26  C17 UNL     1      20.699   4.989  50.810  1.00  0.00     0.309 C 
ENDBRANCH  23  24
ENDBRANCH  22  23
ENDBRANCH  21  22
ENDBRANCH   8  21
BRANCH   7  27
HETATM   27  O1  UNL     1      22.611  -1.111  53.687  1.00  0.00    -0.353 OA
HETATM   28  C12 UNL     1      22.023  -1.049  54.956  1.00  0.00     0.210 C 
ENDBRANCH   7  27
TORSDOF 10
ENDMDL
MODEL 6
REMARK VINA RESULT:      -6.7      1.668      2.138
REMARK  10 active torsions:
REMARK  status: ('A' for Active; 'I' for Inactive)
REMARK    1  A    between atoms: C2_2  and  C3_3 
REMARK    2  A    between atoms: C3_3  and  C4_5 
REMARK    3  A    between atoms: C5_7  and  C6_8 
REMARK    4  A    between atoms: C6_8  and  N1_9 
REMARK    5  A    between atoms: N1_9  and  C7_10 
REMARK    6  A    between atoms: C11_16  and  O1_17 
REMARK    7  A    between atoms: C13_19  and  O2_20 
REMARK    8  A    between atoms: O2_20  and  C14_21 
REMARK    9  A    between atoms: C14_21  and  C15_22 
REMARK   10  A    between atoms: C15_22  and  N4_23 
ROOT
HETATM    1  C7  UNL     1      23.441  -0.385  53.321  1.00  0.00     0.137 A 
HETATM    2  N2  UNL     1      23.688  -0.940  54.516  1.00  0.00    -0.224 NA
HETATM    3  C8  UNL     1      22.692  -1.343  55.320  1.00  0.00     0.235 A 
HETATM    4  N3  UNL     1      21.397  -1.217  54.980  1.00  0.00    -0.241 NA
HETATM    5  C9  UNL     1      21.073  -0.674  53.806  1.00  0.00     0.075 A 
HETATM    6  C10 UNL     1      19.768  -0.516  53.392  1.00  0.00     0.072 A 
HETATM    7  C11 UNL     1      19.495   0.055  52.155  1.00  0.00     0.103 A 
HETATM    8  C13 UNL     1      20.512   0.487  51.291  1.00  0.00     0.103 A 
HETATM    9  C18 UNL     1      21.781   0.292  51.783  1.00  0.00     0.057 A 
HETATM   10  C19 UNL     1      22.107  -0.265  52.993  1.00  0.00     0.041 A 
ENDROOT
BRANCH   1  11
HETATM   11  N1  UNL     1      24.527   0.035  52.499  1.00  0.00    -0.370 N 
HETATM   12  H6  UNL     1      24.455   0.257  51.484  1.00  0.00     0.161 HD
BRANCH  11  13
HETATM   13  C6  UNL     1      25.848   0.165  53.129  1.00  0.00     0.150 C 
BRANCH  13  14
HETATM   14  C5  UNL     1      26.721  -0.879  52.573  1.00  0.00     0.020 C 
HETATM   15  C4  UNL     1      27.930  -0.944  53.094  1.00  0.00     0.078 C 
HETATM   16 CL1  UNL     1      29.517  -1.668  53.181  1.00  0.00    -0.081 Cl
BRANCH  15  17
HETATM   17  C3  UNL     1      28.202   0.027  54.134  1.00  0.00     0.179 C 
HETATM   18  F1  UNL     1      28.160  -0.065  55.472  1.00  0.00    -0.195 F 
BRANCH  17  19
HETATM   19  C2  UNL     1      28.564   1.252  53.783  1.00  0.00    -0.112 C 
HETATM   20  C1  UNL     1      28.905   2.512  53.687  1.00  0.00     0.100 C 
ENDBRANCH  17  19
ENDBRANCH  15  17
ENDBRANCH  13  14
ENDBRANCH  11  13
ENDBRANCH   1  11
BRANCH   8  21
HETATM   21  O2  UNL     1      19.993   1.003  50.151  1.00  0.00    -0.347 OA
BRANCH  21  22
HETATM   22  C14 UNL     1      20.003   2.272  49.603  1.00  0.00     0.206 C 
BRANCH  22  23
HETATM   23  C15 UNL     1      21.300   3.017  49.731  1.00  0.00     0.297 C 
BRANCH  23  24
HETATM   24  N4  UNL     1      22.375   2.437  48.995  1.00  0.00     0.082 N 
HETATM   25  C16 UNL     1      22.268   2.466  47.574  1.00  0.00     0.309 C 
HETATM   26  C17 UNL     1      23.609   3.085  49.388  1.00  0.00     0.309 C 
ENDBRANCH  23  24
ENDBRANCH  22  23
ENDBRANCH  21  22
ENDBRANCH   8  21
BRANCH   7  27
HETATM   27  O1  UNL     1      18.143   0.154  51.862  1.00  0.00    -0.353 OA
HETATM   28  C12 UNL     1      17.249  -0.908  52.044  1.00  0.00     0.210 C 
ENDBRANCH   7  27
TORSDOF 10
ENDMDL
MODEL 7
REMARK VINA RESULT:      -6.7      2.010      2.985
REMARK  10 active torsions:
REMARK  status: ('A' for Active; 'I' for Inactive)
REMARK    1  A    between atoms: C2_2  and  C3_3 
REMARK    2  A    between atoms: C3_3  and  C4_5 
REMARK    3  A    between atoms: C5_7  and  C6_8 
REMARK    4  A    between atoms: C6_8  and  N1_9 
REMARK    5  A    between atoms: N1_9  and  C7_10 
REMARK    6  A    between atoms: C11_16  and  O1_17 
REMARK    7  A    between atoms: C13_19  and  O2_20 
REMARK    8  A    between atoms: O2_20  and  C14_21 
REMARK    9  A    between atoms: C14_21  and  C15_22 
REMARK   10  A    between atoms: C15_22  and  N4_23 
ROOT
HETATM    1  C7  UNL     1      23.230  -0.280  53.517  1.00  0.00     0.137 A 
HETATM    2  N2  UNL     1      22.660  -0.820  54.603  1.00  0.00    -0.224 NA
HETATM    3  C8  UNL     1      21.388  -0.549  54.934  1.00  0.00     0.235 A 
HETATM    4  N3  UNL     1      20.613   0.272  54.203  1.00  0.00    -0.241 NA
HETATM    5  C9  UNL     1      21.112   0.847  53.107  1.00  0.00     0.075 A 
HETATM    6  C10 UNL     1      20.375   1.697  52.310  1.00  0.00     0.072 A 
HETATM    7  C11 UNL     1      20.951   2.263  51.180  1.00  0.00     0.103 A 
HETATM    8  C13 UNL     1      22.277   2.001  50.806  1.00  0.00     0.103 A 
HETATM    9  C18 UNL     1      22.937   1.145  51.656  1.00  0.00     0.057 A 
HETATM   10  C19 UNL     1      22.419   0.559  52.782  1.00  0.00     0.041 A 
ENDROOT
BRANCH   1  11
HETATM   11  N1  UNL     1      24.586  -0.589  53.204  1.00  0.00    -0.370 N 
HETATM   12  H6  UNL     1      24.896  -1.137  52.374  1.00  0.00     0.161 HD
BRANCH  11  13
HETATM   13  C6  UNL     1      25.626  -0.098  54.118  1.00  0.00     0.150 C 
BRANCH  13  14
HETATM   14  C5  UNL     1      26.107   1.195  53.608  1.00  0.00     0.020 C 
HETATM   15  C4  UNL     1      27.383   1.446  53.814  1.00  0.00     0.078 C 
HETATM   16 CL1  UNL     1      28.777   2.488  53.662  1.00  0.00    -0.081 Cl
BRANCH  15  17
HETATM   17  C3  UNL     1      28.108   0.404  54.512  1.00  0.00     0.179 C 
HETATM   18  F1  UNL     1      28.083   0.008  55.794  1.00  0.00    -0.195 F 
BRANCH  17  19
HETATM   19  C2  UNL     1      28.971  -0.337  53.833  1.00  0.00    -0.112 C 
HETATM   20  C1  UNL     1      30.000  -0.922  53.275  1.00  0.00     0.100 C 
ENDBRANCH  17  19
ENDBRANCH  15  17
ENDBRANCH  13  14
ENDBRANCH  11  13
ENDBRANCH   1  11
BRANCH   8  21
HETATM   21  O2  UNL     1      22.602   2.666  49.671  1.00  0.00    -0.347 OA
BRANCH  21  22
HETATM   22  C14 UNL     1      23.610   3.559  49.359  1.00  0.00     0.206 C 
BRANCH  22  23
HETATM   23  C15 UNL     1      23.257   5.009  49.520  1.00  0.00     0.297 C 
BRANCH  23  24
HETATM   24  N4  UNL     1      23.396   5.495  50.854  1.00  0.00     0.082 N 
HETATM   25  C16 UNL     1      24.284   6.593  51.047  1.00  0.00     0.309 C 
HETATM   26  C17 UNL     1      22.087   5.853  51.356  1.00  0.00     0.309 C 
ENDBRANCH  23  24
ENDBRANCH  22  23
ENDBRANCH  21  22
ENDBRANCH   8  21
BRANCH   7  27
HETATM   27  O1  UNL     1      20.102   3.097  50.468  1.00  0.00    -0.353 OA
HETATM   28  C12 UNL     1      19.012   3.749  51.057  1.00  0.00     0.210 C 
ENDBRANCH   7  27
TORSDOF 10
ENDMDL
MODEL 8
REMARK VINA RESULT:      -6.7      2.510      3.462
REMARK  10 active torsions:
REMARK  status: ('A' for Active; 'I' for Inactive)
REMARK    1  A    between atoms: C2_2  and  C3_3 
REMARK    2  A    between atoms: C3_3  and  C4_5 
REMARK    3  A    between atoms: C5_7  and  C6_8 
REMARK    4  A    between atoms: C6_8  and  N1_9 
REMARK    5  A    between atoms: N1_9  and  C7_10 
REMARK    6  A    between atoms: C11_16  and  O1_17 
REMARK    7  A    between atoms: C13_19  and  O2_20 
REMARK    8  A    between atoms: O2_20  and  C14_21 
REMARK    9  A    between atoms: C14_21  and  C15_22 
REMARK   10  A    between atoms: C15_22  and  N4_23 
ROOT
HETATM    1  C7  UNL     1      24.198   1.326  52.862  1.00  0.00     0.137 A 
HETATM    2  N2  UNL     1      24.192   0.055  53.286  1.00  0.00    -0.224 NA
HETATM    3  C8  UNL     1      23.043  -0.603  53.508  1.00  0.00     0.235 A 
HETATM    4  N3  UNL     1      21.840  -0.034  53.320  1.00  0.00    -0.241 NA
HETATM    5  C9  UNL     1      21.766   1.230  52.898  1.00  0.00     0.075 A 
HETATM    6  C10 UNL     1      20.568   1.875  52.683  1.00  0.00     0.072 A 
HETATM    7  C11 UNL     1      20.558   3.192  52.241  1.00  0.00     0.103 A 
HETATM    8  C13 UNL     1      21.739   3.909  51.999  1.00  0.00     0.103 A 
HETATM    9  C18 UNL     1      22.886   3.189  52.241  1.00  0.00     0.057 A 
HETATM   10  C19 UNL     1      22.954   1.890  52.676  1.00  0.00     0.041 A 
ENDROOT
BRANCH   1  11
HETATM   11  N1  UNL     1      25.440   1.991  52.643  1.00  0.00    -0.370 N 
HETATM   12  H6  UNL     1      25.747   2.395  51.733  1.00  0.00     0.161 HD
BRANCH  11  13
HETATM   13  C6  UNL     1      26.355   2.118  53.784  1.00  0.00     0.150 C 
BRANCH  13  14
HETATM   14  C5  UNL     1      27.729   2.171  53.262  1.00  0.00     0.020 C 
HETATM   15  C4  UNL     1      28.445   1.079  53.437  1.00  0.00     0.078 C 
HETATM   16 CL1  UNL     1      29.933   0.185  53.251  1.00  0.00    -0.081 Cl
BRANCH  15  17
HETATM   17  C3  UNL     1      27.759  -0.000  54.118  1.00  0.00     0.179 C 
HETATM   18  F1  UNL     1      27.449  -0.182  55.411  1.00  0.00    -0.195 F 
BRANCH  17  19
HETATM   19  C2  UNL     1      27.329  -1.032  53.407  1.00  0.00    -0.112 C 
HETATM   20  C1  UNL     1      27.104  -1.999  52.555  1.00  0.00     0.100 C 
ENDBRANCH  17  19
ENDBRANCH  15  17
ENDBRANCH  13  14
ENDBRANCH  11  13
ENDBRANCH   1  11
BRANCH   8  21
HETATM   21  O2  UNL     1      21.466   5.166  51.575  1.00  0.00    -0.347 OA
BRANCH  21  22
HETATM   22  C14 UNL     1      22.265   6.208  51.144  1.00  0.00     0.206 C 
BRANCH  22  23
HETATM   23  C15 UNL     1      23.044   5.943  49.887  1.00  0.00     0.297 C 
BRANCH  23  24
HETATM   24  N4  UNL     1      24.450   5.824  50.092  1.00  0.00     0.082 N 
HETATM   25  C16 UNL     1      25.238   5.496  48.951  1.00  0.00     0.309 C 
HETATM   26  C17 UNL     1      24.942   7.059  50.666  1.00  0.00     0.309 C 
ENDBRANCH  23  24
ENDBRANCH  22  23
ENDBRANCH  21  22
ENDBRANCH   8  21
BRANCH   7  27
HETATM   27  O1  UNL     1      19.288   3.721  52.064  1.00  0.00    -0.353 OA
HETATM   28  C12 UNL     1      18.221   2.973  51.553  1.00  0.00     0.210 C 
ENDBRANCH   7  27
TORSDOF 10
ENDMDL
MODEL 9
REMARK VINA RESULT:      -6.6      2.187      3.058
REMARK  10 active torsions:
REMARK  status: ('A' for Active; 'I' for Inactive)
REMARK    1  A    between atoms: C2_2  and  C3_3 
REMARK    2  A    between atoms: C3_3  and  C4_5 
REMARK    3  A    between atoms: C5_7  and  C6_8 
REMARK    4  A    between atoms: C6_8  and  N1_9 
REMARK    5  A    between atoms: N1_9  and  C7_10 
REMARK    6  A    between atoms: C11_16  and  O1_17 
REMARK    7  A    between atoms: C13_19  and  O2_20 
REMARK    8  A    between atoms: O2_20  and  C14_21 
REMARK    9  A    between atoms: C14_21  and  C15_22 
REMARK   10  A    between atoms: C15_22  and  N4_23 
ROOT
HETATM    1  C7  UNL     1      24.133  -0.184  53.406  1.00  0.00     0.137 A 
HETATM    2  N2  UNL     1      24.821  -0.678  54.444  1.00  0.00    -0.224 NA
HETATM    3  C8  UNL     1      24.204  -1.317  55.451  1.00  0.00     0.235 A 
HETATM    4  N3  UNL     1      22.873  -1.501  55.479  1.00  0.00    -0.241 NA
HETATM    5  C9  UNL     1      22.122  -1.037  54.479  1.00  0.00     0.075 A 
HETATM    6  C10 UNL     1      20.753  -1.190  54.441  1.00  0.00     0.072 A 
HETATM    7  C11 UNL     1      20.027  -0.686  53.370  1.00  0.00     0.103 A 
HETATM    8  C13 UNL     1      20.638  -0.013  52.303  1.00  0.00     0.103 A 
HETATM    9  C18 UNL     1      22.004   0.096  52.422  1.00  0.00     0.057 A 
HETATM   10  C19 UNL     1      22.770  -0.383  53.454  1.00  0.00     0.041 A 
ENDROOT
BRANCH   1  11
HETATM   11  N1  UNL     1      24.825   0.494  52.359  1.00  0.00    -0.370 N 
HETATM   12  H6  UNL     1      24.981   0.111  51.403  1.00  0.00     0.161 HD
BRANCH  11  13
HETATM   13  C6  UNL     1      25.357   1.832  52.649  1.00  0.00     0.150 C 
BRANCH  13  14
HETATM   14  C5  UNL     1      26.499   2.071  51.753  1.00  0.00     0.020 C 
HETATM   15  C4  UNL     1      26.298   2.962  50.804  1.00  0.00     0.078 C 
HETATM   16 CL1  UNL     1      26.858   3.873  49.423  1.00  0.00    -0.081 Cl
BRANCH  15  17
HETATM   17  C3  UNL     1      24.981   3.565  50.798  1.00  0.00     0.179 C 
HETATM   18  F1  UNL     1      24.439   4.529  51.559  1.00  0.00    -0.195 F 
BRANCH  17  19
HETATM   19  C2  UNL     1      24.090   3.143  49.912  1.00  0.00    -0.112 C 
HETATM   20  C1  UNL     1      23.382   2.808  48.864  1.00  0.00     0.100 C 
ENDBRANCH  17  19
ENDBRANCH  15  17
ENDBRANCH  13  14
ENDBRANCH  11  13
ENDBRANCH   1  11
BRANCH   8  21
HETATM   21  O2  UNL     1      19.721   0.378  51.386  1.00  0.00    -0.347 OA
BRANCH  21  22
HETATM   22  C14 UNL     1      19.209   1.613  51.035  1.00  0.00     0.206 C 
BRANCH  22  23
HETATM   23  C15 UNL     1      20.068   2.426  50.110  1.00  0.00     0.297 C 
BRANCH  23  24
HETATM   24  N4  UNL     1      20.017   3.830  50.357  1.00  0.00     0.082 N 
HETATM   25  C16 UNL     1      18.725   4.400  50.552  1.00  0.00     0.309 C 
HETATM   26  C17 UNL     1      20.843   4.129  51.508  1.00  0.00     0.309 C 
ENDBRANCH  23  24
ENDBRANCH  22  23
ENDBRANCH  21  22
ENDBRANCH   8  21
BRANCH   7  27
HETATM   27  O1  UNL     1      18.660  -0.909  53.456  1.00  0.00    -0.353 OA
HETATM   28  C12 UNL     1      18.112  -2.182  53.654  1.00  0.00     0.210 C 
ENDBRANCH   7  27
TORSDOF 10
ENDMDL
