MODEL 1
REMARK VINA RESULT:      -7.7      0.000      0.000
REMARK  10 active torsions:
REMARK  status: ('A' for Active; 'I' for Inactive)
REMARK    1  A    between atoms: C2_2  and  C3_3 
REMARK    2  A    between atoms: C6_6  and  N1_7 
REMARK    3  A    between atoms: N1_7  and  C7_8 
REMARK    4  A    between atoms: C11_12  and  N2_13 
REMARK       I    between atoms: N2_13  and  C12_14 
REMARK    5  A    between atoms: C12_14  and  C13_16 
REMARK    6  A    between atoms: C13_16  and  C14_17 
REMARK    7  A    between atoms: C14_17  and  C15_18 
REMARK    8  A    between atoms: C15_18  and  C16_19 
REMARK    9  A    between atoms: C16_19  and  C17_20 
REMARK   10  A    between atoms: N4_26  and  O2_27 
ROOT
HETATM    1  C7  UNL     1      26.534   5.149  48.967  1.00  0.00     0.035 A 
HETATM    2  C8  UNL     1      26.147   6.461  49.230  1.00  0.00     0.029 A 
HETATM    3  C9  UNL     1      27.034   7.493  49.017  1.00  0.00     0.004 A 
HETATM    4  C10 UNL     1      28.305   7.181  48.542  1.00  0.00     0.029 A 
HETATM    5  C11 UNL     1      28.675   5.864  48.286  1.00  0.00     0.036 A 
HETATM    6  C19 UNL     1      27.786   4.836  48.499  1.00  0.00     0.059 A 
ENDROOT
BRANCH   1   7
HETATM    7  N1  UNL     1      25.570   4.111  49.211  1.00  0.00    -0.344 N 
HETATM    8  H7  UNL     1      24.886   3.719  48.511  1.00  0.00     0.167 HD
BRANCH   7   9
HETATM    9  C6  UNL     1      25.555   3.573  50.552  1.00  0.00     0.109 C 
HETATM   10  C5  UNL     1      26.668   2.665  50.903  1.00  0.00     0.138 C 
HETATM   11  C4  UNL     1      26.399   1.782  52.058  1.00  0.00     0.046 C 
HETATM   12  C3  UNL     1      26.881   0.560  51.976  1.00  0.00     0.027 C 
HETATM   13  N4  UNL     1      25.691   2.077  53.257  1.00  0.00    -0.238 N 
HETATM   14  C21 UNL     1      24.586   2.950  53.451  1.00  0.00     0.142 C 
HETATM   15  C20 UNL     1      24.083   3.799  52.560  1.00  0.00     0.138 C 
HETATM   16  N3  UNL     1      24.571   3.978  51.248  1.00  0.00    -0.246 NA
BRANCH  12  17
HETATM   17  C2  UNL     1      26.739  -0.467  52.988  1.00  0.00    -0.008 C 
HETATM   18  C1  UNL     1      26.952  -1.736  52.717  1.00  0.00     0.011 C 
ENDBRANCH  12  17
BRANCH  13  19
HETATM   19  O2  UNL     1      26.140   1.430  54.373  1.00  0.00    -0.283 OA
HETATM   20  H28 UNL     1      27.093   1.725  54.540  1.00  0.00     0.245 HD
ENDBRANCH  13  19
ENDBRANCH   7   9
ENDBRANCH   1   7
BRANCH   5  21
HETATM   21  N2  UNL     1      30.010   5.816  47.810  1.00  0.00    -0.327 N 
HETATM   22  C12 UNL     1      31.143   5.620  48.637  1.00  0.00     0.222 C 
HETATM   23  O1  UNL     1      31.318   5.451  49.863  1.00  0.00    -0.273 OA
HETATM   24  H11 UNL     1      30.173   5.934  46.783  1.00  0.00     0.169 HD
BRANCH  22  25
HETATM   25  C13 UNL     1      32.542   5.578  48.124  1.00  0.00     0.103 C 
BRANCH  25  26
HETATM   26  C14 UNL     1      32.742   4.523  47.089  1.00  0.00     0.009 C 
BRANCH  26  27
HETATM   27  C15 UNL     1      33.764   3.510  47.537  1.00  0.00     0.000 C 
BRANCH  27  28
HETATM   28  C16 UNL     1      33.165   2.150  47.811  1.00  0.00    -0.000 C 
BRANCH  28  29
HETATM   29  C17 UNL     1      32.235   1.749  46.662  1.00  0.00    -0.005 C 
HETATM   30  C18 UNL     1      32.006   0.239  46.721  1.00  0.00     0.005 C 
ENDBRANCH  28  29
ENDBRANCH  27  28
ENDBRANCH  26  27
ENDBRANCH  25  26
ENDBRANCH  22  25
ENDBRANCH   5  21
TORSDOF 10
ENDMDL
MODEL 2
REMARK VINA RESULT:      -7.5      4.528      8.608
REMARK  10 active torsions:
REMARK  status: ('A' for Active; 'I' for Inactive)
REMARK    1  A    between atoms: C2_2  and  C3_3 
REMARK    2  A    between atoms: C6_6  and  N1_7 
REMARK    3  A    between atoms: N1_7  and  C7_8 
REMARK    4  A    between atoms: C11_12  and  N2_13 
REMARK       I    between atoms: N2_13  and  C12_14 
REMARK    5  A    between atoms: C12_14  and  C13_16 
REMARK    6  A    between atoms: C13_16  and  C14_17 
REMARK    7  A    between atoms: C14_17  and  C15_18 
REMARK    8  A    between atoms: C15_18  and  C16_19 
REMARK    9  A    between atoms: C16_19  and  C17_20 
REMARK   10  A    between atoms: N4_26  and  O2_27 
ROOT
HETATM    1  C7  UNL     1      23.864  -0.908  54.470  1.00  0.00     0.035 A 
HETATM    2  C8  UNL     1      22.824  -1.122  55.372  1.00  0.00     0.029 A 
HETATM    3  C9  UNL     1      21.519  -0.946  54.968  1.00  0.00     0.004 A 
HETATM    4  C10 UNL     1      21.284  -0.552  53.653  1.00  0.00     0.029 A 
HETATM    5  C11 UNL     1      22.335  -0.342  52.766  1.00  0.00     0.036 A 
HETATM    6  C19 UNL     1      23.637  -0.520  53.172  1.00  0.00     0.059 A 
ENDROOT
BRANCH   1   7
HETATM    7  N1  UNL     1      25.206  -1.103  54.946  1.00  0.00    -0.344 N 
HETATM    8  H7  UNL     1      25.529  -1.858  55.607  1.00  0.00     0.167 HD
BRANCH   7   9
HETATM    9  C6  UNL     1      26.185  -0.157  54.460  1.00  0.00     0.109 C 
HETATM   10  C5  UNL     1      25.651   1.048  53.790  1.00  0.00     0.138 C 
HETATM   11  C4  UNL     1      26.618   1.741  52.912  1.00  0.00     0.046 C 
HETATM   12  C3  UNL     1      26.128   2.249  51.800  1.00  0.00     0.027 C 
HETATM   13  N4  UNL     1      28.013   1.941  53.108  1.00  0.00    -0.238 N 
HETATM   14  C21 UNL     1      28.954   1.100  53.763  1.00  0.00     0.142 C 
HETATM   15  C20 UNL     1      28.680   0.009  54.471  1.00  0.00     0.138 C 
HETATM   16  N3  UNL     1      27.384  -0.506  54.696  1.00  0.00    -0.246 NA
BRANCH  12  17
HETATM   17  C2  UNL     1      26.890   2.966  50.799  1.00  0.00    -0.008 C 
HETATM   18  C1  UNL     1      26.354   3.332  49.656  1.00  0.00     0.011 C 
ENDBRANCH  12  17
BRANCH  13  19
HETATM   19  O2  UNL     1      28.513   3.104  52.595  1.00  0.00    -0.283 OA
HETATM   20  H28 UNL     1      27.749   3.604  52.158  1.00  0.00     0.245 HD
ENDBRANCH  13  19
ENDBRANCH   7   9
ENDBRANCH   1   7
BRANCH   5  21
HETATM   21  N2  UNL     1      21.833   0.046  51.498  1.00  0.00    -0.327 N 
HETATM   22  C12 UNL     1      21.280   1.319  51.217  1.00  0.00     0.222 C 
HETATM   23  O1  UNL     1      21.082   2.358  51.884  1.00  0.00    -0.273 OA
HETATM   24  H11 UNL     1      21.870  -0.649  50.717  1.00  0.00     0.169 HD
BRANCH  22  25
HETATM   25  C13 UNL     1      20.750   1.713  49.880  1.00  0.00     0.103 C 
BRANCH  25  26
HETATM   26  C14 UNL     1      21.440   1.011  48.761  1.00  0.00     0.009 C 
BRANCH  26  27
HETATM   27  C15 UNL     1      22.212   1.984  47.905  1.00  0.00     0.000 C 
BRANCH  27  28
HETATM   28  C16 UNL     1      23.084   2.917  48.715  1.00  0.00    -0.000 C 
BRANCH  28  29
HETATM   29  C17 UNL     1      22.913   4.354  48.216  1.00  0.00    -0.005 C 
HETATM   30  C18 UNL     1      22.931   5.297  49.420  1.00  0.00     0.005 C 
ENDBRANCH  28  29
ENDBRANCH  27  28
ENDBRANCH  26  27
ENDBRANCH  25  26
ENDBRANCH  22  25
ENDBRANCH   5  21
TORSDOF 10
ENDMDL
MODEL 3
REMARK VINA RESULT:      -7.5      3.018      5.369
REMARK  10 active torsions:
REMARK  status: ('A' for Active; 'I' for Inactive)
REMARK    1  A    between atoms: C2_2  and  C3_3 
REMARK    2  A    between atoms: C6_6  and  N1_7 
REMARK    3  A    between atoms: N1_7  and  C7_8 
REMARK    4  A    between atoms: C11_12  and  N2_13 
REMARK       I    between atoms: N2_13  and  C12_14 
REMARK    5  A    between atoms: C12_14  and  C13_16 
REMARK    6  A    between atoms: C13_16  and  C14_17 
REMARK    7  A    between atoms: C14_17  and  C15_18 
REMARK    8  A    between atoms: C15_18  and  C16_19 
REMARK    9  A    between atoms: C16_19  and  C17_20 
REMARK   10  A    between atoms: N4_26  and  O2_27 
ROOT
HETATM    1  C7  UNL     1      21.765   2.025  50.916  1.00  0.00     0.035 A 
HETATM    2  C8  UNL     1      21.363   1.189  49.877  1.00  0.00     0.029 A 
HETATM    3  C9  UNL     1      21.840   1.401  48.603  1.00  0.00     0.004 A 
HETATM    4  C10 UNL     1      22.721   2.460  48.397  1.00  0.00     0.029 A 
HETATM    5  C11 UNL     1      23.111   3.286  49.447  1.00  0.00     0.036 A 
HETATM    6  C19 UNL     1      22.633   3.071  50.718  1.00  0.00     0.059 A 
ENDROOT
BRANCH   1   7
HETATM    7  N1  UNL     1      21.232   1.761  52.225  1.00  0.00    -0.344 N 
HETATM    8  H7  UNL     1      20.315   2.115  52.607  1.00  0.00     0.167 HD
BRANCH   7   9
HETATM    9  C6  UNL     1      22.052   0.932  53.079  1.00  0.00     0.109 C 
HETATM   10  C5  UNL     1      23.508   1.180  53.023  1.00  0.00     0.138 C 
HETATM   11  C4  UNL     1      24.340   0.060  53.513  1.00  0.00     0.046 C 
HETATM   12  C3  UNL     1      25.463  -0.155  52.860  1.00  0.00     0.027 C 
HETATM   13  N4  UNL     1      24.095  -0.818  54.605  1.00  0.00    -0.238 N 
HETATM   14  C21 UNL     1      22.854  -1.300  55.104  1.00  0.00     0.142 C 
HETATM   15  C20 UNL     1      21.643  -0.893  54.737  1.00  0.00     0.138 C 
HETATM   16  N3  UNL     1      21.382   0.104  53.772  1.00  0.00    -0.246 NA
BRANCH  12  17
HETATM   17  C2  UNL     1      26.425  -1.193  53.166  1.00  0.00    -0.008 C 
HETATM   18  C1  UNL     1      27.712  -1.024  52.955  1.00  0.00     0.011 C 
ENDBRANCH  12  17
BRANCH  13  19
HETATM   19  O2  UNL     1      25.210  -1.257  55.262  1.00  0.00    -0.283 OA
HETATM   20  H28 UNL     1      26.019  -0.908  54.765  1.00  0.00     0.245 HD
ENDBRANCH  13  19
ENDBRANCH   7   9
ENDBRANCH   1   7
BRANCH   5  21
HETATM   21  N2  UNL     1      24.008   4.279  48.978  1.00  0.00    -0.327 N 
HETATM   22  C12 UNL     1      25.354   4.401  49.404  1.00  0.00     0.222 C 
HETATM   23  O1  UNL     1      26.083   3.776  50.204  1.00  0.00    -0.273 OA
HETATM   24  H11 UNL     1      23.658   4.968  48.273  1.00  0.00     0.169 HD
BRANCH  22  25
HETATM   25  C13 UNL     1      26.285   5.454  48.906  1.00  0.00     0.103 C 
BRANCH  25  26
HETATM   26  C14 UNL     1      27.658   4.931  48.654  1.00  0.00     0.009 C 
BRANCH  26  27
HETATM   27  C15 UNL     1      28.573   6.025  48.164  1.00  0.00     0.000 C 
BRANCH  27  28
HETATM   28  C16 UNL     1      30.000   5.562  47.982  1.00  0.00    -0.000 C 
BRANCH  28  29
HETATM   29  C17 UNL     1      30.965   6.613  48.540  1.00  0.00    -0.005 C 
HETATM   30  C18 UNL     1      31.784   5.980  49.664  1.00  0.00     0.005 C 
ENDBRANCH  28  29
ENDBRANCH  27  28
ENDBRANCH  26  27
ENDBRANCH  25  26
ENDBRANCH  22  25
ENDBRANCH   5  21
TORSDOF 10
ENDMDL
MODEL 4
REMARK VINA RESULT:      -7.3      4.028      7.091
REMARK  10 active torsions:
REMARK  status: ('A' for Active; 'I' for Inactive)
REMARK    1  A    between atoms: C2_2  and  C3_3 
REMARK    2  A    between atoms: C6_6  and  N1_7 
REMARK    3  A    between atoms: N1_7  and  C7_8 
REMARK    4  A    between atoms: C11_12  and  N2_13 
REMARK       I    between atoms: N2_13  and  C12_14 
REMARK    5  A    between atoms: C12_14  and  C13_16 
REMARK    6  A    between atoms: C13_16  and  C14_17 
REMARK    7  A    between atoms: C14_17  and  C15_18 
REMARK    8  A    between atoms: C15_18  and  C16_19 
REMARK    9  A    between atoms: C16_19  and  C17_20 
REMARK   10  A    between atoms: N4_26  and  O2_27 
ROOT
HETATM    1  C7  UNL     1      24.699   5.165  50.597  1.00  0.00     0.035 A 
HETATM    2  C8  UNL     1      25.481   5.582  49.523  1.00  0.00     0.029 A 
HETATM    3  C9  UNL     1      26.471   4.758  49.035  1.00  0.00     0.004 A 
HETATM    4  C10 UNL     1      26.656   3.519  49.643  1.00  0.00     0.029 A 
HETATM    5  C11 UNL     1      25.865   3.119  50.717  1.00  0.00     0.036 A 
HETATM    6  C19 UNL     1      24.878   3.944  51.201  1.00  0.00     0.059 A 
ENDROOT
BRANCH   1   7
HETATM    7  N1  UNL     1      23.684   6.067  51.069  1.00  0.00    -0.344 N 
HETATM    8  H7  UNL     1      23.832   7.063  51.382  1.00  0.00     0.167 HD
BRANCH   7   9
HETATM    9  C6  UNL     1      22.342   5.531  51.113  1.00  0.00     0.109 C 
HETATM   10  C5  UNL     1      22.042   4.616  52.234  1.00  0.00     0.138 C 
HETATM   11  C4  UNL     1      20.874   3.737  52.012  1.00  0.00     0.046 C 
HETATM   12  C3  UNL     1      20.975   2.511  52.481  1.00  0.00     0.027 C 
HETATM   13  N4  UNL     1      19.644   4.040  51.364  1.00  0.00    -0.238 N 
HETATM   14  C21 UNL     1      19.400   4.921  50.276  1.00  0.00     0.142 C 
HETATM   15  C20 UNL     1      20.268   5.772  49.738  1.00  0.00     0.138 C 
HETATM   16  N3  UNL     1      21.602   5.946  50.166  1.00  0.00    -0.246 NA
BRANCH  12  17
HETATM   17  C2  UNL     1      19.956   1.487  52.378  1.00  0.00    -0.008 C 
HETATM   18  C1  UNL     1      20.137   0.405  51.653  1.00  0.00     0.011 C 
ENDBRANCH  12  17
BRANCH  13  19
HETATM   19  O2  UNL     1      18.548   3.391  51.860  1.00  0.00    -0.283 OA
HETATM   20  H28 UNL     1      17.783   4.052  51.890  1.00  0.00     0.245 HD
ENDBRANCH  13  19
ENDBRANCH   7   9
ENDBRANCH   1   7
BRANCH   5  21
HETATM   21  N2  UNL     1      26.250   1.825  51.150  1.00  0.00    -0.327 N 
HETATM   22  C12 UNL     1      26.962   1.565  52.346  1.00  0.00     0.222 C 
HETATM   23  O1  UNL     1      27.416   2.274  53.271  1.00  0.00    -0.273 OA
HETATM   24  H11 UNL     1      25.994   1.006  50.550  1.00  0.00     0.169 HD
BRANCH  22  25
HETATM   25  C13 UNL     1      27.365   0.199  52.787  1.00  0.00     0.103 C 
BRANCH  25  26
HETATM   26  C14 UNL     1      26.253  -0.788  52.685  1.00  0.00     0.009 C 
BRANCH  26  27
HETATM   27  C15 UNL     1      25.279  -0.626  53.825  1.00  0.00     0.000 C 
BRANCH  27  28
HETATM   28  C16 UNL     1      23.943  -0.072  53.383  1.00  0.00    -0.000 C 
BRANCH  28  29
HETATM   29  C17 UNL     1      22.839  -1.099  53.648  1.00  0.00    -0.005 C 
HETATM   30  C18 UNL     1      21.965  -0.595  54.796  1.00  0.00     0.005 C 
ENDBRANCH  28  29
ENDBRANCH  27  28
ENDBRANCH  26  27
ENDBRANCH  25  26
ENDBRANCH  22  25
ENDBRANCH   5  21
TORSDOF 10
ENDMDL
MODEL 5
REMARK VINA RESULT:      -7.3      2.608      3.993
REMARK  10 active torsions:
REMARK  status: ('A' for Active; 'I' for Inactive)
REMARK    1  A    between atoms: C2_2  and  C3_3 
REMARK    2  A    between atoms: C6_6  and  N1_7 
REMARK    3  A    between atoms: N1_7  and  C7_8 
REMARK    4  A    between atoms: C11_12  and  N2_13 
REMARK       I    between atoms: N2_13  and  C12_14 
REMARK    5  A    between atoms: C12_14  and  C13_16 
REMARK    6  A    between atoms: C13_16  and  C14_17 
REMARK    7  A    between atoms: C14_17  and  C15_18 
REMARK    8  A    between atoms: C15_18  and  C16_19 
REMARK    9  A    between atoms: C16_19  and  C17_20 
REMARK   10  A    between atoms: N4_26  and  O2_27 
ROOT
HETATM    1  C7  UNL     1      23.877   3.754  50.547  1.00  0.00     0.035 A 
HETATM    2  C8  UNL     1      23.191   4.590  51.425  1.00  0.00     0.029 A 
HETATM    3  C9  UNL     1      23.581   5.903  51.566  1.00  0.00     0.004 A 
HETATM    4  C10 UNL     1      24.664   6.354  50.816  1.00  0.00     0.029 A 
HETATM    5  C11 UNL     1      25.338   5.504  49.944  1.00  0.00     0.036 A 
HETATM    6  C19 UNL     1      24.946   4.193  49.805  1.00  0.00     0.059 A 
ENDROOT
BRANCH   1   7
HETATM    7  N1  UNL     1      23.431   2.391  50.443  1.00  0.00    -0.344 N 
HETATM    8  H7  UNL     1      22.868   1.979  49.652  1.00  0.00     0.167 HD
BRANCH   7   9
HETATM    9  C6  UNL     1      23.800   1.526  51.540  1.00  0.00     0.109 C 
HETATM   10  C5  UNL     1      25.229   1.529  51.920  1.00  0.00     0.138 C 
HETATM   11  C4  UNL     1      25.663   0.341  52.686  1.00  0.00     0.046 C 
HETATM   12  C3  UNL     1      26.869  -0.113  52.414  1.00  0.00     0.027 C 
HETATM   13  N4  UNL     1      24.954  -0.379  53.687  1.00  0.00    -0.238 N 
HETATM   14  C21 UNL     1      23.555  -0.605  53.804  1.00  0.00     0.142 C 
HETATM   15  C20 UNL     1      22.599  -0.045  53.069  1.00  0.00     0.138 C 
HETATM   16  N3  UNL     1      22.818   0.885  52.030  1.00  0.00    -0.246 NA
BRANCH  12  17
HETATM   17  C2  UNL     1      27.494  -1.259  53.042  1.00  0.00    -0.008 C 
HETATM   18  C1  UNL     1      28.798  -1.339  53.187  1.00  0.00     0.011 C 
ENDBRANCH  12  17
BRANCH  13  19
HETATM   19  O2  UNL     1      25.728  -0.928  54.669  1.00  0.00    -0.283 OA
HETATM   20  H28 UNL     1      26.075  -1.816  54.330  1.00  0.00     0.245 HD
ENDBRANCH  13  19
ENDBRANCH   7   9
ENDBRANCH   1   7
BRANCH   5  21
HETATM   21  N2  UNL     1      26.392   6.201  49.301  1.00  0.00    -0.327 N 
HETATM   22  C12 UNL     1      27.514   5.575  48.705  1.00  0.00     0.222 C 
HETATM   23  O1  UNL     1      27.890   4.390  48.567  1.00  0.00    -0.273 OA
HETATM   24  H11 UNL     1      26.343   7.246  49.263  1.00  0.00     0.169 HD
BRANCH  22  25
HETATM   25  C13 UNL     1      28.619   6.321  48.037  1.00  0.00     0.103 C 
BRANCH  25  26
HETATM   26  C14 UNL     1      29.893   5.548  48.001  1.00  0.00     0.009 C 
BRANCH  26  27
HETATM   27  C15 UNL     1      31.085   6.470  47.950  1.00  0.00     0.000 C 
BRANCH  27  28
HETATM   28  C16 UNL     1      31.610   6.830  49.321  1.00  0.00    -0.000 C 
BRANCH  28  29
HETATM   29  C17 UNL     1      32.004   8.309  49.357  1.00  0.00    -0.005 C 
HETATM   30  C18 UNL     1      30.731   9.156  49.372  1.00  0.00     0.005 C 
ENDBRANCH  28  29
ENDBRANCH  27  28
ENDBRANCH  26  27
ENDBRANCH  25  26
ENDBRANCH  22  25
ENDBRANCH   5  21
TORSDOF 10
ENDMDL
MODEL 6
REMARK VINA RESULT:      -7.3      1.927      3.366
REMARK  10 active torsions:
REMARK  status: ('A' for Active; 'I' for Inactive)
REMARK    1  A    between atoms: C2_2  and  C3_3 
REMARK    2  A    between atoms: C6_6  and  N1_7 
REMARK    3  A    between atoms: N1_7  and  C7_8 
REMARK    4  A    between atoms: C11_12  and  N2_13 
REMARK       I    between atoms: N2_13  and  C12_14 
REMARK    5  A    between atoms: C12_14  and  C13_16 
REMARK    6  A    between atoms: C13_16  and  C14_17 
REMARK    7  A    between atoms: C14_17  and  C15_18 
REMARK    8  A    between atoms: C15_18  and  C16_19 
REMARK    9  A    between atoms: C16_19  and  C17_20 
REMARK   10  A    between atoms: N4_26  and  O2_27 
ROOT
HETATM    1  C7  UNL     1      24.198   3.541  50.734  1.00  0.00     0.035 A 
HETATM    2  C8  UNL     1      23.389   4.354  51.524  1.00  0.00     0.029 A 
HETATM    3  C9  UNL     1      23.611   5.712  51.562  1.00  0.00     0.004 A 
HETATM    4  C10 UNL     1      24.652   6.231  50.796  1.00  0.00     0.029 A 
HETATM    5  C11 UNL     1      25.451   5.404  50.012  1.00  0.00     0.036 A 
HETATM    6  C19 UNL     1      25.226   4.048  49.977  1.00  0.00     0.059 A 
ENDROOT
BRANCH   1   7
HETATM    7  N1  UNL     1      23.924   2.130  50.736  1.00  0.00    -0.344 N 
HETATM    8  H7  UNL     1      23.427   1.591  49.979  1.00  0.00     0.167 HD
BRANCH   7   9
HETATM    9  C6  UNL     1      24.383   1.405  51.899  1.00  0.00     0.109 C 
HETATM   10  C5  UNL     1      25.763   1.695  52.345  1.00  0.00     0.138 C 
HETATM   11  C4  UNL     1      26.363   0.649  53.200  1.00  0.00     0.046 C 
HETATM   12  C3  UNL     1      27.646   0.416  53.014  1.00  0.00     0.027 C 
HETATM   13  N4  UNL     1      25.743  -0.140  54.209  1.00  0.00    -0.238 N 
HETATM   14  C21 UNL     1      24.405  -0.617  54.274  1.00  0.00     0.142 C 
HETATM   15  C20 UNL     1      23.406  -0.283  53.462  1.00  0.00     0.138 C 
HETATM   16  N3  UNL     1      23.510   0.618  52.381  1.00  0.00    -0.246 NA
BRANCH  12  17
HETATM   17  C2  UNL     1      28.435  -0.559  53.738  1.00  0.00    -0.008 C 
HETATM   18  C1  UNL     1      29.675  -0.832  53.399  1.00  0.00     0.011 C 
ENDBRANCH  12  17
BRANCH  13  19
HETATM   19  O2  UNL     1      26.548  -0.483  55.258  1.00  0.00    -0.283 OA
HETATM   20  H28 UNL     1      25.993  -1.021  55.911  1.00  0.00     0.245 HD
ENDBRANCH  13  19
ENDBRANCH   7   9
ENDBRANCH   1   7
BRANCH   5  21
HETATM   21  N2  UNL     1      26.430   6.172  49.333  1.00  0.00    -0.327 N 
HETATM   22  C12 UNL     1      27.570   5.625  48.695  1.00  0.00     0.222 C 
HETATM   23  O1  UNL     1      28.022   4.469  48.542  1.00  0.00    -0.273 OA
HETATM   24  H11 UNL     1      26.307   7.211  49.298  1.00  0.00     0.169 HD
BRANCH  22  25
HETATM   25  C13 UNL     1      28.595   6.446  47.989  1.00  0.00     0.103 C 
BRANCH  25  26
HETATM   26  C14 UNL     1      29.883   5.717  47.802  1.00  0.00     0.009 C 
BRANCH  26  27
HETATM   27  C15 UNL     1      30.983   6.345  48.620  1.00  0.00     0.000 C 
BRANCH  27  28
HETATM   28  C16 UNL     1      32.361   5.880  48.207  1.00  0.00    -0.000 C 
BRANCH  28  29
HETATM   29  C17 UNL     1      32.245   4.783  47.145  1.00  0.00    -0.005 C 
HETATM   30  C18 UNL     1      32.776   3.475  47.730  1.00  0.00     0.005 C 
ENDBRANCH  28  29
ENDBRANCH  27  28
ENDBRANCH  26  27
ENDBRANCH  25  26
ENDBRANCH  22  25
ENDBRANCH   5  21
TORSDOF 10
ENDMDL
MODEL 7
REMARK VINA RESULT:      -7.1      2.174      7.506
REMARK  10 active torsions:
REMARK  status: ('A' for Active; 'I' for Inactive)
REMARK    1  A    between atoms: C2_2  and  C3_3 
REMARK    2  A    between atoms: C6_6  and  N1_7 
REMARK    3  A    between atoms: N1_7  and  C7_8 
REMARK    4  A    between atoms: C11_12  and  N2_13 
REMARK       I    between atoms: N2_13  and  C12_14 
REMARK    5  A    between atoms: C12_14  and  C13_16 
REMARK    6  A    between atoms: C13_16  and  C14_17 
REMARK    7  A    between atoms: C14_17  and  C15_18 
REMARK    8  A    between atoms: C15_18  and  C16_19 
REMARK    9  A    between atoms: C16_19  and  C17_20 
REMARK   10  A    between atoms: N4_26  and  O2_27 
ROOT
HETATM    1  C7  UNL     1      24.333   5.706  50.287  1.00  0.00     0.035 A 
HETATM    2  C8  UNL     1      23.583   6.044  51.410  1.00  0.00     0.029 A 
HETATM    3  C9  UNL     1      23.395   5.119  52.413  1.00  0.00     0.004 A 
HETATM    4  C10 UNL     1      23.971   3.860  52.264  1.00  0.00     0.029 A 
HETATM    5  C11 UNL     1      24.718   3.539  51.134  1.00  0.00     0.036 A 
HETATM    6  C19 UNL     1      24.903   4.466  50.135  1.00  0.00     0.059 A 
ENDROOT
BRANCH   1   7
HETATM    7  N1  UNL     1      24.493   6.708  49.269  1.00  0.00    -0.344 N 
HETATM    8  H7  UNL     1      23.741   7.063  48.621  1.00  0.00     0.167 HD
BRANCH   7   9
HETATM    9  C6  UNL     1      25.821   7.264  49.141  1.00  0.00     0.109 C 
HETATM   10  C5  UNL     1      26.716   6.596  48.172  1.00  0.00     0.138 C 
HETATM   11  C4  UNL     1      28.156   6.855  48.386  1.00  0.00     0.046 C 
HETATM   12  C3  UNL     1      28.965   5.840  48.163  1.00  0.00     0.027 C 
HETATM   13  N4  UNL     1      28.791   8.060  48.797  1.00  0.00    -0.238 N 
HETATM   14  C21 UNL     1      28.306   9.075  49.667  1.00  0.00     0.142 C 
HETATM   15  C20 UNL     1      27.074   9.174  50.156  1.00  0.00     0.138 C 
HETATM   16  N3  UNL     1      26.022   8.271  49.889  1.00  0.00    -0.246 NA
BRANCH  12  17
HETATM   17  C2  UNL     1      30.406   5.870  48.309  1.00  0.00    -0.008 C 
HETATM   18  C1  UNL     1      31.182   5.031  47.659  1.00  0.00     0.011 C 
ENDBRANCH  12  17
BRANCH  13  19
HETATM   19  O2  UNL     1      30.040   8.266  48.282  1.00  0.00    -0.283 OA
HETATM   20  H28 UNL     1      30.399   9.126  48.676  1.00  0.00     0.245 HD
ENDBRANCH  13  19
ENDBRANCH   7   9
ENDBRANCH   1   7
BRANCH   5  21
HETATM   21  N2  UNL     1      25.194   2.207  51.226  1.00  0.00    -0.327 N 
HETATM   22  C12 UNL     1      26.504   1.856  51.635  1.00  0.00     0.222 C 
HETATM   23  O1  UNL     1      27.515   2.499  51.992  1.00  0.00    -0.273 OA
HETATM   24  H11 UNL     1      24.539   1.430  50.978  1.00  0.00     0.169 HD
BRANCH  22  25
HETATM   25  C13 UNL     1      26.994   0.450  51.722  1.00  0.00     0.103 C 
BRANCH  25  26
HETATM   26  C14 UNL     1      26.805  -0.138  53.079  1.00  0.00     0.009 C 
BRANCH  26  27
HETATM   27  C15 UNL     1      25.501  -0.890  53.167  1.00  0.00     0.000 C 
BRANCH  27  28
HETATM   28  C16 UNL     1      24.449  -0.154  53.965  1.00  0.00    -0.000 C 
BRANCH  28  29
HETATM   29  C17 UNL     1      23.165  -0.024  53.141  1.00  0.00    -0.005 C 
HETATM   30  C18 UNL     1      22.243  -1.195  53.481  1.00  0.00     0.005 C 
ENDBRANCH  28  29
ENDBRANCH  27  28
ENDBRANCH  26  27
ENDBRANCH  25  26
ENDBRANCH  22  25
ENDBRANCH   5  21
TORSDOF 10
ENDMDL
MODEL 8
REMARK VINA RESULT:      -7.0      4.431      7.685
REMARK  10 active torsions:
REMARK  status: ('A' for Active; 'I' for Inactive)
REMARK    1  A    between atoms: C2_2  and  C3_3 
REMARK    2  A    between atoms: C6_6  and  N1_7 
REMARK    3  A    between atoms: N1_7  and  C7_8 
REMARK    4  A    between atoms: C11_12  and  N2_13 
REMARK       I    between atoms: N2_13  and  C12_14 
REMARK    5  A    between atoms: C12_14  and  C13_16 
REMARK    6  A    between atoms: C13_16  and  C14_17 
REMARK    7  A    between atoms: C14_17  and  C15_18 
REMARK    8  A    between atoms: C15_18  and  C16_19 
REMARK    9  A    between atoms: C16_19  and  C17_20 
REMARK   10  A    between atoms: N4_26  and  O2_27 
ROOT
HETATM    1  C7  UNL     1      24.659   0.441  53.154  1.00  0.00     0.035 A 
HETATM    2  C8  UNL     1      25.575  -0.589  52.951  1.00  0.00     0.029 A 
HETATM    3  C9  UNL     1      26.702  -0.364  52.194  1.00  0.00     0.004 A 
HETATM    4  C10 UNL     1      26.889   0.904  51.650  1.00  0.00     0.029 A 
HETATM    5  C11 UNL     1      25.963   1.922  51.863  1.00  0.00     0.036 A 
HETATM    6  C19 UNL     1      24.838   1.694  52.620  1.00  0.00     0.059 A 
ENDROOT
BRANCH   1   7
HETATM    7  N1  UNL     1      23.497   0.150  53.949  1.00  0.00    -0.344 N 
HETATM    8  H7  UNL     1      23.490  -0.104  54.972  1.00  0.00     0.167 HD
BRANCH   7   9
HETATM    9  C6  UNL     1      22.232   0.213  53.254  1.00  0.00     0.109 C 
HETATM   10  C5  UNL     1      21.026  -0.046  54.070  1.00  0.00     0.138 C 
HETATM   11  C4  UNL     1      19.831  -0.436  53.292  1.00  0.00     0.046 C 
HETATM   12  C3  UNL     1      19.056  -1.348  53.842  1.00  0.00     0.027 C 
HETATM   13  N4  UNL     1      19.397   0.047  52.027  1.00  0.00    -0.238 N 
HETATM   14  C21 UNL     1      20.176   0.493  50.924  1.00  0.00     0.142 C 
HETATM   15  C20 UNL     1      21.490   0.696  50.916  1.00  0.00     0.138 C 
HETATM   16  N3  UNL     1      22.346   0.499  52.021  1.00  0.00    -0.246 NA
BRANCH  12  17
HETATM   17  C2  UNL     1      17.839  -1.876  53.260  1.00  0.00    -0.008 C 
HETATM   18  C1  UNL     1      17.429  -3.098  53.512  1.00  0.00     0.011 C 
ENDBRANCH  12  17
BRANCH  13  19
HETATM   19  O2  UNL     1      18.043   0.086  51.851  1.00  0.00    -0.283 OA
HETATM   20  H28 UNL     1      17.718   0.999  52.143  1.00  0.00     0.245 HD
ENDBRANCH  13  19
ENDBRANCH   7   9
ENDBRANCH   1   7
BRANCH   5  21
HETATM   21  N2  UNL     1      26.383   3.108  51.209  1.00  0.00    -0.327 N 
HETATM   22  C12 UNL     1      25.798   3.613  50.023  1.00  0.00     0.222 C 
HETATM   23  O1  UNL     1      24.867   3.243  49.275  1.00  0.00    -0.273 OA
HETATM   24  H11 UNL     1      27.177   3.648  51.627  1.00  0.00     0.169 HD
BRANCH  22  25
HETATM   25  C13 UNL     1      26.254   4.859  49.342  1.00  0.00     0.103 C 
BRANCH  25  26
HETATM   26  C14 UNL     1      25.180   5.890  49.255  1.00  0.00     0.009 C 
BRANCH  26  27
HETATM   27  C15 UNL     1      24.945   6.542  50.594  1.00  0.00     0.000 C 
BRANCH  27  28
HETATM   28  C16 UNL     1      23.520   6.399  51.077  1.00  0.00    -0.000 C 
BRANCH  28  29
HETATM   29  C17 UNL     1      23.428   5.264  52.102  1.00  0.00    -0.005 C 
HETATM   30  C18 UNL     1      22.296   4.323  51.692  1.00  0.00     0.005 C 
ENDBRANCH  28  29
ENDBRANCH  27  28
ENDBRANCH  26  27
ENDBRANCH  25  26
ENDBRANCH  22  25
ENDBRANCH   5  21
TORSDOF 10
ENDMDL
MODEL 9
REMARK VINA RESULT:      -7.0      3.700      6.678
REMARK  10 active torsions:
REMARK  status: ('A' for Active; 'I' for Inactive)
REMARK    1  A    between atoms: C2_2  and  C3_3 
REMARK    2  A    between atoms: C6_6  and  N1_7 
REMARK    3  A    between atoms: N1_7  and  C7_8 
REMARK    4  A    between atoms: C11_12  and  N2_13 
REMARK       I    between atoms: N2_13  and  C12_14 
REMARK    5  A    between atoms: C12_14  and  C13_16 
REMARK    6  A    between atoms: C13_16  and  C14_17 
REMARK    7  A    between atoms: C14_17  and  C15_18 
REMARK    8  A    between atoms: C15_18  and  C16_19 
REMARK    9  A    between atoms: C16_19  and  C17_20 
REMARK   10  A    between atoms: N4_26  and  O2_27 
ROOT
HETATM    1  C7  UNL     1      24.040   0.595  52.923  1.00  0.00     0.035 A 
HETATM    2  C8  UNL     1      24.788  -0.542  53.221  1.00  0.00     0.029 A 
HETATM    3  C9  UNL     1      26.102  -0.622  52.819  1.00  0.00     0.004 A 
HETATM    4  C10 UNL     1      26.644   0.452  52.118  1.00  0.00     0.029 A 
HETATM    5  C11 UNL     1      25.882   1.580  51.828  1.00  0.00     0.036 A 
HETATM    6  C19 UNL     1      24.569   1.657  52.232  1.00  0.00     0.059 A 
ENDROOT
BRANCH   1   7
HETATM    7  N1  UNL     1      22.672   0.624  53.363  1.00  0.00    -0.344 N 
HETATM    8  H7  UNL     1      22.316   0.336  54.313  1.00  0.00     0.167 HD
BRANCH   7   9
HETATM    9  C6  UNL     1      21.712   1.094  52.390  1.00  0.00     0.109 C 
HETATM   10  C5  UNL     1      21.814   0.506  51.037  1.00  0.00     0.138 C 
HETATM   11  C4  UNL     1      21.172   1.305  49.971  1.00  0.00     0.046 C 
HETATM   12  C3  UNL     1      21.796   1.328  48.812  1.00  0.00     0.027 C 
HETATM   13  N4  UNL     1      19.961   2.050  50.025  1.00  0.00    -0.238 N 
HETATM   14  C21 UNL     1      19.387   2.745  51.125  1.00  0.00     0.142 C 
HETATM   15  C20 UNL     1      19.800   2.705  52.388  1.00  0.00     0.138 C 
HETATM   16  N3  UNL     1      20.899   1.952  52.856  1.00  0.00    -0.246 NA
BRANCH  12  17
HETATM   17  C2  UNL     1      21.348   2.042  47.634  1.00  0.00    -0.008 C 
HETATM   18  C1  UNL     1      22.094   2.960  47.059  1.00  0.00     0.011 C 
ENDBRANCH  12  17
BRANCH  13  19
HETATM   19  O2  UNL     1      19.256   2.102  48.856  1.00  0.00    -0.283 OA
HETATM   20  H28 UNL     1      19.844   1.729  48.123  1.00  0.00     0.245 HD
ENDBRANCH  13  19
ENDBRANCH   7   9
ENDBRANCH   1   7
BRANCH   5  21
HETATM   21  N2  UNL     1      26.661   2.525  51.114  1.00  0.00    -0.327 N 
HETATM   22  C12 UNL     1      26.204   3.238  49.979  1.00  0.00     0.222 C 
HETATM   23  O1  UNL     1      25.135   3.270  49.332  1.00  0.00    -0.273 OA
HETATM   24  H11 UNL     1      27.638   2.710  51.442  1.00  0.00     0.169 HD
BRANCH  22  25
HETATM   25  C13 UNL     1      27.037   4.226  49.233  1.00  0.00     0.103 C 
BRANCH  25  26
HETATM   26  C14 UNL     1      26.356   5.542  49.071  1.00  0.00     0.009 C 
BRANCH  26  27
HETATM   27  C15 UNL     1      27.185   6.480  48.231  1.00  0.00     0.000 C 
BRANCH  27  28
HETATM   28  C16 UNL     1      28.627   6.043  48.108  1.00  0.00    -0.000 C 
BRANCH  28  29
HETATM   29  C17 UNL     1      29.421   7.081  47.310  1.00  0.00    -0.005 C 
HETATM   30  C18 UNL     1      28.437   8.007  46.595  1.00  0.00     0.005 C 
ENDBRANCH  28  29
ENDBRANCH  27  28
ENDBRANCH  26  27
ENDBRANCH  25  26
ENDBRANCH  22  25
ENDBRANCH   5  21
TORSDOF 10
ENDMDL
