MODEL 1
REMARK VINA RESULT:      -7.2      0.000      0.000
REMARK  4 active torsions:
REMARK  status: ('A' for Active; 'I' for Inactive)
REMARK    1  A    between atoms: C3_3  and  C4_4 
REMARK    2  A    between atoms: C4_4  and  C5_5 
REMARK    3  A    between atoms: C5_5  and  C6_6 
REMARK    4  A    between atoms: C6_6  and  O2_8 
ROOT
HETATM    1  C1  UNL     1      27.081   2.476  51.955  1.00  0.00     0.015 C 
HETATM    2  C2  UNL     1      25.775   2.087  51.351  1.00  0.00     0.021 C 
HETATM    3  C3  UNL     1      25.327   0.792  52.070  1.00  0.00    -0.092 C 
HETATM    4  C7  UNL     1      24.116   0.645  52.733  1.00  0.00     0.014 A 
HETATM    5  C8  UNL     1      22.761   0.309  53.539  1.00  0.00     0.025 A 
HETATM    6  C9  UNL     1      21.997   0.054  52.214  1.00  0.00    -0.009 A 
HETATM    7  C10 UNL     1      22.872   1.166  52.370  1.00  0.00     0.006 A 
HETATM    8  C11 UNL     1      23.797   2.086  53.107  1.00  0.00     0.004 C 
HETATM    9  C12 UNL     1      24.679   3.082  53.152  1.00  0.00     0.011 C 
HETATM   10  C13 UNL     1      24.733   3.263  51.691  1.00  0.00     0.069 C 
HETATM   11  S1  UNL     1      23.714   3.833  50.460  1.00  0.00    -0.064 SA
HETATM   12  C14 UNL     1      22.438   2.731  49.719  1.00  0.00     0.280 C 
HETATM   13  O3  UNL     1      21.715   2.681  48.738  1.00  0.00    -0.260 OA
HETATM   14  N1  UNL     1      21.946   1.495  50.241  1.00  0.00    -0.351 N 
HETATM   15  C15 UNL     1      21.428   0.197  50.787  1.00  0.00     0.134 C 
HETATM   16  H17 UNL     1      22.856   1.544  50.624  1.00  0.00     0.163 HD
ENDROOT
BRANCH   3  17
HETATM   17  C4  UNL     1      26.407  -0.217  51.990  1.00  0.00     0.041 C 
BRANCH  17  18
HETATM   18  C5  UNL     1      26.881  -0.870  53.214  1.00  0.00     0.114 C 
BRANCH  18  19
HETATM   19  C6  UNL     1      27.275  -0.132  54.399  1.00  0.00     0.139 C 
HETATM   20  O1  UNL     1      28.038   0.641  55.083  1.00  0.00    -0.650 OA
BRANCH  19  21
HETATM   21  O2  UNL     1      26.346  -0.324  55.409  1.00  0.00    -0.776 OA
HETATM   22  H9  UNL     1      25.419  -0.017  55.522  1.00  0.00     0.167 HD
ENDBRANCH  19  21
ENDBRANCH  18  19
ENDBRANCH  17  18
ENDBRANCH   3  17
TORSDOF 4
ENDMDL
MODEL 2
REMARK VINA RESULT:      -7.1      2.479      4.040
REMARK  4 active torsions:
REMARK  status: ('A' for Active; 'I' for Inactive)
REMARK    1  A    between atoms: C3_3  and  C4_4 
REMARK    2  A    between atoms: C4_4  and  C5_5 
REMARK    3  A    between atoms: C5_5  and  C6_6 
REMARK    4  A    between atoms: C6_6  and  O2_8 
ROOT
HETATM    1  C1  UNL     1      22.549   1.016  53.023  1.00  0.00     0.015 C 
HETATM    2  C2  UNL     1      22.804   2.423  52.603  1.00  0.00     0.021 C 
HETATM    3  C3  UNL     1      24.307   2.508  52.246  1.00  0.00    -0.092 C 
HETATM    4  C7  UNL     1      24.796   2.933  51.017  1.00  0.00     0.014 A 
HETATM    5  C8  UNL     1      25.524   3.398  49.657  1.00  0.00     0.025 A 
HETATM    6  C9  UNL     1      25.343   4.893  50.032  1.00  0.00    -0.009 A 
HETATM    7  C10 UNL     1      24.292   3.946  50.198  1.00  0.00     0.006 A 
HETATM    8  C11 UNL     1      23.628   2.607  50.096  1.00  0.00     0.004 C 
HETATM    9  C12 UNL     1      22.643   1.755  50.375  1.00  0.00     0.011 C 
HETATM   10  C13 UNL     1      21.934   2.680  51.276  1.00  0.00     0.069 C 
HETATM   11  S1  UNL     1      21.046   4.120  51.149  1.00  0.00    -0.064 SA
HETATM   12  C14 UNL     1      21.909   5.745  51.063  1.00  0.00     0.280 C 
HETATM   13  O3  UNL     1      21.660   6.934  51.186  1.00  0.00    -0.260 OA
HETATM   14  N1  UNL     1      23.289   5.984  50.780  1.00  0.00    -0.351 N 
HETATM   15  C15 UNL     1      24.738   6.238  50.483  1.00  0.00     0.134 C 
HETATM   16  H17 UNL     1      23.303   5.075  51.168  1.00  0.00     0.163 HD
ENDROOT
BRANCH   3  17
HETATM   17  C4  UNL     1      25.115   2.012  53.383  1.00  0.00     0.041 C 
BRANCH  17  18
HETATM   18  C5  UNL     1      26.454   1.468  53.137  1.00  0.00     0.114 C 
BRANCH  18  19
HETATM   19  C6  UNL     1      27.669   2.215  53.401  1.00  0.00     0.139 C 
HETATM   20  O1  UNL     1      28.632   2.642  54.136  1.00  0.00    -0.650 OA
BRANCH  19  21
HETATM   21  O2  UNL     1      28.088   2.865  52.251  1.00  0.00    -0.776 OA
HETATM   22  H9  UNL     1      27.751   2.858  51.327  1.00  0.00     0.167 HD
ENDBRANCH  19  21
ENDBRANCH  18  19
ENDBRANCH  17  18
ENDBRANCH   3  17
TORSDOF 4
ENDMDL
MODEL 3
REMARK VINA RESULT:      -7.0      1.762      2.469
REMARK  4 active torsions:
REMARK  status: ('A' for Active; 'I' for Inactive)
REMARK    1  A    between atoms: C3_3  and  C4_4 
REMARK    2  A    between atoms: C4_4  and  C5_5 
REMARK    3  A    between atoms: C5_5  and  C6_6 
REMARK    4  A    between atoms: C6_6  and  O2_8 
ROOT
HETATM    1  C1  UNL     1      26.646   4.143  49.418  1.00  0.00     0.015 C 
HETATM    2  C2  UNL     1      25.524   3.178  49.597  1.00  0.00     0.021 C 
HETATM    3  C3  UNL     1      25.572   2.719  51.074  1.00  0.00    -0.092 C 
HETATM    4  C7  UNL     1      24.512   2.834  51.964  1.00  0.00     0.014 A 
HETATM    5  C8  UNL     1      23.387   2.893  53.117  1.00  0.00     0.025 A 
HETATM    6  C9  UNL     1      22.698   1.621  52.555  1.00  0.00    -0.009 A 
HETATM    7  C10 UNL     1      23.151   2.667  51.700  1.00  0.00     0.006 A 
HETATM    8  C11 UNL     1      23.740   4.003  51.368  1.00  0.00     0.004 C 
HETATM    9  C12 UNL     1      24.234   4.893  50.509  1.00  0.00     0.011 C 
HETATM   10  C13 UNL     1      24.161   3.993  49.346  1.00  0.00     0.069 C 
HETATM   11  S1  UNL     1      22.957   3.291  48.377  1.00  0.00    -0.064 SA
HETATM   12  C14 UNL     1      22.099   1.755  48.921  1.00  0.00     0.280 C 
HETATM   13  O3  UNL     1      21.394   0.874  48.456  1.00  0.00    -0.260 OA
HETATM   14  N1  UNL     1      22.078   1.187  50.231  1.00  0.00    -0.351 N 
HETATM   15  C15 UNL     1      22.054   0.588  51.607  1.00  0.00     0.134 C 
HETATM   16  H17 UNL     1      22.933   1.682  50.225  1.00  0.00     0.163 HD
ENDROOT
BRANCH   3  17
HETATM   17  C4  UNL     1      26.926   2.209  51.390  1.00  0.00     0.041 C 
BRANCH  17  18
HETATM   18  C5  UNL     1      27.207   1.678  52.727  1.00  0.00     0.114 C 
BRANCH  18  19
HETATM   19  C6  UNL     1      28.257   2.203  53.579  1.00  0.00     0.139 C 
HETATM   20  O1  UNL     1      28.913   2.314  54.677  1.00  0.00    -0.650 OA
BRANCH  19  21
HETATM   21  O2  UNL     1      29.036   3.106  52.872  1.00  0.00    -0.776 OA
HETATM   22  H9  UNL     1      29.697   3.775  53.159  1.00  0.00     0.167 HD
ENDBRANCH  19  21
ENDBRANCH  18  19
ENDBRANCH  17  18
ENDBRANCH   3  17
TORSDOF 4
ENDMDL
MODEL 4
REMARK VINA RESULT:      -7.0      2.546      4.407
REMARK  4 active torsions:
REMARK  status: ('A' for Active; 'I' for Inactive)
REMARK    1  A    between atoms: C3_3  and  C4_4 
REMARK    2  A    between atoms: C4_4  and  C5_5 
REMARK    3  A    between atoms: C5_5  and  C6_6 
REMARK    4  A    between atoms: C6_6  and  O2_8 
ROOT
HETATM    1  C1  UNL     1      19.155   0.064  52.101  1.00  0.00     0.015 C 
HETATM    2  C2  UNL     1      19.977   1.299  52.241  1.00  0.00     0.021 C 
HETATM    3  C3  UNL     1      21.271   0.883  52.981  1.00  0.00    -0.092 C 
HETATM    4  C7  UNL     1      22.553   1.087  52.488  1.00  0.00     0.014 A 
HETATM    5  C8  UNL     1      24.100   1.248  52.064  1.00  0.00     0.025 A 
HETATM    6  C9  UNL     1      24.103   2.733  52.517  1.00  0.00    -0.009 A 
HETATM    7  C10 UNL     1      23.028   2.182  51.762  1.00  0.00     0.006 A 
HETATM    8  C11 UNL     1      22.300   1.127  50.987  1.00  0.00     0.004 C 
HETATM    9  C12 UNL     1      21.217   0.649  50.377  1.00  0.00     0.011 C 
HETATM   10  C13 UNL     1      20.355   1.782  50.754  1.00  0.00     0.069 C 
HETATM   11  S1  UNL     1      20.204   3.426  50.367  1.00  0.00    -0.064 SA
HETATM   12  C14 UNL     1      21.270   4.682  51.192  1.00  0.00     0.280 C 
HETATM   13  O3  UNL     1      21.321   5.890  51.355  1.00  0.00    -0.260 OA
HETATM   14  N1  UNL     1      22.468   4.453  51.935  1.00  0.00    -0.351 N 
HETATM   15  C15 UNL     1      23.727   4.215  52.717  1.00  0.00     0.134 C 
HETATM   16  H17 UNL     1      21.980   3.601  52.047  1.00  0.00     0.163 HD
ENDROOT
BRANCH   3  17
HETATM   17  C4  UNL     1      20.919   0.189  54.240  1.00  0.00     0.041 C 
BRANCH  17  18
HETATM   18  C5  UNL     1      21.555  -1.092  54.563  1.00  0.00     0.114 C 
BRANCH  18  19
HETATM   19  C6  UNL     1      22.951  -1.206  54.941  1.00  0.00     0.139 C 
HETATM   20  O1  UNL     1      24.208  -0.972  54.821  1.00  0.00    -0.650 OA
BRANCH  19  21
HETATM   21  O2  UNL     1      23.076  -2.010  56.063  1.00  0.00    -0.776 OA
HETATM   22  H9  UNL     1      23.659  -2.775  56.266  1.00  0.00     0.167 HD
ENDBRANCH  19  21
ENDBRANCH  18  19
ENDBRANCH  17  18
ENDBRANCH   3  17
TORSDOF 4
ENDMDL
MODEL 5
REMARK VINA RESULT:      -6.9      3.052      4.730
REMARK  4 active torsions:
REMARK  status: ('A' for Active; 'I' for Inactive)
REMARK    1  A    between atoms: C3_3  and  C4_4 
REMARK    2  A    between atoms: C4_4  and  C5_5 
REMARK    3  A    between atoms: C5_5  and  C6_6 
REMARK    4  A    between atoms: C6_6  and  O2_8 
ROOT
HETATM    1  C1  UNL     1      22.977   4.016  49.939  1.00  0.00     0.015 C 
HETATM    2  C2  UNL     1      23.255   2.732  50.643  1.00  0.00     0.021 C 
HETATM    3  C3  UNL     1      24.781   2.691  50.894  1.00  0.00    -0.092 C 
HETATM    4  C7  UNL     1      25.364   2.539  52.145  1.00  0.00     0.014 A 
HETATM    5  C8  UNL     1      26.196   2.370  53.515  1.00  0.00     0.025 A 
HETATM    6  C9  UNL     1      25.975   0.834  53.499  1.00  0.00    -0.009 A 
HETATM    7  C10 UNL     1      24.921   1.746  53.206  1.00  0.00     0.006 A 
HETATM    8  C11 UNL     1      24.276   3.090  53.057  1.00  0.00     0.004 C 
HETATM    9  C12 UNL     1      23.278   3.882  52.671  1.00  0.00     0.011 C 
HETATM   10  C13 UNL     1      22.492   2.798  52.057  1.00  0.00     0.069 C 
HETATM   11  S1  UNL     1      21.607   1.444  52.570  1.00  0.00    -0.064 SA
HETATM   12  C14 UNL     1      22.464  -0.141  52.951  1.00  0.00     0.280 C 
HETATM   13  O3  UNL     1      22.197  -1.321  53.117  1.00  0.00    -0.260 OA
HETATM   14  N1  UNL     1      23.860  -0.345  53.174  1.00  0.00    -0.351 N 
HETATM   15  C15 UNL     1      25.326  -0.562  53.408  1.00  0.00     0.134 C 
HETATM   16  H17 UNL     1      23.849   0.454  52.593  1.00  0.00     0.163 HD
ENDROOT
BRANCH   3  17
HETATM   17  C4  UNL     1      25.499   2.902  49.616  1.00  0.00     0.041 C 
BRANCH  17  18
HETATM   18  C5  UNL     1      26.821   3.536  49.624  1.00  0.00     0.114 C 
BRANCH  18  19
HETATM   19  C6  UNL     1      27.083   4.820  49.004  1.00  0.00     0.139 C 
HETATM   20  O1  UNL     1      26.758   5.897  48.383  1.00  0.00    -0.650 OA
BRANCH  19  21
HETATM   21  O2  UNL     1      28.431   5.127  49.095  1.00  0.00    -0.776 OA
HETATM   22  H9  UNL     1      29.169   4.721  49.602  1.00  0.00     0.167 HD
ENDBRANCH  19  21
ENDBRANCH  18  19
ENDBRANCH  17  18
ENDBRANCH   3  17
TORSDOF 4
ENDMDL
MODEL 6
REMARK VINA RESULT:      -6.9      2.654      3.996
REMARK  4 active torsions:
REMARK  status: ('A' for Active; 'I' for Inactive)
REMARK    1  A    between atoms: C3_3  and  C4_4 
REMARK    2  A    between atoms: C4_4  and  C5_5 
REMARK    3  A    between atoms: C5_5  and  C6_6 
REMARK    4  A    between atoms: C6_6  and  O2_8 
ROOT
HETATM    1  C1  UNL     1      25.107  -0.359  53.574  1.00  0.00     0.015 C 
HETATM    2  C2  UNL     1      25.037   0.630  52.462  1.00  0.00     0.021 C 
HETATM    3  C3  UNL     1      23.591   1.180  52.455  1.00  0.00    -0.092 C 
HETATM    4  C7  UNL     1      23.266   2.527  52.560  1.00  0.00     0.014 A 
HETATM    5  C8  UNL     1      22.720   4.039  52.670  1.00  0.00     0.025 A 
HETATM    6  C9  UNL     1      23.016   4.290  51.168  1.00  0.00    -0.009 A 
HETATM    7  C10 UNL     1      23.945   3.617  52.012  1.00  0.00     0.006 A 
HETATM    8  C11 UNL     1      24.476   3.075  53.303  1.00  0.00     0.004 C 
HETATM    9  C12 UNL     1      25.339   2.347  54.010  1.00  0.00     0.011 C 
HETATM   10  C13 UNL     1      26.050   1.823  52.831  1.00  0.00     0.069 C 
HETATM   11  S1  UNL     1      27.088   2.415  51.627  1.00  0.00    -0.064 SA
HETATM   12  C14 UNL     1      26.406   3.270  50.145  1.00  0.00     0.280 C 
HETATM   13  O3  UNL     1      26.762   3.616  49.030  1.00  0.00    -0.260 OA
HETATM   14  N1  UNL     1      25.091   3.801  49.974  1.00  0.00    -0.351 N 
HETATM   15  C15 UNL     1      23.709   4.358  49.792  1.00  0.00     0.134 C 
HETATM   16  H17 UNL     1      24.948   3.079  50.635  1.00  0.00     0.163 HD
ENDROOT
BRANCH   3  17
HETATM   17  C4  UNL     1      22.633   0.053  52.385  1.00  0.00     0.041 C 
BRANCH  17  18
HETATM   18  C5  UNL     1      21.615  -0.098  53.428  1.00  0.00     0.114 C 
BRANCH  18  19
HETATM   19  C6  UNL     1      21.758  -1.016  54.542  1.00  0.00     0.139 C 
HETATM   20  O1  UNL     1      22.392  -1.584  55.503  1.00  0.00    -0.650 OA
BRANCH  19  21
HETATM   21  O2  UNL     1      20.576  -1.713  54.739  1.00  0.00    -0.776 OA
HETATM   22  H9  UNL     1      20.381  -2.672  54.831  1.00  0.00     0.167 HD
ENDBRANCH  19  21
ENDBRANCH  18  19
ENDBRANCH  17  18
ENDBRANCH   3  17
TORSDOF 4
ENDMDL
MODEL 7
REMARK VINA RESULT:      -6.8      3.437      5.880
REMARK  4 active torsions:
REMARK  status: ('A' for Active; 'I' for Inactive)
REMARK    1  A    between atoms: C3_3  and  C4_4 
REMARK    2  A    between atoms: C4_4  and  C5_5 
REMARK    3  A    between atoms: C5_5  and  C6_6 
REMARK    4  A    between atoms: C6_6  and  O2_8 
ROOT
HETATM    1  C1  UNL     1      24.116   2.408  50.969  1.00  0.00     0.015 C 
HETATM    2  C2  UNL     1      25.190   1.459  51.380  1.00  0.00     0.021 C 
HETATM    3  C3  UNL     1      26.516   2.257  51.344  1.00  0.00    -0.092 C 
HETATM    4  C7  UNL     1      27.375   2.393  52.427  1.00  0.00     0.014 A 
HETATM    5  C8  UNL     1      28.475   2.649  53.577  1.00  0.00     0.025 A 
HETATM    6  C9  UNL     1      29.100   1.249  53.336  1.00  0.00    -0.009 A 
HETATM    7  C10 UNL     1      27.690   1.439  53.397  1.00  0.00     0.006 A 
HETATM    8  C11 UNL     1      26.421   2.209  53.598  1.00  0.00     0.004 C 
HETATM    9  C12 UNL     1      25.096   2.335  53.538  1.00  0.00     0.011 C 
HETATM   10  C13 UNL     1      24.878   1.027  52.896  1.00  0.00     0.069 C 
HETATM   11  S1  UNL     1      24.995  -0.612  53.319  1.00  0.00    -0.064 SA
HETATM   12  C14 UNL     1      26.621  -1.477  53.262  1.00  0.00     0.280 C 
HETATM   13  O3  UNL     1      27.065  -2.613  53.267  1.00  0.00    -0.260 OA
HETATM   14  N1  UNL     1      27.919  -0.886  53.194  1.00  0.00    -0.351 N 
HETATM   15  C15 UNL     1      29.285  -0.268  53.122  1.00  0.00     0.134 C 
HETATM   16  H17 UNL     1      27.348  -0.199  52.771  1.00  0.00     0.163 HD
ENDROOT
BRANCH   3  17
HETATM   17  C4  UNL     1      26.678   2.888  50.015  1.00  0.00     0.041 C 
BRANCH  17  18
HETATM   18  C5  UNL     1      26.251   4.276  49.815  1.00  0.00     0.114 C 
BRANCH  18  19
HETATM   19  C6  UNL     1      26.994   5.220  49.002  1.00  0.00     0.139 C 
HETATM   20  O1  UNL     1      27.117   6.222  48.209  1.00  0.00    -0.650 OA
BRANCH  19  21
HETATM   21  O2  UNL     1      28.350   4.945  49.074  1.00  0.00    -0.776 OA
HETATM   22  H9  UNL     1      29.136   5.522  49.203  1.00  0.00     0.167 HD
ENDBRANCH  19  21
ENDBRANCH  18  19
ENDBRANCH  17  18
ENDBRANCH   3  17
TORSDOF 4
ENDMDL
MODEL 8
REMARK VINA RESULT:      -6.6      2.826      6.128
REMARK  4 active torsions:
REMARK  status: ('A' for Active; 'I' for Inactive)
REMARK    1  A    between atoms: C3_3  and  C4_4 
REMARK    2  A    between atoms: C4_4  and  C5_5 
REMARK    3  A    between atoms: C5_5  and  C6_6 
REMARK    4  A    between atoms: C6_6  and  O2_8 
ROOT
HETATM    1  C1  UNL     1      19.175   1.209  50.833  1.00  0.00     0.015 C 
HETATM    2  C2  UNL     1      20.296   0.548  51.559  1.00  0.00     0.021 C 
HETATM    3  C3  UNL     1      21.589   0.902  50.785  1.00  0.00    -0.092 C 
HETATM    4  C7  UNL     1      22.693   1.525  51.352  1.00  0.00     0.014 A 
HETATM    5  C8  UNL     1      24.050   2.238  51.849  1.00  0.00     0.025 A 
HETATM    6  C9  UNL     1      24.565   0.907  52.459  1.00  0.00    -0.009 A 
HETATM    7  C10 UNL     1      23.219   1.340  52.632  1.00  0.00     0.006 A 
HETATM    8  C11 UNL     1      22.057   2.278  52.512  1.00  0.00     0.004 C 
HETATM    9  C12 UNL     1      20.763   2.572  52.620  1.00  0.00     0.011 C 
HETATM   10  C13 UNL     1      20.363   1.212  53.022  1.00  0.00     0.069 C 
HETATM   11  S1  UNL     1      20.545   0.198  54.371  1.00  0.00    -0.064 SA
HETATM   12  C14 UNL     1      22.086  -0.786  54.598  1.00  0.00     0.280 C 
HETATM   13  O3  UNL     1      22.492  -1.731  55.254  1.00  0.00    -0.260 OA
HETATM   14  N1  UNL     1      23.339  -0.605  53.937  1.00  0.00    -0.351 N 
HETATM   15  C15 UNL     1      24.657  -0.418  53.244  1.00  0.00     0.134 C 
HETATM   16  H17 UNL     1      22.696  -0.241  53.281  1.00  0.00     0.163 HD
ENDROOT
BRANCH   3  17
HETATM   17  C4  UNL     1      21.428   0.533  49.360  1.00  0.00     0.041 C 
BRANCH  17  18
HETATM   18  C5  UNL     1      21.828   1.483  48.317  1.00  0.00     0.114 C 
BRANCH  18  19
HETATM   19  C6  UNL     1      20.970   2.560  47.862  1.00  0.00     0.139 C 
HETATM   20  O1  UNL     1      20.097   3.101  47.091  1.00  0.00    -0.650 OA
BRANCH  19  21
HETATM   21  O2  UNL     1      21.132   3.672  48.674  1.00  0.00    -0.776 OA
HETATM   22  H9  UNL     1      21.497   4.569  48.502  1.00  0.00     0.167 HD
ENDBRANCH  19  21
ENDBRANCH  18  19
ENDBRANCH  17  18
ENDBRANCH   3  17
TORSDOF 4
ENDMDL
MODEL 9
REMARK VINA RESULT:      -6.5      6.848      8.902
REMARK  4 active torsions:
REMARK  status: ('A' for Active; 'I' for Inactive)
REMARK    1  A    between atoms: C3_3  and  C4_4 
REMARK    2  A    between atoms: C4_4  and  C5_5 
REMARK    3  A    between atoms: C5_5  and  C6_6 
REMARK    4  A    between atoms: C6_6  and  O2_8 
ROOT
HETATM    1  C1  UNL     1      25.798   7.809  47.709  1.00  0.00     0.015 C 
HETATM    2  C2  UNL     1      27.109   7.907  48.411  1.00  0.00     0.021 C 
HETATM    3  C3  UNL     1      27.686   6.473  48.464  1.00  0.00    -0.092 C 
HETATM    4  C7  UNL     1      28.928   6.110  47.959  1.00  0.00     0.014 A 
HETATM    5  C8  UNL     1      30.333   5.526  47.428  1.00  0.00     0.025 A 
HETATM    6  C9  UNL     1      31.069   6.063  48.684  1.00  0.00    -0.009 A 
HETATM    7  C10 UNL     1      30.112   6.851  47.983  1.00  0.00     0.006 A 
HETATM    8  C11 UNL     1      29.142   7.170  46.887  1.00  0.00     0.004 C 
HETATM    9  C12 UNL     1      28.183   7.916  46.342  1.00  0.00     0.011 C 
HETATM   10  C13 UNL     1      28.063   8.823  47.497  1.00  0.00     0.069 C 
HETATM   11  S1  UNL     1      28.988  10.036  48.240  1.00  0.00    -0.064 SA
HETATM   12  C14 UNL     1      30.323   9.594  49.430  1.00  0.00     0.280 C 
HETATM   13  O3  UNL     1      31.013  10.124  50.286  1.00  0.00    -0.260 OA
HETATM   14  N1  UNL     1      30.932   8.316  49.620  1.00  0.00    -0.351 N 
HETATM   15  C15 UNL     1      31.573   6.974  49.822  1.00  0.00     0.134 C 
HETATM   16  H17 UNL     1      30.035   8.079  49.279  1.00  0.00     0.163 HD
ENDROOT
BRANCH   3  17
HETATM   17  C4  UNL     1      26.690   5.561  49.070  1.00  0.00     0.041 C 
BRANCH  17  18
HETATM   18  C5  UNL     1      26.983   4.127  49.165  1.00  0.00     0.114 C 
BRANCH  18  19
HETATM   19  C6  UNL     1      26.453   3.283  50.218  1.00  0.00     0.139 C 
HETATM   20  O1  UNL     1      25.582   2.506  50.755  1.00  0.00    -0.650 OA
BRANCH  19  21
HETATM   21  O2  UNL     1      27.334   3.245  51.287  1.00  0.00    -0.776 OA
HETATM   22  H9  UNL     1      27.906   2.532  51.649  1.00  0.00     0.167 HD
ENDBRANCH  19  21
ENDBRANCH  18  19
ENDBRANCH  17  18
ENDBRANCH   3  17
TORSDOF 4
ENDMDL
