MODEL 1
REMARK VINA RESULT:      -7.1      0.000      0.000
REMARK  7 active torsions:
REMARK  status: ('A' for Active; 'I' for Inactive)
REMARK    1  A    between atoms: C2_2  and  C3_3 
REMARK    2  A    between atoms: C3_3  and  C4_5 
REMARK    3  A    between atoms: C5_6  and  C6_7 
REMARK    4  A    between atoms: C6_7  and  S1_8 
REMARK    5  A    between atoms: S1_8  and  N1_11 
REMARK       I    between atoms: N1_11  and  C7_12 
REMARK    6  A    between atoms: C7_12  and  C8_14 
REMARK    7  A    between atoms: C8_14  and  C9_15 
ROOT
HETATM    1  N1  UNL     1      25.112   2.371  51.260  1.00  0.00    -0.254 N 
HETATM    2  C7  UNL     1      26.418   2.698  50.787  1.00  0.00     0.235 C 
HETATM    3  O3  UNL     1      27.392   2.718  51.579  1.00  0.00    -0.272 OA
HETATM    4  H7  UNL     1      24.354   2.379  50.513  1.00  0.00     0.181 HD
ENDROOT
BRANCH   1   5
HETATM    5  S1  UNL     1      24.330   1.948  52.707  1.00  0.00     0.236 S 
HETATM    6  O1  UNL     1      25.031   2.741  53.815  1.00  0.00    -0.205 OA
HETATM    7  O2  UNL     1      22.922   2.390  52.734  1.00  0.00    -0.205 OA
BRANCH   5   8
HETATM    8  C6  UNL     1      24.409   0.217  53.099  1.00  0.00     0.190 C 
BRANCH   8   9
HETATM    9  C5  UNL     1      25.845  -0.166  53.181  1.00  0.00    -0.007 C 
HETATM   10  C4  UNL     1      26.810  -0.747  52.490  1.00  0.00     0.048 C 
BRANCH  10  11
HETATM   11  C3  UNL     1      28.112  -0.861  53.114  1.00  0.00     0.157 C 
HETATM   12  F1  UNL     1      28.976  -1.864  53.080  1.00  0.00    -0.197 F 
BRANCH  11  13
HETATM   13  C2  UNL     1      28.604   0.128  53.851  1.00  0.00    -0.114 C 
HETATM   14  C1  UNL     1      29.184   1.217  54.287  1.00  0.00     0.100 C 
ENDBRANCH  11  13
ENDBRANCH  10  11
ENDBRANCH   8   9
ENDBRANCH   5   8
ENDBRANCH   1   5
BRANCH   2  15
HETATM   15  C8  UNL     1      26.593   3.013  49.344  1.00  0.00     0.142 C 
BRANCH  15  16
HETATM   16  C9  UNL     1      26.814   4.483  49.146  1.00  0.00    -0.049 A 
HETATM   17  C10 UNL     1      27.958   4.947  48.533  1.00  0.00     0.009 A 
HETATM   18  C11 UNL     1      28.163   6.292  48.326  1.00  0.00     0.024 A 
HETATM   19  C12 UNL     1      27.227   7.196  48.730  1.00  0.00     0.034 A 
HETATM   20 CL1  UNL     1      27.552   8.895  48.433  1.00  0.00    -0.084 Cl
HETATM   21  C13 UNL     1      26.068   6.775  49.347  1.00  0.00     0.024 A 
HETATM   22  C14 UNL     1      25.895   5.407  49.540  1.00  0.00     0.009 A 
ENDBRANCH  15  16
ENDBRANCH   2  15
TORSDOF 7
ENDMDL
MODEL 2
REMARK VINA RESULT:      -7.0      3.486      6.773
REMARK  7 active torsions:
REMARK  status: ('A' for Active; 'I' for Inactive)
REMARK    1  A    between atoms: C2_2  and  C3_3 
REMARK    2  A    between atoms: C3_3  and  C4_5 
REMARK    3  A    between atoms: C5_6  and  C6_7 
REMARK    4  A    between atoms: C6_7  and  S1_8 
REMARK    5  A    between atoms: S1_8  and  N1_11 
REMARK       I    between atoms: N1_11  and  C7_12 
REMARK    6  A    between atoms: C7_12  and  C8_14 
REMARK    7  A    between atoms: C8_14  and  C9_15 
ROOT
HETATM    1  N1  UNL     1      23.747   1.468  53.019  1.00  0.00    -0.254 N 
HETATM    2  C7  UNL     1      23.387   0.109  53.263  1.00  0.00     0.235 C 
HETATM    3  O3  UNL     1      22.455  -0.426  52.614  1.00  0.00    -0.272 OA
HETATM    4  H7  UNL     1      24.549   1.830  53.618  1.00  0.00     0.181 HD
ENDROOT
BRANCH   1   5
HETATM    5  S1  UNL     1      23.289   2.768  52.027  1.00  0.00     0.236 S 
HETATM    6  O1  UNL     1      21.793   2.986  52.279  1.00  0.00    -0.205 OA
HETATM    7  O2  UNL     1      23.945   4.031  52.419  1.00  0.00    -0.205 OA
BRANCH   5   8
HETATM    8  C6  UNL     1      23.545   2.487  50.292  1.00  0.00     0.190 C 
BRANCH   8   9
HETATM    9  C5  UNL     1      24.574   3.454  49.821  1.00  0.00    -0.007 C 
HETATM   10  C4  UNL     1      25.843   3.532  49.463  1.00  0.00     0.048 C 
BRANCH  10  11
HETATM   11  C3  UNL     1      26.354   4.830  49.070  1.00  0.00     0.157 C 
HETATM   12  F1  UNL     1      25.714   5.983  48.947  1.00  0.00    -0.197 F 
BRANCH  11  13
HETATM   13  C2  UNL     1      27.636   4.996  48.768  1.00  0.00    -0.114 C 
HETATM   14  C1  UNL     1      28.777   5.298  48.203  1.00  0.00     0.100 C 
ENDBRANCH  11  13
ENDBRANCH  10  11
ENDBRANCH   8   9
ENDBRANCH   5   8
ENDBRANCH   1   5
BRANCH   2  15
HETATM   15  C8  UNL     1      24.137  -0.649  54.299  1.00  0.00     0.142 C 
BRANCH  15  16
HETATM   16  C9  UNL     1      25.615  -0.538  54.070  1.00  0.00    -0.049 A 
HETATM   17  C10 UNL     1      26.417   0.140  54.963  1.00  0.00     0.009 A 
HETATM   18  C11 UNL     1      27.777   0.230  54.775  1.00  0.00     0.024 A 
HETATM   19  C12 UNL     1      28.359  -0.354  53.690  1.00  0.00     0.034 A 
HETATM   20 CL1  UNL     1      30.098  -0.200  53.513  1.00  0.00    -0.084 Cl
HETATM   21  C13 UNL     1      27.593  -1.041  52.772  1.00  0.00     0.024 A 
HETATM   22  C14 UNL     1      26.220  -1.112  52.994  1.00  0.00     0.009 A 
ENDBRANCH  15  16
ENDBRANCH   2  15
TORSDOF 7
ENDMDL
MODEL 3
REMARK VINA RESULT:      -7.0      4.804      7.431
REMARK  7 active torsions:
REMARK  status: ('A' for Active; 'I' for Inactive)
REMARK    1  A    between atoms: C2_2  and  C3_3 
REMARK    2  A    between atoms: C3_3  and  C4_5 
REMARK    3  A    between atoms: C5_6  and  C6_7 
REMARK    4  A    between atoms: C6_7  and  S1_8 
REMARK    5  A    between atoms: S1_8  and  N1_11 
REMARK       I    between atoms: N1_11  and  C7_12 
REMARK    6  A    between atoms: C7_12  and  C8_14 
REMARK    7  A    between atoms: C8_14  and  C9_15 
ROOT
HETATM    1  N1  UNL     1      26.539  -0.007  54.710  1.00  0.00    -0.254 N 
HETATM    2  C7  UNL     1      25.407  -0.748  54.256  1.00  0.00     0.235 C 
HETATM    3  O3  UNL     1      25.358  -1.171  53.075  1.00  0.00    -0.272 OA
HETATM    4  H7  UNL     1      26.488   0.305  55.726  1.00  0.00     0.181 HD
ENDROOT
BRANCH   1   5
HETATM    5  S1  UNL     1      28.026   0.568  54.125  1.00  0.00     0.236 S 
HETATM    6  O1  UNL     1      28.919   0.763  55.354  1.00  0.00    -0.205 OA
HETATM    7  O2  UNL     1      28.720  -0.428  53.285  1.00  0.00    -0.205 OA
BRANCH   5   8
HETATM    8  C6  UNL     1      27.917   2.105  53.243  1.00  0.00     0.190 C 
BRANCH   8   9
HETATM    9  C5  UNL     1      26.570   2.175  52.613  1.00  0.00    -0.007 C 
HETATM   10  C4  UNL     1      25.950   1.999  51.459  1.00  0.00     0.048 C 
BRANCH  10  11
HETATM   11  C3  UNL     1      24.520   2.229  51.422  1.00  0.00     0.157 C 
HETATM   12  F1  UNL     1      23.576   1.553  50.783  1.00  0.00    -0.197 F 
BRANCH  11  13
HETATM   13  C2  UNL     1      23.973   3.238  52.090  1.00  0.00    -0.114 C 
HETATM   14  C1  UNL     1      23.288   4.288  52.463  1.00  0.00     0.100 C 
ENDBRANCH  11  13
ENDBRANCH  10  11
ENDBRANCH   8   9
ENDBRANCH   5   8
ENDBRANCH   1   5
BRANCH   2  15
HETATM   15  C8  UNL     1      24.296  -1.003  55.211  1.00  0.00     0.142 C 
BRANCH  15  16
HETATM   16  C9  UNL     1      22.968  -0.808  54.543  1.00  0.00    -0.049 A 
HETATM   17  C10 UNL     1      21.968  -1.747  54.674  1.00  0.00     0.009 A 
HETATM   18  C11 UNL     1      20.738  -1.569  54.084  1.00  0.00     0.024 A 
HETATM   19  C12 UNL     1      20.487  -0.448  53.351  1.00  0.00     0.034 A 
HETATM   20 CL1  UNL     1      18.896  -0.285  52.627  1.00  0.00    -0.084 Cl
HETATM   21  C13 UNL     1      21.459   0.517  53.194  1.00  0.00     0.024 A 
HETATM   22  C14 UNL     1      22.691   0.303  53.806  1.00  0.00     0.009 A 
ENDBRANCH  15  16
ENDBRANCH   2  15
TORSDOF 7
ENDMDL
MODEL 4
REMARK VINA RESULT:      -6.9      3.866      5.327
REMARK  7 active torsions:
REMARK  status: ('A' for Active; 'I' for Inactive)
REMARK    1  A    between atoms: C2_2  and  C3_3 
REMARK    2  A    between atoms: C3_3  and  C4_5 
REMARK    3  A    between atoms: C5_6  and  C6_7 
REMARK    4  A    between atoms: C6_7  and  S1_8 
REMARK    5  A    between atoms: S1_8  and  N1_11 
REMARK       I    between atoms: N1_11  and  C7_12 
REMARK    6  A    between atoms: C7_12  and  C8_14 
REMARK    7  A    between atoms: C8_14  and  C9_15 
ROOT
HETATM    1  N1  UNL     1      27.464   2.293  52.788  1.00  0.00    -0.254 N 
HETATM    2  C7  UNL     1      26.737   2.042  51.586  1.00  0.00     0.235 C 
HETATM    3  O3  UNL     1      26.789   0.914  51.037  1.00  0.00    -0.272 OA
HETATM    4  H7  UNL     1      27.354   3.278  53.177  1.00  0.00     0.181 HD
ENDROOT
BRANCH   1   5
HETATM    5  S1  UNL     1      28.503   1.485  53.862  1.00  0.00     0.236 S 
HETATM    6  O1  UNL     1      29.541   0.770  52.990  1.00  0.00    -0.205 OA
HETATM    7  O2  UNL     1      29.272   2.419  54.707  1.00  0.00    -0.205 OA
BRANCH   5   8
HETATM    8  C6  UNL     1      27.695   0.287  54.895  1.00  0.00     0.190 C 
BRANCH   8   9
HETATM    9  C5  UNL     1      26.324   0.073  54.358  1.00  0.00    -0.007 C 
HETATM   10  C4  UNL     1      25.229  -0.641  54.552  1.00  0.00     0.048 C 
BRANCH  10  11
HETATM   11  C3  UNL     1      24.113  -0.420  53.655  1.00  0.00     0.157 C 
HETATM   12  F1  UNL     1      24.118  -0.071  52.378  1.00  0.00    -0.197 F 
BRANCH  11  13
HETATM   13  C2  UNL     1      22.862  -0.562  54.075  1.00  0.00    -0.114 C 
HETATM   14  C1  UNL     1      21.694  -0.426  54.650  1.00  0.00     0.100 C 
ENDBRANCH  11  13
ENDBRANCH  10  11
ENDBRANCH   8   9
ENDBRANCH   5   8
ENDBRANCH   1   5
BRANCH   2  15
HETATM   15  C8  UNL     1      25.925   3.144  51.005  1.00  0.00     0.142 C 
BRANCH  15  16
HETATM   16  C9  UNL     1      24.465   2.919  51.264  1.00  0.00    -0.049 A 
HETATM   17  C10 UNL     1      23.927   3.153  52.511  1.00  0.00     0.009 A 
HETATM   18  C11 UNL     1      22.585   2.971  52.756  1.00  0.00     0.024 A 
HETATM   19  C12 UNL     1      21.759   2.550  51.758  1.00  0.00     0.034 A 
HETATM   20 CL1  UNL     1      20.058   2.339  52.139  1.00  0.00    -0.084 Cl
HETATM   21  C13 UNL     1      22.256   2.304  50.495  1.00  0.00     0.024 A 
HETATM   22  C14 UNL     1      23.618   2.499  50.284  1.00  0.00     0.009 A 
ENDBRANCH  15  16
ENDBRANCH   2  15
TORSDOF 7
ENDMDL
MODEL 5
REMARK VINA RESULT:      -6.9      2.073      3.558
REMARK  7 active torsions:
REMARK  status: ('A' for Active; 'I' for Inactive)
REMARK    1  A    between atoms: C2_2  and  C3_3 
REMARK    2  A    between atoms: C3_3  and  C4_5 
REMARK    3  A    between atoms: C5_6  and  C6_7 
REMARK    4  A    between atoms: C6_7  and  S1_8 
REMARK    5  A    between atoms: S1_8  and  N1_11 
REMARK       I    between atoms: N1_11  and  C7_12 
REMARK    6  A    between atoms: C7_12  and  C8_14 
REMARK    7  A    between atoms: C8_14  and  C9_15 
ROOT
HETATM    1  N1  UNL     1      26.438   2.286  51.590  1.00  0.00    -0.254 N 
HETATM    2  C7  UNL     1      25.279   3.029  51.213  1.00  0.00     0.235 C 
HETATM    3  O3  UNL     1      24.470   3.429  52.086  1.00  0.00    -0.272 OA
HETATM    4  H7  UNL     1      27.062   1.994  50.780  1.00  0.00     0.181 HD
ENDROOT
BRANCH   1   5
HETATM    5  S1  UNL     1      27.188   1.685  52.991  1.00  0.00     0.236 S 
HETATM    6  O1  UNL     1      28.674   2.031  52.857  1.00  0.00    -0.205 OA
HETATM    7  O2  UNL     1      26.729   2.375  54.212  1.00  0.00    -0.205 OA
BRANCH   5   8
HETATM    8  C6  UNL     1      27.022  -0.070  53.210  1.00  0.00     0.190 C 
BRANCH   8   9
HETATM    9  C5  UNL     1      25.638  -0.341  53.684  1.00  0.00    -0.007 C 
HETATM   10  C4  UNL     1      24.375  -0.292  53.295  1.00  0.00     0.048 C 
BRANCH  10  11
HETATM   11  C3  UNL     1      23.361  -0.704  54.245  1.00  0.00     0.157 C 
HETATM   12  F1  UNL     1      23.460  -1.532  55.273  1.00  0.00    -0.197 F 
BRANCH  11  13
HETATM   13  C2  UNL     1      22.120  -0.241  54.160  1.00  0.00    -0.114 C 
HETATM   14  C1  UNL     1      20.895   0.153  54.395  1.00  0.00     0.100 C 
ENDBRANCH  11  13
ENDBRANCH  10  11
ENDBRANCH   8   9
ENDBRANCH   5   8
ENDBRANCH   1   5
BRANCH   2  15
HETATM   15  C8  UNL     1      25.057   3.313  49.770  1.00  0.00     0.142 C 
BRANCH  15  16
HETATM   16  C9  UNL     1      25.925   4.448  49.315  1.00  0.00    -0.049 A 
HETATM   17  C10 UNL     1      25.445   5.740  49.303  1.00  0.00     0.009 A 
HETATM   18  C11 UNL     1      26.239   6.793  48.908  1.00  0.00     0.024 A 
HETATM   19  C12 UNL     1      27.525   6.572  48.518  1.00  0.00     0.034 A 
HETATM   20 CL1  UNL     1      28.482   7.960  48.028  1.00  0.00    -0.084 Cl
HETATM   21  C13 UNL     1      28.045   5.294  48.515  1.00  0.00     0.024 A 
HETATM   22  C14 UNL     1      27.213   4.254  48.921  1.00  0.00     0.009 A 
ENDBRANCH  15  16
ENDBRANCH   2  15
TORSDOF 7
ENDMDL
MODEL 6
REMARK VINA RESULT:      -6.9      3.652      6.375
REMARK  7 active torsions:
REMARK  status: ('A' for Active; 'I' for Inactive)
REMARK    1  A    between atoms: C2_2  and  C3_3 
REMARK    2  A    between atoms: C3_3  and  C4_5 
REMARK    3  A    between atoms: C5_6  and  C6_7 
REMARK    4  A    between atoms: C6_7  and  S1_8 
REMARK    5  A    between atoms: S1_8  and  N1_11 
REMARK       I    between atoms: N1_11  and  C7_12 
REMARK    6  A    between atoms: C7_12  and  C8_14 
REMARK    7  A    between atoms: C8_14  and  C9_15 
ROOT
HETATM    1  N1  UNL     1      22.614   0.788  51.982  1.00  0.00    -0.254 N 
HETATM    2  C7  UNL     1      23.550   0.970  53.044  1.00  0.00     0.235 C 
HETATM    3  O3  UNL     1      23.968   2.118  53.330  1.00  0.00    -0.272 OA
HETATM    4  H7  UNL     1      22.318  -0.221  51.818  1.00  0.00     0.181 HD
ENDROOT
BRANCH   1   5
HETATM    5  S1  UNL     1      21.769   1.710  50.832  1.00  0.00     0.236 S 
HETATM    6  O1  UNL     1      21.978   1.005  49.488  1.00  0.00    -0.205 OA
HETATM    7  O2  UNL     1      20.312   1.696  51.065  1.00  0.00    -0.205 OA
BRANCH   5   8
HETATM    8  C6  UNL     1      22.325   3.391  50.694  1.00  0.00     0.190 C 
BRANCH   8   9
HETATM    9  C5  UNL     1      23.778   3.364  50.369  1.00  0.00    -0.007 C 
HETATM   10  C4  UNL     1      24.623   3.515  49.364  1.00  0.00     0.048 C 
BRANCH  10  11
HETATM   11  C3  UNL     1      26.036   3.363  49.644  1.00  0.00     0.157 C 
HETATM   12  F1  UNL     1      27.081   3.695  48.900  1.00  0.00    -0.197 F 
BRANCH  11  13
HETATM   13  C2  UNL     1      26.452   2.825  50.784  1.00  0.00    -0.114 C 
HETATM   14  C1  UNL     1      27.146   2.421  51.817  1.00  0.00     0.100 C 
ENDBRANCH  11  13
ENDBRANCH  10  11
ENDBRANCH   8   9
ENDBRANCH   5   8
ENDBRANCH   1   5
BRANCH   2  15
HETATM   15  C8  UNL     1      24.013  -0.227  53.794  1.00  0.00     0.142 C 
BRANCH  15  16
HETATM   16  C9  UNL     1      25.506  -0.348  53.728  1.00  0.00    -0.049 A 
HETATM   17  C10 UNL     1      26.302   0.215  54.703  1.00  0.00     0.009 A 
HETATM   18  C11 UNL     1      27.672   0.092  54.665  1.00  0.00     0.024 A 
HETATM   19  C12 UNL     1      28.270  -0.595  53.652  1.00  0.00     0.034 A 
HETATM   20 CL1  UNL     1      30.021  -0.714  53.666  1.00  0.00    -0.084 Cl
HETATM   21  C13 UNL     1      27.511  -1.174  52.656  1.00  0.00     0.024 A 
HETATM   22  C14 UNL     1      26.128  -1.029  52.727  1.00  0.00     0.009 A 
ENDBRANCH  15  16
ENDBRANCH   2  15
TORSDOF 7
ENDMDL
MODEL 7
REMARK VINA RESULT:      -6.9      3.852      5.441
REMARK  7 active torsions:
REMARK  status: ('A' for Active; 'I' for Inactive)
REMARK    1  A    between atoms: C2_2  and  C3_3 
REMARK    2  A    between atoms: C3_3  and  C4_5 
REMARK    3  A    between atoms: C5_6  and  C6_7 
REMARK    4  A    between atoms: C6_7  and  S1_8 
REMARK    5  A    between atoms: S1_8  and  N1_11 
REMARK       I    between atoms: N1_11  and  C7_12 
REMARK    6  A    between atoms: C7_12  and  C8_14 
REMARK    7  A    between atoms: C8_14  and  C9_15 
ROOT
HETATM    1  N1  UNL     1      26.025   2.732  52.060  1.00  0.00    -0.254 N 
HETATM    2  C7  UNL     1      25.915   3.244  50.732  1.00  0.00     0.235 C 
HETATM    3  O3  UNL     1      26.801   2.991  49.879  1.00  0.00    -0.272 OA
HETATM    4  H7  UNL     1      25.224   2.999  52.707  1.00  0.00     0.181 HD
ENDROOT
BRANCH   1   5
HETATM    5  S1  UNL     1      27.077   1.782  52.995  1.00  0.00     0.236 S 
HETATM    6  O1  UNL     1      28.494   2.133  52.527  1.00  0.00    -0.205 OA
HETATM    7  O2  UNL     1      27.033   2.139  54.426  1.00  0.00    -0.205 OA
BRANCH   5   8
HETATM    8  C6  UNL     1      26.830   0.032  52.818  1.00  0.00     0.190 C 
BRANCH   8   9
HETATM    9  C5  UNL     1      25.377  -0.242  52.985  1.00  0.00    -0.007 C 
HETATM   10  C4  UNL     1      24.203   0.363  53.047  1.00  0.00     0.048 C 
BRANCH  10  11
HETATM   11  C3  UNL     1      23.029  -0.463  53.240  1.00  0.00     0.157 C 
HETATM   12  F1  UNL     1      22.752  -1.660  52.743  1.00  0.00    -0.197 F 
BRANCH  11  13
HETATM   13  C2  UNL     1      22.026  -0.054  54.006  1.00  0.00    -0.114 C 
HETATM   14  C1  UNL     1      20.856   0.212  54.530  1.00  0.00     0.100 C 
ENDBRANCH  11  13
ENDBRANCH  10  11
ENDBRANCH   8   9
ENDBRANCH   5   8
ENDBRANCH   1   5
BRANCH   2  15
HETATM   15  C8  UNL     1      24.732   4.077  50.388  1.00  0.00     0.142 C 
BRANCH  15  16
HETATM   16  C9  UNL     1      23.464   3.302  50.587  1.00  0.00    -0.049 A 
HETATM   17  C10 UNL     1      23.188   2.193  49.816  1.00  0.00     0.009 A 
HETATM   18  C11 UNL     1      22.038   1.461  50.003  1.00  0.00     0.024 A 
HETATM   19  C12 UNL     1      21.143   1.826  50.964  1.00  0.00     0.034 A 
HETATM   20 CL1  UNL     1      19.698   0.847  51.149  1.00  0.00    -0.084 Cl
HETATM   21  C13 UNL     1      21.380   2.929  51.757  1.00  0.00     0.024 A 
HETATM   22  C14 UNL     1      22.554   3.645  51.539  1.00  0.00     0.009 A 
ENDBRANCH  15  16
ENDBRANCH   2  15
TORSDOF 7
ENDMDL
MODEL 8
REMARK VINA RESULT:      -6.8      2.910      4.223
REMARK  7 active torsions:
REMARK  status: ('A' for Active; 'I' for Inactive)
REMARK    1  A    between atoms: C2_2  and  C3_3 
REMARK    2  A    between atoms: C3_3  and  C4_5 
REMARK    3  A    between atoms: C5_6  and  C6_7 
REMARK    4  A    between atoms: C6_7  and  S1_8 
REMARK    5  A    between atoms: S1_8  and  N1_11 
REMARK       I    between atoms: N1_11  and  C7_12 
REMARK    6  A    between atoms: C7_12  and  C8_14 
REMARK    7  A    between atoms: C8_14  and  C9_15 
ROOT
HETATM    1  N1  UNL     1      25.371   1.280  52.185  1.00  0.00    -0.254 N 
HETATM    2  C7  UNL     1      24.611   2.445  51.861  1.00  0.00     0.235 C 
HETATM    3  O3  UNL     1      24.266   3.247  52.763  1.00  0.00    -0.272 OA
HETATM    4  H7  UNL     1      25.616   0.664  51.353  1.00  0.00     0.181 HD
ENDROOT
BRANCH   1   5
HETATM    5  S1  UNL     1      26.049   0.516  53.542  1.00  0.00     0.236 S 
HETATM    6  O1  UNL     1      27.370  -0.098  53.066  1.00  0.00    -0.205 OA
HETATM    7  O2  UNL     1      26.417   1.476  54.600  1.00  0.00    -0.205 OA
BRANCH   5   8
HETATM    8  C6  UNL     1      25.037  -0.766  54.239  1.00  0.00     0.190 C 
BRANCH   8   9
HETATM    9  C5  UNL     1      23.623  -0.478  53.876  1.00  0.00    -0.007 C 
HETATM   10  C4  UNL     1      22.382  -0.670  54.287  1.00  0.00     0.048 C 
BRANCH  10  11
HETATM   11  C3  UNL     1      21.311  -0.130  53.474  1.00  0.00     0.157 C 
HETATM   12  F1  UNL     1      20.066   0.170  53.815  1.00  0.00    -0.197 F 
BRANCH  11  13
HETATM   13  C2  UNL     1      21.500   0.139  52.189  1.00  0.00    -0.114 C 
HETATM   14  C1  UNL     1      21.362   0.421  50.918  1.00  0.00     0.100 C 
ENDBRANCH  11  13
ENDBRANCH  10  11
ENDBRANCH   8   9
ENDBRANCH   5   8
ENDBRANCH   1   5
BRANCH   2  15
HETATM   15  C8  UNL     1      24.243   2.680  50.440  1.00  0.00     0.142 C 
BRANCH  15  16
HETATM   16  C9  UNL     1      25.134   3.719  49.828  1.00  0.00    -0.049 A 
HETATM   17  C10 UNL     1      26.458   3.443  49.561  1.00  0.00     0.009 A 
HETATM   18  C11 UNL     1      27.280   4.381  48.979  1.00  0.00     0.024 A 
HETATM   19  C12 UNL     1      26.793   5.611  48.655  1.00  0.00     0.034 A 
HETATM   20 CL1  UNL     1      27.895   6.759  47.915  1.00  0.00    -0.084 Cl
HETATM   21  C13 UNL     1      25.474   5.929  48.905  1.00  0.00     0.024 A 
HETATM   22  C14 UNL     1      24.672   4.955  49.494  1.00  0.00     0.009 A 
ENDBRANCH  15  16
ENDBRANCH   2  15
TORSDOF 7
ENDMDL
MODEL 9
REMARK VINA RESULT:      -6.8      3.856      5.003
REMARK  7 active torsions:
REMARK  status: ('A' for Active; 'I' for Inactive)
REMARK    1  A    between atoms: C2_2  and  C3_3 
REMARK    2  A    between atoms: C3_3  and  C4_5 
REMARK    3  A    between atoms: C5_6  and  C6_7 
REMARK    4  A    between atoms: C6_7  and  S1_8 
REMARK    5  A    between atoms: S1_8  and  N1_11 
REMARK       I    between atoms: N1_11  and  C7_12 
REMARK    6  A    between atoms: C7_12  and  C8_14 
REMARK    7  A    between atoms: C8_14  and  C9_15 
ROOT
HETATM    1  N1  UNL     1      26.254   0.834  52.548  1.00  0.00    -0.254 N 
HETATM    2  C7  UNL     1      26.932   1.922  51.919  1.00  0.00     0.235 C 
HETATM    3  O3  UNL     1      27.904   2.477  52.488  1.00  0.00    -0.272 OA
HETATM    4  H7  UNL     1      25.446   0.430  51.986  1.00  0.00     0.181 HD
ENDROOT
BRANCH   1   5
HETATM    5  S1  UNL     1      26.323  -0.077  53.980  1.00  0.00     0.236 S 
HETATM    6  O1  UNL     1      27.395  -1.147  53.750  1.00  0.00    -0.205 OA
HETATM    7  O2  UNL     1      26.798   0.719  55.128  1.00  0.00    -0.205 OA
BRANCH   5   8
HETATM    8  C6  UNL     1      24.796  -0.875  54.411  1.00  0.00     0.190 C 
BRANCH   8   9
HETATM    9  C5  UNL     1      23.698  -0.178  53.688  1.00  0.00    -0.007 C 
HETATM   10  C4  UNL     1      22.584  -0.407  53.015  1.00  0.00     0.048 C 
BRANCH  10  11
HETATM   11  C3  UNL     1      21.865   0.737  52.492  1.00  0.00     0.157 C 
HETATM   12  F1  UNL     1      21.259   1.718  53.143  1.00  0.00    -0.197 F 
BRANCH  11  13
HETATM   13  C2  UNL     1      21.737   0.922  51.184  1.00  0.00    -0.114 C 
HETATM   14  C1  UNL     1      21.600   0.780  49.890  1.00  0.00     0.100 C 
ENDBRANCH  11  13
ENDBRANCH  10  11
ENDBRANCH   8   9
ENDBRANCH   5   8
ENDBRANCH   1   5
BRANCH   2  15
HETATM   15  C8  UNL     1      26.459   2.376  50.585  1.00  0.00     0.142 C 
BRANCH  15  16
HETATM   16  C9  UNL     1      25.142   3.082  50.702  1.00  0.00    -0.049 A 
HETATM   17  C10 UNL     1      24.614   3.387  51.938  1.00  0.00     0.009 A 
HETATM   18  C11 UNL     1      23.416   4.055  52.059  1.00  0.00     0.024 A 
HETATM   19  C12 UNL     1      22.726   4.427  50.945  1.00  0.00     0.034 A 
HETATM   20 CL1  UNL     1      21.206   5.276  51.172  1.00  0.00    -0.084 Cl
HETATM   21  C13 UNL     1      23.218   4.141  49.689  1.00  0.00     0.024 A 
HETATM   22  C14 UNL     1      24.432   3.465  49.605  1.00  0.00     0.009 A 
ENDBRANCH  15  16
ENDBRANCH   2  15
TORSDOF 7
ENDMDL
