MODEL 1
REMARK VINA RESULT:      -8.8      0.000      0.000
REMARK  4 active torsions:
REMARK  status: ('A' for Active; 'I' for Inactive)
REMARK    1  A    between atoms: C4_5  and  C5_6 
REMARK    2  A    between atoms: C5_6  and  N1_7 
REMARK    3  A    between atoms: N1_7  and  N2_8 
REMARK    4  A    between atoms: C9_12  and  N3_13 
ROOT
HETATM    1  N2  UNL     1      23.634   2.062  52.618  1.00  0.00    -0.265 N 
HETATM    2  C6  UNL     1      24.890   2.549  52.593  1.00  0.00     0.117 C 
HETATM    3  C7  UNL     1      25.977   2.485  51.746  1.00  0.00     0.023 C 
HETATM    4  C8  UNL     1      26.416   3.206  50.660  1.00  0.00     0.052 C 
HETATM    5  C9  UNL     1      25.592   3.992  49.892  1.00  0.00     0.135 C 
HETATM    6  N4  UNL     1      24.258   3.895  49.920  1.00  0.00    -0.224 NA
HETATM    7  C16 UNL     1      23.603   2.725  49.940  1.00  0.00     0.236 C 
HETATM    8  N5  UNL     1      22.508   2.563  50.666  1.00  0.00    -0.235 NA
HETATM    9  C17 UNL     1      22.486   2.466  52.000  1.00  0.00     0.232 C 
ENDROOT
BRANCH   1  10
HETATM   10  N1  UNL     1      23.631   0.957  53.441  1.00  0.00    -0.325 N 
HETATM   11  H5  UNL     1      22.969   1.325  54.187  1.00  0.00     0.181 HD
BRANCH  10  12
HETATM   12  C5  UNL     1      24.217  -0.340  53.492  1.00  0.00     0.178 C 
BRANCH  12  13
HETATM   13  C4  UNL     1      25.674  -0.363  53.732  1.00  0.00    -0.039 A 
HETATM   14  C3  UNL     1      26.435   0.199  54.732  1.00  0.00     0.010 A 
HETATM   15  C2  UNL     1      27.802   0.015  54.711  1.00  0.00     0.024 A 
HETATM   16  C1  UNL     1      28.412  -0.701  53.736  1.00  0.00     0.034 A 
HETATM   17 CL1  UNL     1      30.162  -0.888  53.792  1.00  0.00    -0.084 Cl
HETATM   18  C19 UNL     1      27.683  -1.277  52.722  1.00  0.00     0.024 A 
HETATM   19  C18 UNL     1      26.322  -1.101  52.731  1.00  0.00     0.010 A 
ENDBRANCH  12  13
ENDBRANCH  10  12
ENDBRANCH   1  10
BRANCH   5  20
HETATM   20  N3  UNL     1      26.190   4.952  49.040  1.00  0.00    -0.317 N 
HETATM   21  C10 UNL     1      25.422   6.052  48.575  1.00  0.00     0.111 C 
HETATM   22  C11 UNL     1      25.815   7.186  48.117  1.00  0.00     0.004 C 
HETATM   23  C12 UNL     1      26.932   7.558  47.729  1.00  0.00    -0.012 C 
HETATM   24  C13 UNL     1      28.110   7.109  48.003  1.00  0.00     0.014 C 
HETATM   25  C14 UNL     1      28.436   5.683  48.238  1.00  0.00     0.019 C 
HETATM   26  C15 UNL     1      27.577   4.753  48.694  1.00  0.00     0.098 C 
ENDBRANCH   5  20
TORSDOF 4
ENDMDL
MODEL 2
REMARK VINA RESULT:      -8.7      5.623      8.236
REMARK  4 active torsions:
REMARK  status: ('A' for Active; 'I' for Inactive)
REMARK    1  A    between atoms: C4_5  and  C5_6 
REMARK    2  A    between atoms: C5_6  and  N1_7 
REMARK    3  A    between atoms: N1_7  and  N2_8 
REMARK    4  A    between atoms: C9_12  and  N3_13 
ROOT
HETATM    1  N2  UNL     1      21.306  -0.836  53.671  1.00  0.00    -0.265 N 
HETATM    2  C6  UNL     1      22.067  -0.185  52.769  1.00  0.00     0.117 C 
HETATM    3  C7  UNL     1      23.009   0.822  52.789  1.00  0.00     0.023 C 
HETATM    4  C8  UNL     1      24.374   0.884  52.953  1.00  0.00     0.052 C 
HETATM    5  C9  UNL     1      25.107  -0.107  53.556  1.00  0.00     0.135 C 
HETATM    6  N4  UNL     1      24.557  -1.064  54.313  1.00  0.00    -0.224 NA
HETATM    7  C16 UNL     1      23.593  -0.829  55.216  1.00  0.00     0.236 C 
HETATM    8  N5  UNL     1      22.594  -1.680  55.392  1.00  0.00    -0.235 NA
HETATM    9  C17 UNL     1      21.585  -1.859  54.532  1.00  0.00     0.232 C 
ENDROOT
BRANCH   1  10
HETATM   10  N1  UNL     1      20.046  -0.281  53.634  1.00  0.00    -0.325 N 
HETATM   11  H5  UNL     1      20.093   0.262  54.547  1.00  0.00     0.181 HD
BRANCH  10  12
HETATM   12  C5  UNL     1      18.903  -0.277  52.785  1.00  0.00     0.178 C 
BRANCH  12  13
HETATM   13  C4  UNL     1      17.995  -1.432  52.947  1.00  0.00    -0.039 A 
HETATM   14  C3  UNL     1      18.151  -2.615  53.631  1.00  0.00     0.010 A 
HETATM   15  C2  UNL     1      17.121  -3.533  53.616  1.00  0.00     0.024 A 
HETATM   16  C1  UNL     1      15.966  -3.300  52.948  1.00  0.00     0.034 A 
HETATM   17 CL1  UNL     1      14.704  -4.527  52.987  1.00  0.00    -0.084 Cl
HETATM   18  C19 UNL     1      15.775  -2.128  52.255  1.00  0.00     0.024 A 
HETATM   19  C18 UNL     1      16.792  -1.207  52.261  1.00  0.00     0.010 A 
ENDBRANCH  12  13
ENDBRANCH  10  12
ENDBRANCH   1  10
BRANCH   5  20
HETATM   20  N3  UNL     1      26.509  -0.115  53.359  1.00  0.00    -0.317 N 
HETATM   21  C10 UNL     1      27.267   1.047  53.663  1.00  0.00     0.111 C 
HETATM   22  C11 UNL     1      28.523   1.161  53.903  1.00  0.00     0.004 C 
HETATM   23  C12 UNL     1      29.459   0.370  53.712  1.00  0.00    -0.012 C 
HETATM   24  C13 UNL     1      29.462  -0.914  53.590  1.00  0.00     0.014 C 
HETATM   25  C14 UNL     1      28.387  -1.704  52.946  1.00  0.00     0.019 C 
HETATM   26  C15 UNL     1      27.097  -1.334  52.856  1.00  0.00     0.098 C 
ENDBRANCH   5  20
TORSDOF 4
ENDMDL
MODEL 3
REMARK VINA RESULT:      -8.5      1.052      1.702
REMARK  4 active torsions:
REMARK  status: ('A' for Active; 'I' for Inactive)
REMARK    1  A    between atoms: C4_5  and  C5_6 
REMARK    2  A    between atoms: C5_6  and  N1_7 
REMARK    3  A    between atoms: N1_7  and  N2_8 
REMARK    4  A    between atoms: C9_12  and  N3_13 
ROOT
HETATM    1  N2  UNL     1      24.366   2.643  51.765  1.00  0.00    -0.265 N 
HETATM    2  C6  UNL     1      25.656   2.769  51.398  1.00  0.00     0.117 C 
HETATM    3  C7  UNL     1      26.363   2.834  50.215  1.00  0.00     0.023 C 
HETATM    4  C8  UNL     1      26.742   3.838  49.354  1.00  0.00     0.052 C 
HETATM    5  C9  UNL     1      26.117   5.059  49.297  1.00  0.00     0.135 C 
HETATM    6  N4  UNL     1      24.910   5.286  49.828  1.00  0.00    -0.224 NA
HETATM    7  C16 UNL     1      23.882   4.431  49.720  1.00  0.00     0.236 C 
HETATM    8  N5  UNL     1      23.047   4.229  50.727  1.00  0.00    -0.235 NA
HETATM    9  C17 UNL     1      23.345   3.548  51.839  1.00  0.00     0.232 C 
ENDROOT
BRANCH   1  10
HETATM   10  N1  UNL     1      24.152   1.323  52.097  1.00  0.00    -0.325 N 
HETATM   11  H5  UNL     1      23.701   1.009  51.186  1.00  0.00     0.181 HD
BRANCH  10  12
HETATM   12  C5  UNL     1      24.371   0.448  53.198  1.00  0.00     0.178 C 
BRANCH  12  13
HETATM   13  C4  UNL     1      25.790   0.191  53.524  1.00  0.00    -0.039 A 
HETATM   14  C3  UNL     1      26.587   0.677  54.535  1.00  0.00     0.010 A 
HETATM   15  C2  UNL     1      27.900   0.259  54.604  1.00  0.00     0.024 A 
HETATM   16  C1  UNL     1      28.422  -0.611  53.707  1.00  0.00     0.034 A 
HETATM   17 CL1  UNL     1      30.108  -1.091  53.876  1.00  0.00    -0.084 Cl
HETATM   18  C19 UNL     1      27.654  -1.116  52.685  1.00  0.00     0.024 A 
HETATM   19  C18 UNL     1      26.346  -0.709  52.604  1.00  0.00     0.010 A 
ENDBRANCH  12  13
ENDBRANCH  10  12
ENDBRANCH   1  10
BRANCH   5  20
HETATM   20  N3  UNL     1      26.790   6.124  48.651  1.00  0.00    -0.317 N 
HETATM   21  C10 UNL     1      28.185   6.027  48.407  1.00  0.00     0.111 C 
HETATM   22  C11 UNL     1      28.912   6.663  47.560  1.00  0.00     0.004 C 
HETATM   23  C12 UNL     1      28.674   7.682  46.895  1.00  0.00    -0.012 C 
HETATM   24  C13 UNL     1      27.553   8.205  46.529  1.00  0.00     0.014 C 
HETATM   25  C14 UNL     1      26.311   8.190  47.337  1.00  0.00     0.019 C 
HETATM   26  C15 UNL     1      25.996   7.266  48.263  1.00  0.00     0.098 C 
ENDBRANCH   5  20
TORSDOF 4
ENDMDL
MODEL 4
REMARK VINA RESULT:      -8.3      4.401      8.181
REMARK  4 active torsions:
REMARK  status: ('A' for Active; 'I' for Inactive)
REMARK    1  A    between atoms: C4_5  and  C5_6 
REMARK    2  A    between atoms: C5_6  and  N1_7 
REMARK    3  A    between atoms: N1_7  and  N2_8 
REMARK    4  A    between atoms: C9_12  and  N3_13 
ROOT
HETATM    1  N2  UNL     1      22.758   0.918  52.230  1.00  0.00    -0.265 N 
HETATM    2  C6  UNL     1      22.430  -0.272  52.770  1.00  0.00     0.117 C 
HETATM    3  C7  UNL     1      21.647  -0.721  53.813  1.00  0.00     0.023 C 
HETATM    4  C8  UNL     1      20.324  -1.068  53.966  1.00  0.00     0.052 C 
HETATM    5  C9  UNL     1      19.331  -0.648  53.117  1.00  0.00     0.135 C 
HETATM    6  N4  UNL     1      19.483   0.371  52.264  1.00  0.00    -0.224 NA
HETATM    7  C16 UNL     1      20.090   1.522  52.589  1.00  0.00     0.236 C 
HETATM    8  N5  UNL     1      20.873   2.152  51.727  1.00  0.00    -0.235 NA
HETATM    9  C17 UNL     1      22.095   1.743  51.368  1.00  0.00     0.232 C 
ENDROOT
BRANCH   1  10
HETATM   10  N1  UNL     1      24.002   1.266  52.711  1.00  0.00    -0.325 N 
HETATM   11  H5  UNL     1      23.933   0.797  53.662  1.00  0.00     0.181 HD
BRANCH  10  12
HETATM   12  C5  UNL     1      25.152   1.987  52.280  1.00  0.00     0.178 C 
BRANCH  12  13
HETATM   13  C4  UNL     1      26.447   1.407  52.691  1.00  0.00    -0.039 A 
HETATM   14  C3  UNL     1      27.607   2.004  53.128  1.00  0.00     0.010 A 
HETATM   15  C2  UNL     1      28.685   1.207  53.452  1.00  0.00     0.024 A 
HETATM   16  C1  UNL     1      28.631  -0.143  53.351  1.00  0.00     0.034 A 
HETATM   17 CL1  UNL     1      30.054  -1.082  53.790  1.00  0.00    -0.084 Cl
HETATM   18  C19 UNL     1      27.489  -0.774  52.918  1.00  0.00     0.024 A 
HETATM   19  C18 UNL     1      26.409   0.009  52.592  1.00  0.00     0.010 A 
ENDBRANCH  12  13
ENDBRANCH  10  12
ENDBRANCH   1  10
BRANCH   5  20
HETATM   20  N3  UNL     1      18.092  -1.335  53.148  1.00  0.00    -0.317 N 
HETATM   21  C10 UNL     1      16.949  -0.746  52.546  1.00  0.00     0.111 C 
HETATM   22  C11 UNL     1      15.862  -1.300  52.144  1.00  0.00     0.004 C 
HETATM   23  C12 UNL     1      15.398  -2.427  52.369  1.00  0.00    -0.012 C 
HETATM   24  C13 UNL     1      15.982  -3.521  52.726  1.00  0.00     0.014 C 
HETATM   25  C14 UNL     1      17.155  -3.596  53.627  1.00  0.00     0.019 C 
HETATM   26  C15 UNL     1      18.070  -2.624  53.797  1.00  0.00     0.098 C 
ENDBRANCH   5  20
TORSDOF 4
ENDMDL
MODEL 5
REMARK VINA RESULT:      -8.1      2.712      7.879
REMARK  4 active torsions:
REMARK  status: ('A' for Active; 'I' for Inactive)
REMARK    1  A    between atoms: C4_5  and  C5_6 
REMARK    2  A    between atoms: C5_6  and  N1_7 
REMARK    3  A    between atoms: N1_7  and  N2_8 
REMARK    4  A    between atoms: C9_12  and  N3_13 
ROOT
HETATM    1  N2  UNL     1      25.613   4.468  49.670  1.00  0.00    -0.265 N 
HETATM    2  C6  UNL     1      26.091   3.244  49.971  1.00  0.00     0.117 C 
HETATM    3  C7  UNL     1      26.459   2.561  51.111  1.00  0.00     0.023 C 
HETATM    4  C8  UNL     1      25.810   1.772  52.032  1.00  0.00     0.052 C 
HETATM    5  C9  UNL     1      24.452   1.806  52.231  1.00  0.00     0.135 C 
HETATM    6  N4  UNL     1      23.675   2.804  51.794  1.00  0.00    -0.224 NA
HETATM    7  C16 UNL     1      24.013   4.098  51.888  1.00  0.00     0.236 C 
HETATM    8  N5  UNL     1      23.732   4.954  50.917  1.00  0.00    -0.235 NA
HETATM    9  C17 UNL     1      24.355   4.997  49.735  1.00  0.00     0.232 C 
ENDROOT
BRANCH   1  10
HETATM   10  N1  UNL     1      26.671   5.237  49.238  1.00  0.00    -0.325 N 
HETATM   11  H5  UNL     1      27.454   4.700  49.718  1.00  0.00     0.181 HD
BRANCH  10  12
HETATM   12  C5  UNL     1      26.898   6.386  48.429  1.00  0.00     0.178 C 
BRANCH  12  13
HETATM   13  C4  UNL     1      28.289   6.561  47.961  1.00  0.00    -0.039 A 
HETATM   14  C3  UNL     1      28.900   7.609  47.314  1.00  0.00     0.010 A 
HETATM   15  C2  UNL     1      30.237   7.503  46.991  1.00  0.00     0.024 A 
HETATM   16  C1  UNL     1      30.960   6.398  47.292  1.00  0.00     0.034 A 
HETATM   17 CL1  UNL     1      32.662   6.352  46.845  1.00  0.00    -0.084 Cl
HETATM   18  C19 UNL     1      30.382   5.331  47.939  1.00  0.00     0.024 A 
HETATM   19  C18 UNL     1      29.052   5.424  48.266  1.00  0.00     0.010 A 
ENDBRANCH  12  13
ENDBRANCH  10  12
ENDBRANCH   1  10
BRANCH   5  20
HETATM   20  N3  UNL     1      23.852   0.728  52.927  1.00  0.00    -0.317 N 
HETATM   21  C10 UNL     1      24.653  -0.108  53.749  1.00  0.00     0.111 C 
HETATM   22  C11 UNL     1      24.302  -0.881  54.714  1.00  0.00     0.004 C 
HETATM   23  C12 UNL     1      23.184  -1.300  55.049  1.00  0.00    -0.012 C 
HETATM   24  C13 UNL     1      22.006  -0.827  54.820  1.00  0.00     0.014 C 
HETATM   25  C14 UNL     1      21.602  -0.130  53.577  1.00  0.00     0.019 C 
HETATM   26  C15 UNL     1      22.430   0.547  52.760  1.00  0.00     0.098 C 
ENDBRANCH   5  20
TORSDOF 4
ENDMDL
MODEL 6
REMARK VINA RESULT:      -8.0      4.267      7.012
REMARK  4 active torsions:
REMARK  status: ('A' for Active; 'I' for Inactive)
REMARK    1  A    between atoms: C4_5  and  C5_6 
REMARK    2  A    between atoms: C5_6  and  N1_7 
REMARK    3  A    between atoms: N1_7  and  N2_8 
REMARK    4  A    between atoms: C9_12  and  N3_13 
ROOT
HETATM    1  N2  UNL     1      21.563   2.588  52.346  1.00  0.00    -0.265 N 
HETATM    2  C6  UNL     1      22.154   1.643  53.104  1.00  0.00     0.117 C 
HETATM    3  C7  UNL     1      22.933   0.525  52.890  1.00  0.00     0.023 C 
HETATM    4  C8  UNL     1      24.281   0.281  52.764  1.00  0.00     0.052 C 
HETATM    5  C9  UNL     1      25.195   1.247  52.423  1.00  0.00     0.135 C 
HETATM    6  N4  UNL     1      24.848   2.421  51.882  1.00  0.00    -0.224 NA
HETATM    7  C16 UNL     1      23.924   2.545  50.918  1.00  0.00     0.236 C 
HETATM    8  N5  UNL     1      23.079   3.564  50.903  1.00  0.00    -0.235 NA
HETATM    9  C17 UNL     1      22.052   3.714  51.746  1.00  0.00     0.232 C 
ENDROOT
BRANCH   1  10
HETATM   10  N1  UNL     1      20.235   2.249  52.215  1.00  0.00    -0.325 N 
HETATM   11  H5  UNL     1      19.847   2.845  53.006  1.00  0.00     0.181 HD
BRANCH  10  12
HETATM   12  C5  UNL     1      19.417   1.423  51.392  1.00  0.00     0.178 C 
BRANCH  12  13
HETATM   13  C4  UNL     1      18.869   0.222  52.054  1.00  0.00    -0.039 A 
HETATM   14  C3  UNL     1      19.356  -0.542  53.089  1.00  0.00     0.010 A 
HETATM   15  C2  UNL     1      18.623  -1.629  53.517  1.00  0.00     0.024 A 
HETATM   16  C1  UNL     1      17.441  -1.963  52.946  1.00  0.00     0.034 A 
HETATM   17 CL1  UNL     1      16.571  -3.366  53.559  1.00  0.00    -0.084 Cl
HETATM   18  C19 UNL     1      16.924  -1.223  51.909  1.00  0.00     0.024 A 
HETATM   19  C18 UNL     1      17.644  -0.139  51.474  1.00  0.00     0.010 A 
ENDBRANCH  12  13
ENDBRANCH  10  12
ENDBRANCH   1  10
BRANCH   5  20
HETATM   20  N3  UNL     1      26.565   0.985  52.665  1.00  0.00    -0.317 N 
HETATM   21  C10 UNL     1      27.443   2.060  52.965  1.00  0.00     0.111 C 
HETATM   22  C11 UNL     1      28.587   2.041  53.549  1.00  0.00     0.004 C 
HETATM   23  C12 UNL     1      29.351   1.097  53.800  1.00  0.00    -0.012 C 
HETATM   24  C13 UNL     1      29.116  -0.165  53.924  1.00  0.00     0.014 C 
HETATM   25  C14 UNL     1      28.108  -0.917  53.141  1.00  0.00     0.019 C 
HETATM   26  C15 UNL     1      26.994  -0.392  52.597  1.00  0.00     0.098 C 
ENDBRANCH   5  20
TORSDOF 4
ENDMDL
MODEL 7
REMARK VINA RESULT:      -7.9      2.977      7.186
REMARK  4 active torsions:
REMARK  status: ('A' for Active; 'I' for Inactive)
REMARK    1  A    between atoms: C4_5  and  C5_6 
REMARK    2  A    between atoms: C5_6  and  N1_7 
REMARK    3  A    between atoms: N1_7  and  N2_8 
REMARK    4  A    between atoms: C9_12  and  N3_13 
ROOT
HETATM    1  N2  UNL     1      22.840   2.861  51.921  1.00  0.00    -0.265 N 
HETATM    2  C6  UNL     1      24.113   3.124  52.278  1.00  0.00     0.117 C 
HETATM    3  C7  UNL     1      24.917   2.891  53.374  1.00  0.00     0.023 C 
HETATM    4  C8  UNL     1      25.744   1.870  53.782  1.00  0.00     0.052 C 
HETATM    5  C9  UNL     1      25.645   0.584  53.312  1.00  0.00     0.135 C 
HETATM    6  N4  UNL     1      24.566   0.124  52.668  1.00  0.00    -0.224 NA
HETATM    7  C16 UNL     1      23.308   0.389  53.052  1.00  0.00     0.236 C 
HETATM    8  N5  UNL     1      22.353   0.618  52.165  1.00  0.00    -0.235 NA
HETATM    9  C17 UNL     1      22.242   1.733  51.436  1.00  0.00     0.232 C 
ENDROOT
BRANCH   1  10
HETATM   10  N1  UNL     1      22.102   4.005  52.132  1.00  0.00    -0.325 N 
HETATM   11  H5  UNL     1      21.423   3.617  52.852  1.00  0.00     0.181 HD
BRANCH  10  12
HETATM   12  C5  UNL     1      22.065   5.354  51.677  1.00  0.00     0.178 C 
BRANCH  12  13
HETATM   13  C4  UNL     1      23.073   5.700  50.654  1.00  0.00    -0.039 A 
HETATM   14  C3  UNL     1      23.206   5.300  49.345  1.00  0.00     0.010 A 
HETATM   15  C2  UNL     1      24.262   5.790  48.604  1.00  0.00     0.024 A 
HETATM   16  C1  UNL     1      25.166   6.650  49.129  1.00  0.00     0.034 A 
HETATM   17 CL1  UNL     1      26.479   7.227  48.108  1.00  0.00    -0.084 Cl
HETATM   18  C19 UNL     1      25.064   7.071  50.434  1.00  0.00     0.024 A 
HETATM   19  C18 UNL     1      24.019   6.591  51.183  1.00  0.00     0.010 A 
ENDBRANCH  12  13
ENDBRANCH  10  12
ENDBRANCH   1  10
BRANCH   5  20
HETATM   20  N3  UNL     1      26.742  -0.288  53.516  1.00  0.00    -0.317 N 
HETATM   21  C10 UNL     1      26.738  -1.573  52.913  1.00  0.00     0.111 C 
HETATM   22  C11 UNL     1      27.722  -2.360  52.662  1.00  0.00     0.004 C 
HETATM   23  C12 UNL     1      28.893  -2.346  53.069  1.00  0.00    -0.012 C 
HETATM   24  C13 UNL     1      29.609  -1.380  53.537  1.00  0.00     0.014 C 
HETATM   25  C14 UNL     1      29.088  -0.266  54.362  1.00  0.00     0.019 C 
HETATM   26  C15 UNL     1      27.825   0.198  54.338  1.00  0.00     0.098 C 
ENDBRANCH   5  20
TORSDOF 4
ENDMDL
MODEL 8
REMARK VINA RESULT:      -7.8      3.699      7.509
REMARK  4 active torsions:
REMARK  status: ('A' for Active; 'I' for Inactive)
REMARK    1  A    between atoms: C4_5  and  C5_6 
REMARK    2  A    between atoms: C5_6  and  N1_7 
REMARK    3  A    between atoms: N1_7  and  N2_8 
REMARK    4  A    between atoms: C9_12  and  N3_13 
ROOT
HETATM    1  N2  UNL     1      26.598   6.837  49.168  1.00  0.00    -0.265 N 
HETATM    2  C6  UNL     1      26.729   5.565  48.743  1.00  0.00     0.117 C 
HETATM    3  C7  UNL     1      26.713   4.308  49.311  1.00  0.00     0.023 C 
HETATM    4  C8  UNL     1      25.742   3.379  49.604  1.00  0.00     0.052 C 
HETATM    5  C9  UNL     1      24.413   3.692  49.742  1.00  0.00     0.135 C 
HETATM    6  N4  UNL     1      23.974   4.944  49.917  1.00  0.00    -0.224 NA
HETATM    7  C16 UNL     1      24.565   5.827  50.736  1.00  0.00     0.236 C 
HETATM    8  N5  UNL     1      24.669   7.105  50.408  1.00  0.00    -0.235 NA
HETATM    9  C17 UNL     1      25.500   7.588  49.478  1.00  0.00     0.232 C 
ENDROOT
BRANCH   1  10
HETATM   10  N1  UNL     1      27.862   7.372  49.281  1.00  0.00    -0.325 N 
HETATM   11  H5  UNL     1      27.956   7.319  50.339  1.00  0.00     0.181 HD
BRANCH  10  12
HETATM   12  C5  UNL     1      28.887   7.885  48.435  1.00  0.00     0.178 C 
BRANCH  12  13
HETATM   13  C4  UNL     1      30.140   7.102  48.419  1.00  0.00    -0.039 A 
HETATM   14  C3  UNL     1      30.385   5.796  48.063  1.00  0.00     0.010 A 
HETATM   15  C2  UNL     1      31.676   5.316  48.145  1.00  0.00     0.024 A 
HETATM   16  C1  UNL     1      32.702   6.092  48.567  1.00  0.00     0.034 A 
HETATM   17 CL1  UNL     1      34.318   5.396  48.637  1.00  0.00    -0.084 Cl
HETATM   18  C19 UNL     1      32.494   7.402  48.931  1.00  0.00     0.024 A 
HETATM   19  C18 UNL     1      31.214   7.892  48.853  1.00  0.00     0.010 A 
ENDBRANCH  12  13
ENDBRANCH  10  12
ENDBRANCH   1  10
BRANCH   5  20
HETATM   20  N3  UNL     1      23.469   2.638  49.689  1.00  0.00    -0.317 N 
HETATM   21  C10 UNL     1      23.231   1.851  50.846  1.00  0.00     0.111 C 
HETATM   22  C11 UNL     1      22.218   1.117  51.139  1.00  0.00     0.004 C 
HETATM   23  C12 UNL     1      21.291   0.697  50.430  1.00  0.00    -0.012 C 
HETATM   24  C13 UNL     1      20.817   1.142  49.316  1.00  0.00     0.014 C 
HETATM   25  C14 UNL     1      21.624   1.777  48.248  1.00  0.00     0.019 C 
HETATM   26  C15 UNL     1      22.786   2.429  48.434  1.00  0.00     0.098 C 
ENDBRANCH   5  20
TORSDOF 4
ENDMDL
MODEL 9
REMARK VINA RESULT:      -7.6      2.580      3.795
REMARK  4 active torsions:
REMARK  status: ('A' for Active; 'I' for Inactive)
REMARK    1  A    between atoms: C4_5  and  C5_6 
REMARK    2  A    between atoms: C5_6  and  N1_7 
REMARK    3  A    between atoms: N1_7  and  N2_8 
REMARK    4  A    between atoms: C9_12  and  N3_13 
ROOT
HETATM    1  N2  UNL     1      23.617   4.432  51.038  1.00  0.00    -0.265 N 
HETATM    2  C6  UNL     1      24.847   4.112  50.589  1.00  0.00     0.117 C 
HETATM    3  C7  UNL     1      25.564   4.270  49.421  1.00  0.00     0.023 C 
HETATM    4  C8  UNL     1      26.384   5.244  48.901  1.00  0.00     0.052 C 
HETATM    5  C9  UNL     1      26.364   6.552  49.319  1.00  0.00     0.135 C 
HETATM    6  N4  UNL     1      25.357   7.075  50.028  1.00  0.00    -0.224 NA
HETATM    7  C16 UNL     1      24.064   6.837  49.762  1.00  0.00     0.236 C 
HETATM    8  N5  UNL     1      23.180   6.679  50.734  1.00  0.00    -0.235 NA
HETATM    9  C17 UNL     1      23.097   5.599  51.520  1.00  0.00     0.232 C 
ENDROOT
BRANCH   1  10
HETATM   10  N1  UNL     1      22.830   3.306  50.940  1.00  0.00    -0.325 N 
HETATM   11  H5  UNL     1      21.888   3.763  51.129  1.00  0.00     0.181 HD
BRANCH  10  12
HETATM   12  C5  UNL     1      22.981   1.914  50.682  1.00  0.00     0.178 C 
BRANCH  12  13
HETATM   13  C4  UNL     1      23.198   1.073  51.878  1.00  0.00    -0.039 A 
HETATM   14  C3  UNL     1      24.352   0.732  52.546  1.00  0.00     0.010 A 
HETATM   15  C2  UNL     1      24.262  -0.082  53.655  1.00  0.00     0.024 A 
HETATM   16  C1  UNL     1      23.073  -0.554  54.101  1.00  0.00     0.034 A 
HETATM   17 CL1  UNL     1      23.053  -1.585  55.528  1.00  0.00    -0.084 Cl
HETATM   18  C19 UNL     1      21.900  -0.234  53.458  1.00  0.00     0.024 A 
HETATM   19  C18 UNL     1      21.976   0.576  52.353  1.00  0.00     0.010 A 
ENDBRANCH  12  13
ENDBRANCH  10  12
ENDBRANCH   1  10
BRANCH   5  20
HETATM   20  N3  UNL     1      27.466   7.376  48.986  1.00  0.00    -0.317 N 
HETATM   21  C10 UNL     1      27.534   8.698  49.501  1.00  0.00     0.111 C 
HETATM   22  C11 UNL     1      28.552   9.470  49.635  1.00  0.00     0.004 C 
HETATM   23  C12 UNL     1      29.692   9.395  49.153  1.00  0.00    -0.012 C 
HETATM   24  C13 UNL     1      30.351   8.381  48.705  1.00  0.00     0.014 C 
HETATM   25  C14 UNL     1      29.749   7.232  47.991  1.00  0.00     0.019 C 
HETATM   26  C15 UNL     1      28.479   6.808  48.129  1.00  0.00     0.098 C 
ENDBRANCH   5  20
TORSDOF 4
ENDMDL
