MODEL 1
REMARK VINA RESULT:      -8.6      0.000      0.000
REMARK  0 active torsions:
REMARK  status: ('A' for Active; 'I' for Inactive)
ROOT
HETATM    1  C1  UNL     1      27.354   0.260  55.334  1.00  0.00     0.016 C 
HETATM    2  C2  UNL     1      26.712   0.359  53.967  1.00  0.00     0.028 C 
HETATM    3  C3  UNL     1      25.259   0.102  54.011  1.00  0.00    -0.002 C 
HETATM    4  C4  UNL     1      24.363   0.722  53.267  1.00  0.00     0.111 C 
HETATM    5  N1  UNL     1      24.795   1.713  52.347  1.00  0.00    -0.246 N 
HETATM    6  N2  UNL     1      24.051   2.696  51.704  1.00  0.00    -0.203 N 
HETATM    7  C5  UNL     1      22.895   3.119  52.007  1.00  0.00     0.219 A 
HETATM    8  N3  UNL     1      23.454   3.754  50.870  1.00  0.00    -0.133 NA
HETATM    9  C6  UNL     1      23.300   5.010  50.634  1.00  0.00     0.276 C 
HETATM   10  O1  UNL     1      24.076   4.458  49.607  1.00  0.00    -0.324 OA
HETATM   11  C7  UNL     1      25.313   4.926  49.221  1.00  0.00     0.079 A 
HETATM   12  C8  UNL     1      25.238   6.203  48.696  1.00  0.00     0.040 A 
HETATM   13  C9  UNL     1      26.377   6.862  48.246  1.00  0.00     0.045 A 
HETATM   14  C10 UNL     1      27.579   6.194  48.344  1.00  0.00     0.117 A 
HETATM   15  F1  UNL     1      28.749   6.729  47.940  1.00  0.00    -0.206 F 
HETATM   16  C11 UNL     1      27.671   4.921  48.864  1.00  0.00     0.054 A 
HETATM   17  C12 UNL     1      26.548   4.265  49.311  1.00  0.00     0.006 A 
HETATM   18  C13 UNL     1      26.402   2.902  49.909  1.00  0.00     0.314 C 
HETATM   19  N4  UNL     1      26.576   2.932  51.324  1.00  0.00     0.119 N 
HETATM   20  C14 UNL     1      26.236   1.728  52.009  1.00  0.00     0.264 C 
HETATM   21  C15 UNL     1      26.632   0.471  51.298  1.00  0.00     0.077 C 
HETATM   22  C16 UNL     1      26.928   1.729  53.356  1.00  0.00     0.150 C 
HETATM   23 CL1  UNL     1      28.655   2.107  53.205  1.00  0.00    -0.120 Cl
HETATM   24  H14 UNL     1      26.077   3.732  51.751  1.00  0.00     0.319 HD
ENDROOT
TORSDOF 0
ENDMDL
MODEL 2
REMARK VINA RESULT:      -8.4      3.746      6.936
REMARK  0 active torsions:
REMARK  status: ('A' for Active; 'I' for Inactive)
ROOT
HETATM    1  C1  UNL     1      24.635   7.111  49.814  1.00  0.00     0.016 C 
HETATM    2  C2  UNL     1      24.674   5.609  49.637  1.00  0.00     0.028 C 
HETATM    3  C3  UNL     1      26.045   5.105  49.429  1.00  0.00    -0.002 C 
HETATM    4  C4  UNL     1      26.506   3.961  49.898  1.00  0.00     0.111 C 
HETATM    5  N1  UNL     1      25.645   3.131  50.663  1.00  0.00    -0.246 N 
HETATM    6  N2  UNL     1      25.968   2.073  51.505  1.00  0.00    -0.203 N 
HETATM    7  C5  UNL     1      27.097   1.797  52.008  1.00  0.00     0.219 A 
HETATM    8  N3  UNL     1      26.073   0.890  52.377  1.00  0.00    -0.133 NA
HETATM    9  C6  UNL     1      25.987   0.385  53.558  1.00  0.00     0.276 C 
HETATM   10  O1  UNL     1      24.934  -0.117  52.784  1.00  0.00    -0.324 OA
HETATM   11  C7  UNL     1      23.602  -0.045  53.132  1.00  0.00     0.079 A 
HETATM   12  C8  UNL     1      23.329  -0.780  54.271  1.00  0.00     0.040 A 
HETATM   13  C9  UNL     1      22.043  -0.841  54.795  1.00  0.00     0.045 A 
HETATM   14  C10 UNL     1      21.054  -0.143  54.135  1.00  0.00     0.117 A 
HETATM   15  F1  UNL     1      19.770  -0.127  54.547  1.00  0.00    -0.206 F 
HETATM   16  C11 UNL     1      21.309   0.594  52.999  1.00  0.00     0.054 A 
HETATM   17  C12 UNL     1      22.580   0.658  52.477  1.00  0.00     0.006 A 
HETATM   18  C13 UNL     1      23.093   1.384  51.275  1.00  0.00     0.314 C 
HETATM   19  N4  UNL     1      23.486   2.716  51.598  1.00  0.00     0.119 N 
HETATM   20  C14 UNL     1      24.194   3.412  50.573  1.00  0.00     0.264 C 
HETATM   21  C15 UNL     1      23.686   3.167  49.187  1.00  0.00     0.077 C 
HETATM   22  C16 UNL     1      24.092   4.899  50.842  1.00  0.00     0.150 C 
HETATM   23 CL1  UNL     1      22.414   5.396  51.142  1.00  0.00    -0.120 Cl
HETATM   24  H14 UNL     1      24.025   2.748  52.481  1.00  0.00     0.319 HD
ENDROOT
TORSDOF 0
ENDMDL
MODEL 3
REMARK VINA RESULT:      -8.2      2.337      3.591
REMARK  0 active torsions:
REMARK  status: ('A' for Active; 'I' for Inactive)
ROOT
HETATM    1  C1  UNL     1      24.020   1.576  53.091  1.00  0.00     0.016 C 
HETATM    2  C2  UNL     1      23.969   2.466  51.868  1.00  0.00     0.028 C 
HETATM    3  C3  UNL     1      22.917   3.497  51.968  1.00  0.00    -0.002 C 
HETATM    4  C4  UNL     1      23.024   4.729  51.508  1.00  0.00     0.111 C 
HETATM    5  N1  UNL     1      24.226   5.123  50.863  1.00  0.00    -0.246 N 
HETATM    6  N2  UNL     1      24.693   6.403  50.586  1.00  0.00    -0.203 N 
HETATM    7  C5  UNL     1      24.309   7.497  51.096  1.00  0.00     0.219 A 
HETATM    8  N3  UNL     1      25.339   7.648  50.134  1.00  0.00    -0.133 NA
HETATM    9  C6  UNL     1      26.293   8.501  50.269  1.00  0.00     0.276 C 
HETATM   10  O1  UNL     1      26.481   7.813  49.064  1.00  0.00    -0.324 OA
HETATM   11  C7  UNL     1      27.638   7.149  48.714  1.00  0.00     0.079 A 
HETATM   12  C8  UNL     1      28.705   8.017  48.572  1.00  0.00     0.040 A 
HETATM   13  C9  UNL     1      29.967   7.551  48.221  1.00  0.00     0.045 A 
HETATM   14  C10 UNL     1      30.111   6.194  48.023  1.00  0.00     0.117 A 
HETATM   15  F1  UNL     1      31.285   5.626  47.681  1.00  0.00    -0.206 F 
HETATM   16  C11 UNL     1      29.059   5.316  48.161  1.00  0.00     0.054 A 
HETATM   17  C12 UNL     1      27.809   5.771  48.507  1.00  0.00     0.006 A 
HETATM   18  C13 UNL     1      26.533   5.020  48.716  1.00  0.00     0.314 C 
HETATM   19  N4  UNL     1      26.407   4.568  50.063  1.00  0.00     0.119 N 
HETATM   20  C14 UNL     1      25.131   4.039  50.415  1.00  0.00     0.264 C 
HETATM   21  C15 UNL     1      24.483   3.207  49.352  1.00  0.00     0.077 C 
HETATM   22  C16 UNL     1      25.293   3.167  51.643  1.00  0.00     0.150 C 
HETATM   23 CL1  UNL     1      26.620   2.004  51.449  1.00  0.00    -0.120 Cl
HETATM   24  H14 UNL     1      26.681   5.304  50.736  1.00  0.00     0.319 HD
ENDROOT
TORSDOF 0
ENDMDL
MODEL 4
REMARK VINA RESULT:      -8.2      4.092      6.245
REMARK  0 active torsions:
REMARK  status: ('A' for Active; 'I' for Inactive)
ROOT
HETATM    1  C1  UNL     1      17.396  -0.006  50.002  1.00  0.00     0.016 C 
HETATM    2  C2  UNL     1      18.287   0.542  51.096  1.00  0.00     0.028 C 
HETATM    3  C3  UNL     1      18.214  -0.261  52.333  1.00  0.00    -0.002 C 
HETATM    4  C4  UNL     1      19.233  -0.502  53.135  1.00  0.00     0.111 C 
HETATM    5  N1  UNL     1      20.507   0.036  52.814  1.00  0.00    -0.246 N 
HETATM    6  N2  UNL     1      21.758  -0.320  53.303  1.00  0.00    -0.203 N 
HETATM    7  C5  UNL     1      22.080  -1.384  53.912  1.00  0.00     0.219 A 
HETATM    8  N3  UNL     1      23.159  -0.483  53.732  1.00  0.00    -0.133 NA
HETATM    9  C6  UNL     1      24.352  -0.879  53.457  1.00  0.00     0.276 C 
HETATM   10  O1  UNL     1      24.355   0.520  53.533  1.00  0.00    -0.324 OA
HETATM   11  C7  UNL     1      24.813   1.357  52.537  1.00  0.00     0.079 A 
HETATM   12  C8  UNL     1      26.171   1.205  52.324  1.00  0.00     0.040 A 
HETATM   13  C9  UNL     1      26.834   1.957  51.361  1.00  0.00     0.045 A 
HETATM   14  C10 UNL     1      26.087   2.856  50.630  1.00  0.00     0.117 A 
HETATM   15  F1  UNL     1      26.618   3.640  49.670  1.00  0.00    -0.206 F 
HETATM   16  C11 UNL     1      24.734   3.020  50.830  1.00  0.00     0.054 A 
HETATM   17  C12 UNL     1      24.073   2.279  51.782  1.00  0.00     0.006 A 
HETATM   18  C13 UNL     1      22.629   2.279  52.172  1.00  0.00     0.314 C 
HETATM   19  N4  UNL     1      21.873   1.369  51.376  1.00  0.00     0.119 N 
HETATM   20  C14 UNL     1      20.537   1.132  51.817  1.00  0.00     0.264 C 
HETATM   21  C15 UNL     1      19.825   2.344  52.333  1.00  0.00     0.077 C 
HETATM   22  C16 UNL     1      19.735   0.590  50.653  1.00  0.00     0.150 C 
HETATM   23 CL1  UNL     1      19.937   1.587  49.199  1.00  0.00    -0.120 Cl
HETATM   24  H14 UNL     1      22.369   0.468  51.257  1.00  0.00     0.319 HD
ENDROOT
TORSDOF 0
ENDMDL
MODEL 5
REMARK VINA RESULT:      -8.0      4.351      6.415
REMARK  0 active torsions:
REMARK  status: ('A' for Active; 'I' for Inactive)
ROOT
HETATM    1  C1  UNL     1      27.789   0.504  52.676  1.00  0.00     0.016 C 
HETATM    2  C2  UNL     1      26.591   1.422  52.575  1.00  0.00     0.028 C 
HETATM    3  C3  UNL     1      26.724   2.399  51.477  1.00  0.00    -0.002 C 
HETATM    4  C4  UNL     1      25.730   2.818  50.717  1.00  0.00     0.111 C 
HETATM    5  N1  UNL     1      24.424   2.311  50.947  1.00  0.00    -0.246 N 
HETATM    6  N2  UNL     1      23.310   2.349  50.116  1.00  0.00    -0.203 N 
HETATM    7  C5  UNL     1      23.279   2.573  48.869  1.00  0.00     0.219 A 
HETATM    8  N3  UNL     1      22.002   2.338  49.438  1.00  0.00    -0.133 NA
HETATM    9  C6  UNL     1      21.086   1.669  48.830  1.00  0.00     0.276 C 
HETATM   10  O1  UNL     1      20.585   2.079  50.072  1.00  0.00    -0.324 OA
HETATM   11  C7  UNL     1      20.043   1.233  51.015  1.00  0.00     0.079 A 
HETATM   12  C8  UNL     1      18.881   0.636  50.563  1.00  0.00     0.040 A 
HETATM   13  C9  UNL     1      18.173  -0.255  51.362  1.00  0.00     0.045 A 
HETATM   14  C10 UNL     1      18.675  -0.519  52.618  1.00  0.00     0.117 A 
HETATM   15  F1  UNL     1      18.078  -1.364  53.482  1.00  0.00    -0.206 F 
HETATM   16  C11 UNL     1      19.832   0.067  53.085  1.00  0.00     0.054 A 
HETATM   17  C12 UNL     1      20.535   0.949  52.299  1.00  0.00     0.006 A 
HETATM   18  C13 UNL     1      21.799   1.696  52.582  1.00  0.00     0.314 C 
HETATM   19  N4  UNL     1      22.949   0.933  52.223  1.00  0.00     0.119 N 
HETATM   20  C14 UNL     1      24.187   1.641  52.246  1.00  0.00     0.264 C 
HETATM   21  C15 UNL     1      24.334   2.606  53.381  1.00  0.00     0.077 C 
HETATM   22  C16 UNL     1      25.315   0.635  52.350  1.00  0.00     0.150 C 
HETATM   23 CL1  UNL     1      25.032  -0.532  53.657  1.00  0.00    -0.120 Cl
HETATM   24  H14 UNL     1      22.825   0.470  51.306  1.00  0.00     0.319 HD
ENDROOT
TORSDOF 0
ENDMDL
MODEL 6
REMARK VINA RESULT:      -7.9      3.438      6.017
REMARK  0 active torsions:
REMARK  status: ('A' for Active; 'I' for Inactive)
ROOT
HETATM    1  C1  UNL     1      21.980   5.937  49.244  1.00  0.00     0.016 C 
HETATM    2  C2  UNL     1      22.187   5.360  50.627  1.00  0.00     0.028 C 
HETATM    3  C3  UNL     1      20.971   4.704  51.148  1.00  0.00    -0.002 C 
HETATM    4  C4  UNL     1      20.964   3.611  51.888  1.00  0.00     0.111 C 
HETATM    5  N1  UNL     1      22.199   2.998  52.226  1.00  0.00    -0.246 N 
HETATM    6  N2  UNL     1      22.438   1.715  52.705  1.00  0.00    -0.203 N 
HETATM    7  C5  UNL     1      21.660   0.715  52.671  1.00  0.00     0.219 A 
HETATM    8  N3  UNL     1      22.910   0.442  53.279  1.00  0.00    -0.133 NA
HETATM    9  C6  UNL     1      23.531  -0.673  53.114  1.00  0.00     0.276 C 
HETATM   10  O1  UNL     1      24.299   0.142  53.955  1.00  0.00    -0.324 OA
HETATM   11  C7  UNL     1      25.620   0.471  53.734  1.00  0.00     0.079 A 
HETATM   12  C8  UNL     1      26.442  -0.639  53.792  1.00  0.00     0.040 A 
HETATM   13  C9  UNL     1      27.814  -0.527  53.597  1.00  0.00     0.045 A 
HETATM   14  C10 UNL     1      28.319   0.731  53.344  1.00  0.00     0.117 A 
HETATM   15  F1  UNL     1      29.631   0.965  53.139  1.00  0.00    -0.206 F 
HETATM   16  C11 UNL     1      27.514   1.847  53.283  1.00  0.00     0.054 A 
HETATM   17  C12 UNL     1      26.157   1.742  53.476  1.00  0.00     0.006 A 
HETATM   18  C13 UNL     1      25.095   2.795  53.455  1.00  0.00     0.314 C 
HETATM   19  N4  UNL     1      24.586   2.996  52.138  1.00  0.00     0.119 N 
HETATM   20  C14 UNL     1      23.421   3.815  52.050  1.00  0.00     0.264 C 
HETATM   21  C15 UNL     1      23.414   4.993  52.972  1.00  0.00     0.077 C 
HETATM   22  C16 UNL     1      23.309   4.341  50.634  1.00  0.00     0.150 C 
HETATM   23 CL1  UNL     1      24.836   5.053  50.077  1.00  0.00    -0.120 Cl
HETATM   24  H14 UNL     1      24.421   2.096  51.654  1.00  0.00     0.319 HD
ENDROOT
TORSDOF 0
ENDMDL
MODEL 7
REMARK VINA RESULT:      -7.9      3.649      6.935
REMARK  0 active torsions:
REMARK  status: ('A' for Active; 'I' for Inactive)
ROOT
HETATM    1  C1  UNL     1      21.289   6.743  50.157  1.00  0.00     0.016 C 
HETATM    2  C2  UNL     1      21.917   5.411  49.807  1.00  0.00     0.028 C 
HETATM    3  C3  UNL     1      23.116   5.564  48.959  1.00  0.00    -0.002 C 
HETATM    4  C4  UNL     1      24.196   4.810  49.040  1.00  0.00     0.111 C 
HETATM    5  N1  UNL     1      24.240   3.768  50.003  1.00  0.00    -0.246 N 
HETATM    6  N2  UNL     1      25.339   3.067  50.487  1.00  0.00    -0.203 N 
HETATM    7  C5  UNL     1      26.562   3.388  50.407  1.00  0.00     0.219 A 
HETATM    8  N3  UNL     1      26.340   2.161  51.079  1.00  0.00    -0.133 NA
HETATM    9  C6  UNL     1      27.022   1.802  52.109  1.00  0.00     0.276 C 
HETATM   10  O1  UNL     1      26.089   0.798  51.824  1.00  0.00    -0.324 OA
HETATM   11  C7  UNL     1      25.178   0.296  52.729  1.00  0.00     0.079 A 
HETATM   12  C8  UNL     1      25.800  -0.356  53.777  1.00  0.00     0.040 A 
HETATM   13  C9  UNL     1      25.061  -0.937  54.801  1.00  0.00     0.045 A 
HETATM   14  C10 UNL     1      23.688  -0.837  54.730  1.00  0.00     0.117 A 
HETATM   15  F1  UNL     1      22.867  -1.360  55.663  1.00  0.00    -0.206 F 
HETATM   16  C11 UNL     1      23.052  -0.191  53.693  1.00  0.00     0.054 A 
HETATM   17  C12 UNL     1      23.778   0.385  52.677  1.00  0.00     0.006 A 
HETATM   18  C13 UNL     1      23.317   1.131  51.466  1.00  0.00     0.314 C 
HETATM   19  N4  UNL     1      23.166   2.523  51.736  1.00  0.00     0.119 N 
HETATM   20  C14 UNL     1      22.948   3.349  50.594  1.00  0.00     0.264 C 
HETATM   21  C15 UNL     1      22.052   2.754  49.554  1.00  0.00     0.077 C 
HETATM   22  C16 UNL     1      22.319   4.648  51.053  1.00  0.00     0.150 C 
HETATM   23 CL1  UNL     1      20.926   4.361  52.115  1.00  0.00    -0.120 Cl
HETATM   24  H14 UNL     1      23.960   2.890  52.289  1.00  0.00     0.319 HD
ENDROOT
TORSDOF 0
ENDMDL
MODEL 8
REMARK VINA RESULT:      -7.9      2.593      3.328
REMARK  0 active torsions:
REMARK  status: ('A' for Active; 'I' for Inactive)
ROOT
HETATM    1  C1  UNL     1      21.934  -0.618  54.861  1.00  0.00     0.016 C 
HETATM    2  C2  UNL     1      21.700  -0.027  53.488  1.00  0.00     0.028 C 
HETATM    3  C3  UNL     1      20.385   0.635  53.379  1.00  0.00    -0.002 C 
HETATM    4  C4  UNL     1      20.150   1.734  52.689  1.00  0.00     0.111 C 
HETATM    5  N1  UNL     1      21.219   2.350  51.987  1.00  0.00    -0.246 N 
HETATM    6  N2  UNL     1      21.301   3.637  51.468  1.00  0.00    -0.203 N 
HETATM    7  C5  UNL     1      20.576   4.637  51.753  1.00  0.00     0.219 A 
HETATM    8  N3  UNL     1      21.574   4.915  50.786  1.00  0.00    -0.133 NA
HETATM    9  C6  UNL     1      22.219   6.028  50.758  1.00  0.00     0.276 C 
HETATM   10  O1  UNL     1      22.682   5.220  49.711  1.00  0.00    -0.324 OA
HETATM   11  C7  UNL     1      24.004   4.888  49.504  1.00  0.00     0.079 A 
HETATM   12  C8  UNL     1      24.771   5.998  49.202  1.00  0.00     0.040 A 
HETATM   13  C9  UNL     1      26.135   5.883  48.957  1.00  0.00     0.045 A 
HETATM   14  C10 UNL     1      26.690   4.622  49.027  1.00  0.00     0.117 A 
HETATM   15  F1  UNL     1      27.999   4.386  48.809  1.00  0.00    -0.206 F 
HETATM   16  C11 UNL     1      25.940   3.506  49.327  1.00  0.00     0.054 A 
HETATM   17  C12 UNL     1      24.591   3.615  49.571  1.00  0.00     0.006 A 
HETATM   18  C13 UNL     1      23.586   2.562  49.914  1.00  0.00     0.314 C 
HETATM   19  N4  UNL     1      23.514   2.349  51.322  1.00  0.00     0.119 N 
HETATM   20  C14 UNL     1      22.432   1.530  51.764  1.00  0.00     0.264 C 
HETATM   21  C15 UNL     1      22.132   0.360  50.879  1.00  0.00     0.077 C 
HETATM   22  C16 UNL     1      22.767   0.991  53.139  1.00  0.00     0.150 C 
HETATM   23 CL1  UNL     1      24.389   0.272  53.183  1.00  0.00    -0.120 Cl
HETATM   24  H14 UNL     1      23.511   3.244  51.841  1.00  0.00     0.319 HD
ENDROOT
TORSDOF 0
ENDMDL
MODEL 9
REMARK VINA RESULT:      -7.7      4.046      6.902
REMARK  0 active torsions:
REMARK  status: ('A' for Active; 'I' for Inactive)
ROOT
HETATM    1  C1  UNL     1      26.841   4.273  49.144  1.00  0.00     0.016 C 
HETATM    2  C2  UNL     1      25.500   4.540  49.792  1.00  0.00     0.028 C 
HETATM    3  C3  UNL     1      24.578   5.263  48.894  1.00  0.00    -0.002 C 
HETATM    4  C4  UNL     1      23.275   5.063  48.832  1.00  0.00     0.111 C 
HETATM    5  N1  UNL     1      22.686   4.086  49.677  1.00  0.00    -0.246 N 
HETATM    6  N2  UNL     1      21.437   3.484  49.583  1.00  0.00    -0.203 N 
HETATM    7  C5  UNL     1      20.667   3.444  48.577  1.00  0.00     0.219 A 
HETATM    8  N3  UNL     1      20.148   2.781  49.717  1.00  0.00    -0.133 NA
HETATM    9  C6  UNL     1      19.484   1.682  49.635  1.00  0.00     0.276 C 
HETATM   10  O1  UNL     1      19.573   2.047  50.984  1.00  0.00    -0.324 OA
HETATM   11  C7  UNL     1      20.060   1.233  51.985  1.00  0.00     0.079 A 
HETATM   12  C8  UNL     1      19.264   0.119  52.173  1.00  0.00     0.040 A 
HETATM   13  C9  UNL     1      19.577  -0.833  53.137  1.00  0.00     0.045 A 
HETATM   14  C10 UNL     1      20.710  -0.621  53.895  1.00  0.00     0.117 A 
HETATM   15  F1  UNL     1      21.115  -1.473  54.858  1.00  0.00    -0.206 F 
HETATM   16  C11 UNL     1      21.514   0.484  53.720  1.00  0.00     0.054 A 
HETATM   17  C12 UNL     1      21.208   1.428  52.769  1.00  0.00     0.006 A 
HETATM   18  C13 UNL     1      21.920   2.690  52.399  1.00  0.00     0.314 C 
HETATM   19  N4  UNL     1      22.918   2.455  51.407  1.00  0.00     0.119 N 
HETATM   20  C14 UNL     1      23.495   3.624  50.829  1.00  0.00     0.264 C 
HETATM   21  C15 UNL     1      23.740   4.742  51.793  1.00  0.00     0.077 C 
HETATM   22  C16 UNL     1      24.827   3.249  50.213  1.00  0.00     0.150 C 
HETATM   23 CL1  UNL     1      25.837   2.331  51.348  1.00  0.00    -0.120 Cl
HETATM   24  H14 UNL     1      22.569   1.829  50.660  1.00  0.00     0.319 HD
ENDROOT
TORSDOF 0
ENDMDL
