MODEL 1
REMARK VINA RESULT:      -8.3      0.000      0.000
REMARK  5 active torsions:
REMARK  status: ('A' for Active; 'I' for Inactive)
REMARK    1  A    between atoms: N1_4  and  C4_5 
REMARK    2  A    between atoms: C5_6  and  C6_7 
REMARK    3  A    between atoms: C6_7  and  C7_8 
REMARK    4  A    between atoms: C8_9  and  C9_10 
REMARK    5  A    between atoms: N2_16  and  N3_17 
ROOT
HETATM    1  C4  UNL     1      24.542   2.593  52.555  1.00  0.00     0.146 A 
HETATM    2  C5  UNL     1      24.173   3.212  51.438  1.00  0.00     0.079 A 
HETATM    3  N2  UNL     1      24.081   3.940  52.657  1.00  0.00    -0.262 N 
ENDROOT
BRANCH   1   4
HETATM    4  N1  UNL     1      25.032   1.489  53.307  1.00  0.00    -0.356 N 
HETATM    5  C3  UNL     1      26.391   1.447  53.821  1.00  0.00     0.135 C 
HETATM    6  C2  UNL     1      27.115   0.379  53.043  1.00  0.00     0.044 C 
HETATM    7  C1  UNL     1      28.506   0.163  53.602  1.00  0.00     0.017 C 
HETATM    8  C18 UNL     1      26.358  -0.893  52.967  1.00  0.00     0.015 C 
HETATM    9  C17 UNL     1      25.062  -0.861  53.253  1.00  0.00     0.018 C 
HETATM   10 CL1  UNL     1      27.207  -2.359  52.508  1.00  0.00    -0.089 Cl
HETATM   11  C15 UNL     1      24.274   0.315  53.644  1.00  0.00     0.106 C 
HETATM   12  C16 UNL     1      22.858   0.302  53.169  1.00  0.00     0.037 C 
ENDBRANCH   1   4
BRANCH   2  13
HETATM   13  C6  UNL     1      23.940   3.316  49.969  1.00  0.00     0.090 C 
BRANCH  13  14
HETATM   14  C7  UNL     1      24.811   4.292  49.300  1.00  0.00    -0.020 C 
HETATM   15  C8  UNL     1      26.118   4.468  49.406  1.00  0.00     0.007 C 
BRANCH  15  16
HETATM   16  C9  UNL     1      26.953   5.454  48.722  1.00  0.00    -0.036 A 
HETATM   17  C10 UNL     1      26.386   6.630  48.308  1.00  0.00     0.011 A 
HETATM   18  C11 UNL     1      27.260   7.498  47.670  1.00  0.00     0.001 A 
HETATM   19  C12 UNL     1      28.612   7.233  47.448  1.00  0.00     0.000 A 
HETATM   20  C13 UNL     1      29.103   6.033  47.895  1.00  0.00     0.001 A 
HETATM   21  C14 UNL     1      28.280   5.145  48.529  1.00  0.00     0.011 A 
ENDBRANCH  15  16
ENDBRANCH  13  14
ENDBRANCH   2  13
BRANCH   3  22
HETATM   22  N3  UNL     1      23.766   5.111  53.387  1.00  0.00    -0.241 NA
HETATM   23  H16 UNL     1      22.989   4.845  54.046  1.00  0.00     0.143 HD
HETATM   24  H17 UNL     1      23.276   5.737  52.681  1.00  0.00     0.143 HD
ENDBRANCH   3  22
TORSDOF 5
ENDMDL
MODEL 2
REMARK VINA RESULT:      -8.1      1.468      2.014
REMARK  5 active torsions:
REMARK  status: ('A' for Active; 'I' for Inactive)
REMARK    1  A    between atoms: N1_4  and  C4_5 
REMARK    2  A    between atoms: C5_6  and  C6_7 
REMARK    3  A    between atoms: C6_7  and  C7_8 
REMARK    4  A    between atoms: C8_9  and  C9_10 
REMARK    5  A    between atoms: N2_16  and  N3_17 
ROOT
HETATM    1  C4  UNL     1      22.901   2.040  52.162  1.00  0.00     0.146 A 
HETATM    2  C5  UNL     1      22.444   2.414  50.970  1.00  0.00     0.079 A 
HETATM    3  N2  UNL     1      21.613   2.653  52.100  1.00  0.00    -0.262 N 
ENDROOT
BRANCH   1   4
HETATM    4  N1  UNL     1      23.859   1.471  53.047  1.00  0.00    -0.356 N 
HETATM    5  C3  UNL     1      25.048   2.195  53.466  1.00  0.00     0.135 C 
HETATM    6  C2  UNL     1      26.223   1.506  52.823  1.00  0.00     0.044 C 
HETATM    7  C1  UNL     1      27.526   2.105  53.313  1.00  0.00     0.017 C 
HETATM    8  C18 UNL     1      26.201   0.036  53.005  1.00  0.00     0.015 C 
HETATM    9  C17 UNL     1      25.055  -0.527  53.371  1.00  0.00     0.018 C 
HETATM   10 CL1  UNL     1      27.677  -0.875  52.732  1.00  0.00    -0.089 Cl
HETATM   11  C15 UNL     1      23.779   0.155  53.620  1.00  0.00     0.106 C 
HETATM   12  C16 UNL     1      22.568  -0.636  53.251  1.00  0.00     0.037 C 
ENDBRANCH   1   4
BRANCH   2  13
HETATM   13  C6  UNL     1      22.518   2.579  49.490  1.00  0.00     0.090 C 
BRANCH  13  14
HETATM   14  C7  UNL     1      23.730   3.271  49.033  1.00  0.00    -0.020 C 
HETATM   15  C8  UNL     1      24.471   4.175  49.653  1.00  0.00     0.007 C 
BRANCH  15  16
HETATM   16  C9  UNL     1      25.676   4.844  49.165  1.00  0.00    -0.036 A 
HETATM   17  C10 UNL     1      26.856   4.148  49.141  1.00  0.00     0.011 A 
HETATM   18  C11 UNL     1      27.939   4.869  48.661  1.00  0.00     0.001 A 
HETATM   19  C12 UNL     1      27.875   6.195  48.228  1.00  0.00     0.000 A 
HETATM   20  C13 UNL     1      26.656   6.819  48.284  1.00  0.00     0.001 A 
HETATM   21  C14 UNL     1      25.558   6.150  48.749  1.00  0.00     0.011 A 
ENDBRANCH  15  16
ENDBRANCH  13  14
ENDBRANCH   2  13
BRANCH   3  22
HETATM   22  N3  UNL     1      20.419   3.134  52.688  1.00  0.00    -0.241 NA
HETATM   23  H16 UNL     1      20.585   3.137  53.727  1.00  0.00     0.143 HD
HETATM   24  H17 UNL     1      19.724   2.340  52.559  1.00  0.00     0.143 HD
ENDBRANCH   3  22
TORSDOF 5
ENDMDL
MODEL 3
REMARK VINA RESULT:      -8.0      3.650      5.074
REMARK  5 active torsions:
REMARK  status: ('A' for Active; 'I' for Inactive)
REMARK    1  A    between atoms: N1_4  and  C4_5 
REMARK    2  A    between atoms: C5_6  and  C6_7 
REMARK    3  A    between atoms: C6_7  and  C7_8 
REMARK    4  A    between atoms: C8_9  and  C9_10 
REMARK    5  A    between atoms: N2_16  and  N3_17 
ROOT
HETATM    1  C4  UNL     1      24.144  -0.282  53.630  1.00  0.00     0.146 A 
HETATM    2  C5  UNL     1      22.835  -0.517  53.616  1.00  0.00     0.079 A 
HETATM    3  N2  UNL     1      23.577  -0.979  54.739  1.00  0.00    -0.262 N 
ENDROOT
BRANCH   1   4
HETATM    4  N1  UNL     1      25.361   0.228  53.097  1.00  0.00    -0.356 N 
HETATM    5  C3  UNL     1      26.457  -0.642  52.705  1.00  0.00     0.135 C 
HETATM    6  C2  UNL     1      27.570  -0.407  53.692  1.00  0.00     0.044 C 
HETATM    7  C1  UNL     1      28.814  -1.171  53.286  1.00  0.00     0.017 C 
HETATM    8  C18 UNL     1      27.862   1.030  53.902  1.00  0.00     0.015 C 
HETATM    9  C17 UNL     1      26.948   1.912  53.512  1.00  0.00     0.018 C 
HETATM   10 CL1  UNL     1      29.384   1.488  54.646  1.00  0.00    -0.089 Cl
HETATM   11  C15 UNL     1      25.653   1.620  52.884  1.00  0.00     0.106 C 
HETATM   12  C16 UNL     1      24.559   2.571  53.243  1.00  0.00     0.037 C 
ENDBRANCH   1   4
BRANCH   2  13
HETATM   13  C6  UNL     1      21.462  -0.462  53.037  1.00  0.00     0.090 C 
BRANCH  13  14
HETATM   14  C7  UNL     1      21.379   0.308  51.789  1.00  0.00    -0.020 C 
HETATM   15  C8  UNL     1      22.340   0.897  51.095  1.00  0.00     0.007 C 
BRANCH  15  16
HETATM   16  C9  UNL     1      22.218   1.658  49.852  1.00  0.00    -0.036 A 
HETATM   17  C10 UNL     1      21.255   1.298  48.947  1.00  0.00     0.011 A 
HETATM   18  C11 UNL     1      21.221   2.080  47.802  1.00  0.00     0.001 A 
HETATM   19  C12 UNL     1      22.077   3.153  47.554  1.00  0.00     0.000 A 
HETATM   20  C13 UNL     1      23.013   3.449  48.512  1.00  0.00     0.001 A 
HETATM   21  C14 UNL     1      23.086   2.707  49.657  1.00  0.00     0.011 A 
ENDBRANCH  15  16
ENDBRANCH  13  14
ENDBRANCH   2  13
BRANCH   3  22
HETATM   22  N3  UNL     1      23.662  -1.632  55.992  1.00  0.00    -0.241 NA
HETATM   23  H16 UNL     1      24.216  -2.511  55.826  1.00  0.00     0.143 HD
HETATM   24  H17 UNL     1      22.679  -1.998  56.165  1.00  0.00     0.143 HD
ENDBRANCH   3  22
TORSDOF 5
ENDMDL
MODEL 4
REMARK VINA RESULT:      -7.9      1.432      2.494
REMARK  5 active torsions:
REMARK  status: ('A' for Active; 'I' for Inactive)
REMARK    1  A    between atoms: N1_4  and  C4_5 
REMARK    2  A    between atoms: C5_6  and  C6_7 
REMARK    3  A    between atoms: C6_7  and  C7_8 
REMARK    4  A    between atoms: C8_9  and  C9_10 
REMARK    5  A    between atoms: N2_16  and  N3_17 
ROOT
HETATM    1  C4  UNL     1      23.950   3.331  51.467  1.00  0.00     0.146 A 
HETATM    2  C5  UNL     1      23.696   4.427  50.757  1.00  0.00     0.079 A 
HETATM    3  N2  UNL     1      23.787   4.562  52.171  1.00  0.00    -0.262 N 
ENDROOT
BRANCH   1   4
HETATM    4  N1  UNL     1      24.211   1.942  51.631  1.00  0.00    -0.356 N 
HETATM    5  C3  UNL     1      23.145   0.976  51.839  1.00  0.00     0.135 C 
HETATM    6  C2  UNL     1      23.276   0.485  53.257  1.00  0.00     0.044 C 
HETATM    7  C1  UNL     1      22.290  -0.633  53.528  1.00  0.00     0.017 C 
HETATM    8  C18 UNL     1      24.659   0.084  53.604  1.00  0.00     0.015 C 
HETATM    9  C17 UNL     1      25.643   0.502  52.816  1.00  0.00     0.018 C 
HETATM   10 CL1  UNL     1      24.922  -0.915  55.023  1.00  0.00    -0.089 Cl
HETATM   11  C15 UNL     1      25.514   1.337  51.614  1.00  0.00     0.106 C 
HETATM   12  C16 UNL     1      26.656   2.270  51.380  1.00  0.00     0.037 C 
ENDBRANCH   1   4
BRANCH   2  13
HETATM   13  C6  UNL     1      23.458   5.194  49.501  1.00  0.00     0.090 C 
BRANCH  13  14
HETATM   14  C7  UNL     1      24.688   5.694  48.873  1.00  0.00    -0.020 C 
HETATM   15  C8  UNL     1      25.952   5.461  49.188  1.00  0.00     0.007 C 
BRANCH  15  16
HETATM   16  C9  UNL     1      27.155   5.978  48.537  1.00  0.00    -0.036 A 
HETATM   17  C10 UNL     1      27.102   7.203  47.926  1.00  0.00     0.011 A 
HETATM   18  C11 UNL     1      28.292   7.604  47.338  1.00  0.00     0.001 A 
HETATM   19  C12 UNL     1      29.468   6.852  47.345  1.00  0.00     0.000 A 
HETATM   20  C13 UNL     1      29.437   5.637  47.978  1.00  0.00     0.001 A 
HETATM   21  C14 UNL     1      28.287   5.198  48.572  1.00  0.00     0.011 A 
ENDBRANCH  15  16
ENDBRANCH  13  14
ENDBRANCH   2  13
BRANCH   3  22
HETATM   22  N3  UNL     1      23.745   5.340  53.352  1.00  0.00    -0.241 NA
HETATM   23  H16 UNL     1      24.746   5.555  53.598  1.00  0.00     0.143 HD
HETATM   24  H17 UNL     1      23.454   4.653  54.110  1.00  0.00     0.143 HD
ENDBRANCH   3  22
TORSDOF 5
ENDMDL
MODEL 5
REMARK VINA RESULT:      -7.9      3.215      7.583
REMARK  5 active torsions:
REMARK  status: ('A' for Active; 'I' for Inactive)
REMARK    1  A    between atoms: N1_4  and  C4_5 
REMARK    2  A    between atoms: C5_6  and  C6_7 
REMARK    3  A    between atoms: C6_7  and  C7_8 
REMARK    4  A    between atoms: C8_9  and  C9_10 
REMARK    5  A    between atoms: N2_16  and  N3_17 
ROOT
HETATM    1  C4  UNL     1      25.371   2.363  52.653  1.00  0.00     0.146 A 
HETATM    2  C5  UNL     1      25.461   1.198  53.288  1.00  0.00     0.079 A 
HETATM    3  N2  UNL     1      26.515   2.136  53.476  1.00  0.00    -0.262 N 
ENDROOT
BRANCH   1   4
HETATM    4  N1  UNL     1      24.746   3.310  51.793  1.00  0.00    -0.356 N 
HETATM    5  C3  UNL     1      23.551   4.037  52.185  1.00  0.00     0.135 C 
HETATM    6  C2  UNL     1      22.427   3.519  51.326  1.00  0.00     0.044 C 
HETATM    7  C1  UNL     1      21.161   4.316  51.565  1.00  0.00     0.017 C 
HETATM    8  C18 UNL     1      22.776   3.473  49.887  1.00  0.00     0.015 C 
HETATM    9  C17 UNL     1      24.060   3.541  49.557  1.00  0.00     0.018 C 
HETATM   10 CL1  UNL     1      21.485   3.334  48.705  1.00  0.00    -0.089 Cl
HETATM   11  C15 UNL     1      25.201   3.658  50.475  1.00  0.00     0.106 C 
HETATM   12  C16 UNL     1      26.442   2.965  50.016  1.00  0.00     0.037 C 
ENDBRANCH   1   4
BRANCH   2  13
HETATM   13  C6  UNL     1      24.996  -0.163  53.678  1.00  0.00     0.090 C 
BRANCH  13  14
HETATM   14  C7  UNL     1      23.544  -0.349  53.551  1.00  0.00    -0.020 C 
HETATM   15  C8  UNL     1      22.700   0.169  52.673  1.00  0.00     0.007 C 
BRANCH  15  16
HETATM   16  C9  UNL     1      21.256  -0.040  52.578  1.00  0.00    -0.036 A 
HETATM   17  C10 UNL     1      20.605  -0.651  53.617  1.00  0.00     0.011 A 
HETATM   18  C11 UNL     1      19.240  -0.803  53.431  1.00  0.00     0.001 A 
HETATM   19  C12 UNL     1      18.547  -0.383  52.295  1.00  0.00     0.000 A 
HETATM   20  C13 UNL     1      19.272   0.221  51.300  1.00  0.00     0.001 A 
HETATM   21  C14 UNL     1      20.621   0.393  51.437  1.00  0.00     0.011 A 
ENDBRANCH  15  16
ENDBRANCH  13  14
ENDBRANCH   2  13
BRANCH   3  22
HETATM   22  N3  UNL     1      27.750   2.522  54.049  1.00  0.00    -0.241 NA
HETATM   23  H16 UNL     1      28.420   2.643  53.246  1.00  0.00     0.143 HD
HETATM   24  H17 UNL     1      28.106   1.641  54.526  1.00  0.00     0.143 HD
ENDBRANCH   3  22
TORSDOF 5
ENDMDL
MODEL 6
REMARK VINA RESULT:      -7.8      4.314      8.903
REMARK  5 active torsions:
REMARK  status: ('A' for Active; 'I' for Inactive)
REMARK    1  A    between atoms: N1_4  and  C4_5 
REMARK    2  A    between atoms: C5_6  and  C6_7 
REMARK    3  A    between atoms: C6_7  and  C7_8 
REMARK    4  A    between atoms: C8_9  and  C9_10 
REMARK    5  A    between atoms: N2_16  and  N3_17 
ROOT
HETATM    1  C4  UNL     1      23.667   0.038  53.530  1.00  0.00     0.146 A 
HETATM    2  C5  UNL     1      22.339   0.053  53.586  1.00  0.00     0.079 A 
HETATM    3  N2  UNL     1      23.030  -0.762  54.525  1.00  0.00    -0.262 N 
ENDROOT
BRANCH   1   4
HETATM    4  N1  UNL     1      24.933   0.419  53.003  1.00  0.00    -0.356 N 
HETATM    5  C3  UNL     1      25.926  -0.560  52.595  1.00  0.00     0.135 C 
HETATM    6  C2  UNL     1      27.059  -0.466  53.583  1.00  0.00     0.044 C 
HETATM    7  C1  UNL     1      28.210  -1.356  53.161  1.00  0.00     0.017 C 
HETATM    8  C18 UNL     1      27.508   0.927  53.815  1.00  0.00     0.015 C 
HETATM    9  C17 UNL     1      26.697   1.910  53.442  1.00  0.00     0.018 C 
HETATM   10 CL1  UNL     1      29.072   1.200  54.563  1.00  0.00    -0.089 Cl
HETATM   11  C15 UNL     1      25.377   1.773  52.812  1.00  0.00     0.106 C 
HETATM   12  C16 UNL     1      24.396   2.834  53.188  1.00  0.00     0.037 C 
ENDBRANCH   1   4
BRANCH   2  13
HETATM   13  C6  UNL     1      20.977   0.478  53.154  1.00  0.00     0.090 C 
BRANCH  13  14
HETATM   14  C7  UNL     1      19.999  -0.618  53.123  1.00  0.00    -0.020 C 
HETATM   15  C8  UNL     1      18.677  -0.570  53.151  1.00  0.00     0.007 C 
BRANCH  15  16
HETATM   16  C9  UNL     1      17.733  -1.687  53.118  1.00  0.00    -0.036 A 
HETATM   17  C10 UNL     1      18.072  -2.858  53.741  1.00  0.00     0.011 A 
HETATM   18  C11 UNL     1      17.112  -3.855  53.653  1.00  0.00     0.001 A 
HETATM   19  C12 UNL     1      15.889  -3.717  52.994  1.00  0.00     0.000 A 
HETATM   20  C13 UNL     1      15.626  -2.511  52.397  1.00  0.00     0.001 A 
HETATM   21  C14 UNL     1      16.542  -1.498  52.456  1.00  0.00     0.011 A 
ENDBRANCH  15  16
ENDBRANCH  13  14
ENDBRANCH   2  13
BRANCH   3  22
HETATM   22  N3  UNL     1      23.046  -1.669  55.611  1.00  0.00    -0.241 NA
HETATM   23  H16 UNL     1      22.379  -2.442  55.357  1.00  0.00     0.143 HD
HETATM   24  H17 UNL     1      22.534  -1.158  56.390  1.00  0.00     0.143 HD
ENDBRANCH   3  22
TORSDOF 5
ENDMDL
MODEL 7
REMARK VINA RESULT:      -7.5      3.517      6.953
REMARK  5 active torsions:
REMARK  status: ('A' for Active; 'I' for Inactive)
REMARK    1  A    between atoms: N1_4  and  C4_5 
REMARK    2  A    between atoms: C5_6  and  C6_7 
REMARK    3  A    between atoms: C6_7  and  C7_8 
REMARK    4  A    between atoms: C8_9  and  C9_10 
REMARK    5  A    between atoms: N2_16  and  N3_17 
ROOT
HETATM    1  C4  UNL     1      24.583   6.131  50.508  1.00  0.00     0.146 A 
HETATM    2  C5  UNL     1      25.624   5.546  49.922  1.00  0.00     0.079 A 
HETATM    3  N2  UNL     1      25.774   6.899  50.335  1.00  0.00    -0.262 N 
ENDROOT
BRANCH   1   4
HETATM    4  N1  UNL     1      23.253   6.176  51.013  1.00  0.00    -0.356 N 
HETATM    5  C3  UNL     1      22.761   5.206  51.977  1.00  0.00     0.135 C 
HETATM    6  C2  UNL     1      21.746   4.357  51.258  1.00  0.00     0.044 C 
HETATM    7  C1  UNL     1      21.071   3.401  52.220  1.00  0.00     0.017 C 
HETATM    8  C18 UNL     1      20.753   5.158  50.504  1.00  0.00     0.015 C 
HETATM    9  C17 UNL     1      21.042   6.430  50.255  1.00  0.00     0.018 C 
HETATM   10 CL1  UNL     1      19.260   4.392  49.988  1.00  0.00    -0.089 Cl
HETATM   11  C15 UNL     1      22.261   7.149  50.647  1.00  0.00     0.106 C 
HETATM   12  C16 UNL     1      22.707   8.193  49.677  1.00  0.00     0.037 C 
ENDBRANCH   1   4
BRANCH   2  13
HETATM   13  C6  UNL     1      26.340   4.414  49.268  1.00  0.00     0.090 C 
BRANCH  13  14
HETATM   14  C7  UNL     1      26.198   3.136  49.978  1.00  0.00    -0.020 C 
HETATM   15  C8  UNL     1      25.816   2.900  51.223  1.00  0.00     0.007 C 
BRANCH  15  16
HETATM   16  C9  UNL     1      25.685   1.609  51.897  1.00  0.00    -0.036 A 
HETATM   17  C10 UNL     1      26.701   0.697  51.784  1.00  0.00     0.011 A 
HETATM   18  C11 UNL     1      26.482  -0.495  52.459  1.00  0.00     0.001 A 
HETATM   19  C12 UNL     1      25.336  -0.781  53.203  1.00  0.00     0.000 A 
HETATM   20  C13 UNL     1      24.367   0.186  53.267  1.00  0.00     0.001 A 
HETATM   21  C14 UNL     1      24.536   1.377  52.618  1.00  0.00     0.011 A 
ENDBRANCH  15  16
ENDBRANCH  13  14
ENDBRANCH   2  13
BRANCH   3  22
HETATM   22  N3  UNL     1      26.537   8.084  50.463  1.00  0.00    -0.241 NA
HETATM   23  H16 UNL     1      26.928   8.285  49.506  1.00  0.00     0.143 HD
HETATM   24  H17 UNL     1      27.397   7.785  51.013  1.00  0.00     0.143 HD
ENDBRANCH   3  22
TORSDOF 5
ENDMDL
MODEL 8
REMARK VINA RESULT:      -7.4      1.731      3.049
REMARK  5 active torsions:
REMARK  status: ('A' for Active; 'I' for Inactive)
REMARK    1  A    between atoms: N1_4  and  C4_5 
REMARK    2  A    between atoms: C5_6  and  C6_7 
REMARK    3  A    between atoms: C6_7  and  C7_8 
REMARK    4  A    between atoms: C8_9  and  C9_10 
REMARK    5  A    between atoms: N2_16  and  N3_17 
ROOT
HETATM    1  C4  UNL     1      24.247   3.624  51.103  1.00  0.00     0.146 A 
HETATM    2  C5  UNL     1      24.383   4.769  50.440  1.00  0.00     0.079 A 
HETATM    3  N2  UNL     1      24.033   4.841  51.818  1.00  0.00    -0.262 N 
ENDROOT
BRANCH   1   4
HETATM    4  N1  UNL     1      24.255   2.207  51.228  1.00  0.00    -0.356 N 
HETATM    5  C3  UNL     1      23.057   1.408  51.031  1.00  0.00     0.135 C 
HETATM    6  C2  UNL     1      22.678   0.856  52.380  1.00  0.00     0.044 C 
HETATM    7  C1  UNL     1      21.515  -0.107  52.255  1.00  0.00     0.017 C 
HETATM    8  C18 UNL     1      23.820   0.237  53.092  1.00  0.00     0.015 C 
HETATM    9  C17 UNL     1      25.045   0.526  52.669  1.00  0.00     0.018 C 
HETATM   10 CL1  UNL     1      23.496  -0.838  54.442  1.00  0.00    -0.089 Cl
HETATM   11  C15 UNL     1      25.407   1.410  51.554  1.00  0.00     0.106 C 
HETATM   12  C16 UNL     1      26.680   2.166  51.746  1.00  0.00     0.037 C 
ENDBRANCH   1   4
BRANCH   2  13
HETATM   13  C6  UNL     1      24.664   5.606  49.238  1.00  0.00     0.090 C 
BRANCH  13  14
HETATM   14  C7  UNL     1      26.086   5.656  48.874  1.00  0.00    -0.020 C 
HETATM   15  C8  UNL     1      26.760   6.595  48.230  1.00  0.00     0.007 C 
BRANCH  15  16
HETATM   16  C9  UNL     1      28.181   6.610  47.885  1.00  0.00    -0.036 A 
HETATM   17  C10 UNL     1      28.679   7.669  47.173  1.00  0.00     0.011 A 
HETATM   18  C11 UNL     1      30.035   7.590  46.896  1.00  0.00     0.001 A 
HETATM   19  C12 UNL     1      30.860   6.536  47.291  1.00  0.00     0.000 A 
HETATM   20  C13 UNL     1      30.284   5.514  48.001  1.00  0.00     0.001 A 
HETATM   21  C14 UNL     1      28.950   5.547  48.299  1.00  0.00     0.011 A 
ENDBRANCH  15  16
ENDBRANCH  13  14
ENDBRANCH   2  13
BRANCH   3  22
HETATM   22  N3  UNL     1      23.717   5.576  52.985  1.00  0.00    -0.241 NA
HETATM   23  H16 UNL     1      24.537   6.212  53.161  1.00  0.00     0.143 HD
HETATM   24  H17 UNL     1      23.793   4.865  53.772  1.00  0.00     0.143 HD
ENDBRANCH   3  22
TORSDOF 5
ENDMDL
MODEL 9
REMARK VINA RESULT:      -7.3      4.246      5.650
REMARK  5 active torsions:
REMARK  status: ('A' for Active; 'I' for Inactive)
REMARK    1  A    between atoms: N1_4  and  C4_5 
REMARK    2  A    between atoms: C5_6  and  C6_7 
REMARK    3  A    between atoms: C6_7  and  C7_8 
REMARK    4  A    between atoms: C8_9  and  C9_10 
REMARK    5  A    between atoms: N2_16  and  N3_17 
ROOT
HETATM    1  C4  UNL     1      23.950  -0.159  53.618  1.00  0.00     0.146 A 
HETATM    2  C5  UNL     1      22.628  -0.299  53.651  1.00  0.00     0.079 A 
HETATM    3  N2  UNL     1      23.382  -0.906  54.694  1.00  0.00    -0.262 N 
ENDROOT
BRANCH   1   4
HETATM    4  N1  UNL     1      25.177   0.306  53.067  1.00  0.00    -0.356 N 
HETATM    5  C3  UNL     1      26.236  -0.603  52.664  1.00  0.00     0.135 C 
HETATM    6  C2  UNL     1      27.370  -0.405  53.635  1.00  0.00     0.044 C 
HETATM    7  C1  UNL     1      28.581  -1.213  53.215  1.00  0.00     0.017 C 
HETATM    8  C18 UNL     1      27.715   1.022  53.837  1.00  0.00     0.015 C 
HETATM    9  C17 UNL     1      26.828   1.934  53.457  1.00  0.00     0.018 C 
HETATM   10 CL1  UNL     1      29.263   1.427  54.559  1.00  0.00    -0.089 Cl
HETATM   11  C15 UNL     1      25.515   1.686  52.847  1.00  0.00     0.106 C 
HETATM   12  C16 UNL     1      24.460   2.676  53.217  1.00  0.00     0.037 C 
ENDBRANCH   1   4
BRANCH   2  13
HETATM   13  C6  UNL     1      21.239  -0.097  53.149  1.00  0.00     0.090 C 
BRANCH  13  14
HETATM   14  C7  UNL     1      21.082   1.102  52.315  1.00  0.00    -0.020 C 
HETATM   15  C8  UNL     1      20.623   2.301  52.638  1.00  0.00     0.007 C 
BRANCH  15  16
HETATM   16  C9  UNL     1      20.481   3.474  51.778  1.00  0.00    -0.036 A 
HETATM   17  C10 UNL     1      21.478   4.414  51.770  1.00  0.00     0.011 A 
HETATM   18  C11 UNL     1      21.249   5.488  50.922  1.00  0.00     0.001 A 
HETATM   19  C12 UNL     1      20.112   5.636  50.127  1.00  0.00     0.000 A 
HETATM   20  C13 UNL     1      19.162   4.650  50.192  1.00  0.00     0.001 A 
HETATM   21  C14 UNL     1      19.342   3.572  51.013  1.00  0.00     0.011 A 
ENDBRANCH  15  16
ENDBRANCH  13  14
ENDBRANCH   2  13
BRANCH   3  22
HETATM   22  N3  UNL     1      23.473  -1.667  55.883  1.00  0.00    -0.241 NA
HETATM   23  H16 UNL     1      23.636  -2.663  55.582  1.00  0.00     0.143 HD
HETATM   24  H17 UNL     1      22.479  -1.690  56.258  1.00  0.00     0.143 HD
ENDBRANCH   3  22
TORSDOF 5
ENDMDL
