MODEL 1
REMARK VINA RESULT:      -6.2      0.000      0.000
REMARK  8 active torsions:
REMARK  status: ('A' for Active; 'I' for Inactive)
REMARK    1  A    between atoms: O1_2  and  C2_3 
REMARK    2  A    between atoms: C2_3  and  C3_4 
REMARK    3  A    between atoms: C3_4  and  C15_20 
REMARK    4  A    between atoms: C4_5  and  C5_6 
REMARK    5  A    between atoms: C9_12  and  N3_13 
REMARK    6  A    between atoms: N3_13  and  N4_14 
REMARK    7  A    between atoms: N4_14  and  C11_16 
REMARK    8  A    between atoms: C15_20  and  O2_21 
ROOT
HETATM    1  C5  UNL     1      23.862   1.109  52.580  1.00  0.00     0.036 A 
HETATM    2  C6  UNL     1      22.663   0.464  52.818  1.00  0.00     0.046 A 
HETATM    3  C7  UNL     1      22.414  -0.994  53.038  1.00  0.00     0.071 C 
HETATM    4  N1  UNL     1      21.469   1.127  52.847  1.00  0.00    -0.246 NA
HETATM    5  C8  UNL     1      21.459   2.468  52.634  1.00  0.00     0.235 A 
HETATM    6  N2  UNL     1      22.610   3.112  52.402  1.00  0.00    -0.222 NA
HETATM    7  C9  UNL     1      23.772   2.452  52.376  1.00  0.00     0.155 A 
ENDROOT
BRANCH   1   8
HETATM    8  C4  UNL     1      25.028   0.297  52.633  1.00  0.00     0.024 C 
HETATM    9  C3  UNL     1      26.160   0.195  53.317  1.00  0.00    -0.032 C 
BRANCH   9  10
HETATM   10  C2  UNL     1      26.831   0.940  54.451  1.00  0.00     0.203 C 
BRANCH  10  11
HETATM   11  O1  UNL     1      27.077   2.251  54.015  1.00  0.00    -0.392 OA
HETATM   12  C1  UNL     1      28.389   2.422  53.625  1.00  0.00     0.201 C 
ENDBRANCH  10  11
ENDBRANCH   9  10
BRANCH   9  13
HETATM   13  C15 UNL     1      27.107  -0.911  53.049  1.00  0.00     0.203 C 
BRANCH  13  14
HETATM   14  O2  UNL     1      28.152  -0.991  53.936  1.00  0.00    -0.392 OA
HETATM   15  C16 UNL     1      29.341  -1.460  53.433  1.00  0.00     0.201 C 
ENDBRANCH  13  14
ENDBRANCH   9  13
ENDBRANCH   1   8
BRANCH   7  16
HETATM   16  N3  UNL     1      24.898   3.254  52.107  1.00  0.00    -0.282 N 
HETATM   17  H11 UNL     1      25.364   3.834  52.816  1.00  0.00     0.189 HD
BRANCH  16  18
HETATM   18  N4  UNL     1      25.532   3.382  50.873  1.00  0.00    -0.306 N 
HETATM   19  C10 UNL     1      26.630   2.646  50.319  1.00  0.00     0.177 C 
BRANCH  18  20
HETATM   20  C11 UNL     1      24.920   4.428  50.149  1.00  0.00     0.111 C 
HETATM   21  C12 UNL     1      23.978   4.466  49.202  1.00  0.00    -0.071 C 
HETATM   22  C13 UNL     1      23.485   5.744  48.573  1.00  0.00     0.044 C 
HETATM   23  C14 UNL     1      23.477   3.110  48.832  1.00  0.00     0.044 C 
ENDBRANCH  18  20
ENDBRANCH  16  18
ENDBRANCH   7  16
TORSDOF 8
ENDMDL
MODEL 2
REMARK VINA RESULT:      -6.2      1.288      2.526
REMARK  8 active torsions:
REMARK  status: ('A' for Active; 'I' for Inactive)
REMARK    1  A    between atoms: O1_2  and  C2_3 
REMARK    2  A    between atoms: C2_3  and  C3_4 
REMARK    3  A    between atoms: C3_4  and  C15_20 
REMARK    4  A    between atoms: C4_5  and  C5_6 
REMARK    5  A    between atoms: C9_12  and  N3_13 
REMARK    6  A    between atoms: N3_13  and  N4_14 
REMARK    7  A    between atoms: N4_14  and  C11_16 
REMARK    8  A    between atoms: C15_20  and  O2_21 
ROOT
HETATM    1  C5  UNL     1      23.550   0.613  52.796  1.00  0.00     0.036 A 
HETATM    2  C6  UNL     1      22.614  -0.191  53.417  1.00  0.00     0.046 A 
HETATM    3  C7  UNL     1      22.775  -1.043  54.635  1.00  0.00     0.071 C 
HETATM    4  N1  UNL     1      21.344  -0.340  52.936  1.00  0.00    -0.246 NA
HETATM    5  C8  UNL     1      20.989   0.324  51.806  1.00  0.00     0.235 A 
HETATM    6  N2  UNL     1      21.882   1.107  51.188  1.00  0.00    -0.222 NA
HETATM    7  C9  UNL     1      23.122   1.245  51.669  1.00  0.00     0.155 A 
ENDROOT
BRANCH   1   8
HETATM    8  C4  UNL     1      24.813   0.713  53.441  1.00  0.00     0.024 C 
HETATM    9  C3  UNL     1      25.998   0.118  53.444  1.00  0.00    -0.032 C 
BRANCH   9  10
HETATM   10  C2  UNL     1      26.647  -1.044  52.724  1.00  0.00     0.203 C 
BRANCH  10  11
HETATM   11  O1  UNL     1      27.753  -1.455  53.484  1.00  0.00    -0.392 OA
HETATM   12  C1  UNL     1      28.344  -2.584  52.958  1.00  0.00     0.201 C 
ENDBRANCH  10  11
ENDBRANCH   9  10
BRANCH   9  13
HETATM   13  C15 UNL     1      27.099   0.632  54.290  1.00  0.00     0.203 C 
BRANCH  13  14
HETATM   14  O2  UNL     1      27.329   1.981  54.165  1.00  0.00    -0.392 OA
HETATM   15  C16 UNL     1      28.527   2.342  53.599  1.00  0.00     0.201 C 
ENDBRANCH  13  14
ENDBRANCH   9  13
ENDBRANCH   1   8
BRANCH   7  16
HETATM   16  N3  UNL     1      23.956   2.089  50.910  1.00  0.00    -0.282 N 
HETATM   17  H11 UNL     1      24.368   1.819  50.008  1.00  0.00     0.189 HD
BRANCH  16  18
HETATM   18  N4  UNL     1      24.338   3.384  51.257  1.00  0.00    -0.306 N 
HETATM   19  C10 UNL     1      23.723   4.319  52.151  1.00  0.00     0.177 C 
BRANCH  18  20
HETATM   20  C11 UNL     1      25.518   3.716  50.557  1.00  0.00     0.111 C 
HETATM   21  C12 UNL     1      25.772   4.470  49.483  1.00  0.00    -0.071 C 
HETATM   22  C13 UNL     1      27.156   4.671  48.919  1.00  0.00     0.044 C 
HETATM   23  C14 UNL     1      24.540   5.081  48.903  1.00  0.00     0.044 C 
ENDBRANCH  18  20
ENDBRANCH  16  18
ENDBRANCH   7  16
TORSDOF 8
ENDMDL
MODEL 3
REMARK VINA RESULT:      -6.2      1.712      3.434
REMARK  8 active torsions:
REMARK  status: ('A' for Active; 'I' for Inactive)
REMARK    1  A    between atoms: O1_2  and  C2_3 
REMARK    2  A    between atoms: C2_3  and  C3_4 
REMARK    3  A    between atoms: C3_4  and  C15_20 
REMARK    4  A    between atoms: C4_5  and  C5_6 
REMARK    5  A    between atoms: C9_12  and  N3_13 
REMARK    6  A    between atoms: N3_13  and  N4_14 
REMARK    7  A    between atoms: N4_14  and  C11_16 
REMARK    8  A    between atoms: C15_20  and  O2_21 
ROOT
HETATM    1  C5  UNL     1      23.555  -0.145  53.655  1.00  0.00     0.036 A 
HETATM    2  C6  UNL     1      23.595  -0.912  54.804  1.00  0.00     0.046 A 
HETATM    3  C7  UNL     1      24.734  -1.117  55.751  1.00  0.00     0.071 C 
HETATM    4  N1  UNL     1      22.530  -1.658  55.223  1.00  0.00    -0.246 NA
HETATM    5  C8  UNL     1      21.391  -1.647  54.484  1.00  0.00     0.235 A 
HETATM    6  N2  UNL     1      21.331  -0.911  53.367  1.00  0.00    -0.222 NA
HETATM    7  C9  UNL     1      22.381  -0.185  52.967  1.00  0.00     0.155 A 
ENDROOT
BRANCH   1   8
HETATM    8  C4  UNL     1      24.720   0.619  53.375  1.00  0.00     0.024 C 
HETATM    9  C3  UNL     1      25.929   0.465  52.852  1.00  0.00    -0.032 C 
BRANCH   9  10
HETATM   10  C2  UNL     1      26.736  -0.671  52.261  1.00  0.00     0.203 C 
BRANCH  10  11
HETATM   11  O1  UNL     1      27.291  -1.399  53.325  1.00  0.00    -0.392 OA
HETATM   12  C1  UNL     1      28.670  -1.371  53.300  1.00  0.00     0.201 C 
ENDBRANCH  10  11
ENDBRANCH   9  10
BRANCH   9  13
HETATM   13  C15 UNL     1      26.838   1.624  52.699  1.00  0.00     0.203 C 
BRANCH  13  14
HETATM   14  O2  UNL     1      27.431   2.040  53.866  1.00  0.00    -0.392 OA
HETATM   15  C16 UNL     1      28.758   2.382  53.784  1.00  0.00     0.201 C 
ENDBRANCH  13  14
ENDBRANCH   9  13
ENDBRANCH   1   8
BRANCH   7  16
HETATM   16  N3  UNL     1      22.180   0.528  51.769  1.00  0.00    -0.282 N 
HETATM   17  H11 UNL     1      22.311   0.118  50.836  1.00  0.00     0.189 HD
BRANCH  16  18
HETATM   18  N4  UNL     1      21.785   1.860  51.671  1.00  0.00    -0.306 N 
HETATM   19  C10 UNL     1      20.650   2.530  52.233  1.00  0.00     0.177 C 
BRANCH  18  20
HETATM   20  C11 UNL     1      22.715   2.556  50.869  1.00  0.00     0.111 C 
HETATM   21  C12 UNL     1      23.646   3.479  51.127  1.00  0.00    -0.071 C 
HETATM   22  C13 UNL     1      24.535   4.080  50.067  1.00  0.00     0.044 C 
HETATM   23  C14 UNL     1      23.704   3.854  52.570  1.00  0.00     0.044 C 
ENDBRANCH  18  20
ENDBRANCH  16  18
ENDBRANCH   7  16
TORSDOF 8
ENDMDL
MODEL 4
REMARK VINA RESULT:      -6.1      2.797      5.535
REMARK  8 active torsions:
REMARK  status: ('A' for Active; 'I' for Inactive)
REMARK    1  A    between atoms: O1_2  and  C2_3 
REMARK    2  A    between atoms: C2_3  and  C3_4 
REMARK    3  A    between atoms: C3_4  and  C15_20 
REMARK    4  A    between atoms: C4_5  and  C5_6 
REMARK    5  A    between atoms: C9_12  and  N3_13 
REMARK    6  A    between atoms: N3_13  and  N4_14 
REMARK    7  A    between atoms: N4_14  and  C11_16 
REMARK    8  A    between atoms: C15_20  and  O2_21 
ROOT
HETATM    1  C5  UNL     1      22.705  -0.526  53.363  1.00  0.00     0.036 A 
HETATM    2  C6  UNL     1      21.898  -1.227  54.240  1.00  0.00     0.046 A 
HETATM    3  C7  UNL     1      20.432  -1.503  54.143  1.00  0.00     0.071 C 
HETATM    4  N1  UNL     1      22.374  -1.762  55.404  1.00  0.00    -0.246 NA
HETATM    5  C8  UNL     1      23.687  -1.598  55.711  1.00  0.00     0.235 A 
HETATM    6  N2  UNL     1      24.485  -0.922  54.876  1.00  0.00    -0.222 NA
HETATM    7  C9  UNL     1      24.007  -0.403  53.740  1.00  0.00     0.155 A 
ENDROOT
BRANCH   1   8
HETATM    8  C4  UNL     1      22.082  -0.075  52.168  1.00  0.00     0.024 C 
HETATM    9  C3  UNL     1      21.856   1.053  51.508  1.00  0.00    -0.032 C 
BRANCH   9  10
HETATM   10  C2  UNL     1      22.156   2.523  51.707  1.00  0.00     0.203 C 
BRANCH  10  11
HETATM   11  O1  UNL     1      23.534   2.650  51.943  1.00  0.00    -0.392 OA
HETATM   12  C1  UNL     1      24.113   3.577  51.101  1.00  0.00     0.201 C 
ENDBRANCH  10  11
ENDBRANCH   9  10
BRANCH   9  13
HETATM   13  C15 UNL     1      21.177   1.035  50.192  1.00  0.00     0.203 C 
BRANCH  13  14
HETATM   14  O2  UNL     1      21.965   1.438  49.142  1.00  0.00    -0.392 OA
HETATM   15  C16 UNL     1      21.312   2.008  48.077  1.00  0.00     0.201 C 
ENDBRANCH  13  14
ENDBRANCH   9  13
ENDBRANCH   1   8
BRANCH   7  16
HETATM   16  N3  UNL     1      24.957   0.293  52.967  1.00  0.00    -0.282 N 
HETATM   17  H11 UNL     1      24.783   1.215  52.548  1.00  0.00     0.189 HD
BRANCH  16  18
HETATM   18  N4  UNL     1      26.241  -0.152  52.659  1.00  0.00    -0.306 N 
HETATM   19  C10 UNL     1      26.696  -1.448  52.252  1.00  0.00     0.177 C 
BRANCH  18  20
HETATM   20  C11 UNL     1      27.147   0.920  52.814  1.00  0.00     0.111 C 
HETATM   21  C12 UNL     1      28.032   1.251  53.758  1.00  0.00    -0.071 C 
HETATM   22  C13 UNL     1      28.903   2.479  53.685  1.00  0.00     0.044 C 
HETATM   23  C14 UNL     1      28.058   0.279  54.890  1.00  0.00     0.044 C 
ENDBRANCH  18  20
ENDBRANCH  16  18
ENDBRANCH   7  16
TORSDOF 8
ENDMDL
MODEL 5
REMARK VINA RESULT:      -6.1      1.380      4.428
REMARK  8 active torsions:
REMARK  status: ('A' for Active; 'I' for Inactive)
REMARK    1  A    between atoms: O1_2  and  C2_3 
REMARK    2  A    between atoms: C2_3  and  C3_4 
REMARK    3  A    between atoms: C3_4  and  C15_20 
REMARK    4  A    between atoms: C4_5  and  C5_6 
REMARK    5  A    between atoms: C9_12  and  N3_13 
REMARK    6  A    between atoms: N3_13  and  N4_14 
REMARK    7  A    between atoms: N4_14  and  C11_16 
REMARK    8  A    between atoms: C15_20  and  O2_21 
ROOT
HETATM    1  C5  UNL     1      24.849   2.553  51.365  1.00  0.00     0.036 A 
HETATM    2  C6  UNL     1      25.403   3.487  50.509  1.00  0.00     0.046 A 
HETATM    3  C7  UNL     1      26.751   3.479  49.862  1.00  0.00     0.071 C 
HETATM    4  N1  UNL     1      24.747   4.631  50.153  1.00  0.00    -0.246 NA
HETATM    5  C8  UNL     1      23.508   4.861  50.658  1.00  0.00     0.235 A 
HETATM    6  N2  UNL     1      22.954   3.969  51.490  1.00  0.00    -0.222 NA
HETATM    7  C9  UNL     1      23.606   2.852  51.831  1.00  0.00     0.155 A 
ENDROOT
BRANCH   1   8
HETATM    8  C4  UNL     1      25.627   1.387  51.601  1.00  0.00     0.024 C 
HETATM    9  C3  UNL     1      26.323   0.815  52.575  1.00  0.00    -0.032 C 
BRANCH   9  10
HETATM   10  C2  UNL     1      26.672   1.135  54.012  1.00  0.00     0.203 C 
BRANCH  10  11
HETATM   11  O1  UNL     1      27.207   2.432  54.043  1.00  0.00    -0.392 OA
HETATM   12  C1  UNL     1      28.535   2.447  53.670  1.00  0.00     0.201 C 
ENDBRANCH  10  11
ENDBRANCH   9  10
BRANCH   9  13
HETATM   13  C15 UNL     1      26.954  -0.510  52.374  1.00  0.00     0.203 C 
BRANCH  13  14
HETATM   14  O2  UNL     1      27.631  -0.987  53.469  1.00  0.00    -0.392 OA
HETATM   15  C16 UNL     1      28.764  -1.719  53.210  1.00  0.00     0.201 C 
ENDBRANCH  13  14
ENDBRANCH   9  13
ENDBRANCH   1   8
BRANCH   7  16
HETATM   16  N3  UNL     1      22.909   2.014  52.722  1.00  0.00    -0.282 N 
HETATM   17  H11 UNL     1      22.736   2.250  53.707  1.00  0.00     0.189 HD
BRANCH  16  18
HETATM   18  N4  UNL     1      22.363   0.769  52.412  1.00  0.00    -0.306 N 
HETATM   19  C10 UNL     1      21.509   0.380  51.329  1.00  0.00     0.177 C 
BRANCH  18  20
HETATM   20  C11 UNL     1      22.779  -0.168  53.383  1.00  0.00     0.111 C 
HETATM   21  C12 UNL     1      22.248  -0.606  54.528  1.00  0.00    -0.071 C 
HETATM   22  C13 UNL     1      22.907  -1.640  55.406  1.00  0.00     0.044 C 
HETATM   23  C14 UNL     1      20.941   0.042  54.844  1.00  0.00     0.044 C 
ENDBRANCH  18  20
ENDBRANCH  16  18
ENDBRANCH   7  16
TORSDOF 8
ENDMDL
MODEL 6
REMARK VINA RESULT:      -6.0      2.652      5.071
REMARK  8 active torsions:
REMARK  status: ('A' for Active; 'I' for Inactive)
REMARK    1  A    between atoms: O1_2  and  C2_3 
REMARK    2  A    between atoms: C2_3  and  C3_4 
REMARK    3  A    between atoms: C3_4  and  C15_20 
REMARK    4  A    between atoms: C4_5  and  C5_6 
REMARK    5  A    between atoms: C9_12  and  N3_13 
REMARK    6  A    between atoms: N3_13  and  N4_14 
REMARK    7  A    between atoms: N4_14  and  C11_16 
REMARK    8  A    between atoms: C15_20  and  O2_21 
ROOT
HETATM    1  C5  UNL     1      23.145   0.243  52.862  1.00  0.00     0.036 A 
HETATM    2  C6  UNL     1      21.804  -0.049  52.707  1.00  0.00     0.046 A 
HETATM    3  C7  UNL     1      20.837   0.499  51.707  1.00  0.00     0.071 C 
HETATM    4  N1  UNL     1      21.143  -0.914  53.534  1.00  0.00    -0.246 NA
HETATM    5  C8  UNL     1      21.830  -1.507  54.545  1.00  0.00     0.235 A 
HETATM    6  N2  UNL     1      23.130  -1.236  54.713  1.00  0.00    -0.222 NA
HETATM    7  C9  UNL     1      23.765  -0.387  53.897  1.00  0.00     0.155 A 
ENDROOT
BRANCH   1   8
HETATM    8  C4  UNL     1      23.708   1.119  51.894  1.00  0.00     0.024 C 
HETATM    9  C3  UNL     1      24.004   2.402  51.741  1.00  0.00    -0.032 C 
BRANCH   9  10
HETATM   10  C2  UNL     1      23.879   3.666  52.565  1.00  0.00     0.203 C 
BRANCH  10  11
HETATM   11  O1  UNL     1      22.968   4.512  51.914  1.00  0.00    -0.392 OA
HETATM   12  C1  UNL     1      21.663   4.197  52.229  1.00  0.00     0.201 C 
ENDBRANCH  10  11
ENDBRANCH   9  10
BRANCH   9  13
HETATM   13  C15 UNL     1      24.676   2.881  50.512  1.00  0.00     0.203 C 
BRANCH  13  14
HETATM   14  O2  UNL     1      25.920   3.426  50.720  1.00  0.00    -0.392 OA
HETATM   15  C16 UNL     1      26.535   3.971  49.620  1.00  0.00     0.201 C 
ENDBRANCH  13  14
ENDBRANCH   9  13
ENDBRANCH   1   8
BRANCH   7  16
HETATM   16  N3  UNL     1      25.126  -0.188  54.200  1.00  0.00    -0.282 N 
HETATM   17  H11 UNL     1      25.462   0.149  55.111  1.00  0.00     0.189 HD
BRANCH  16  18
HETATM   18  N4  UNL     1      26.195  -0.411  53.334  1.00  0.00    -0.306 N 
HETATM   19  C10 UNL     1      26.548  -1.581  52.587  1.00  0.00     0.177 C 
BRANCH  18  20
HETATM   20  C11 UNL     1      26.981   0.759  53.266  1.00  0.00     0.111 C 
HETATM   21  C12 UNL     1      28.096   1.158  53.886  1.00  0.00    -0.071 C 
HETATM   22  C13 UNL     1      28.757   2.489  53.629  1.00  0.00     0.044 C 
HETATM   23  C14 UNL     1      28.608   0.150  54.859  1.00  0.00     0.044 C 
ENDBRANCH  18  20
ENDBRANCH  16  18
ENDBRANCH   7  16
TORSDOF 8
ENDMDL
MODEL 7
REMARK VINA RESULT:      -5.9      1.654      2.288
REMARK  8 active torsions:
REMARK  status: ('A' for Active; 'I' for Inactive)
REMARK    1  A    between atoms: O1_2  and  C2_3 
REMARK    2  A    between atoms: C2_3  and  C3_4 
REMARK    3  A    between atoms: C3_4  and  C15_20 
REMARK    4  A    between atoms: C4_5  and  C5_6 
REMARK    5  A    between atoms: C9_12  and  N3_13 
REMARK    6  A    between atoms: N3_13  and  N4_14 
REMARK    7  A    between atoms: N4_14  and  C11_16 
REMARK    8  A    between atoms: C15_20  and  O2_21 
ROOT
HETATM    1  C5  UNL     1      23.334  -0.120  53.376  1.00  0.00     0.036 A 
HETATM    2  C6  UNL     1      22.630  -0.605  54.462  1.00  0.00     0.046 A 
HETATM    3  C7  UNL     1      23.079  -1.573  55.510  1.00  0.00     0.071 C 
HETATM    4  N1  UNL     1      21.332  -0.258  54.707  1.00  0.00    -0.246 NA
HETATM    5  C8  UNL     1      20.709   0.593  53.852  1.00  0.00     0.235 A 
HETATM    6  N2  UNL     1      21.372   1.073  52.792  1.00  0.00    -0.222 NA
HETATM    7  C9  UNL     1      22.643   0.726  52.564  1.00  0.00     0.155 A 
ENDROOT
BRANCH   1   8
HETATM    8  C4  UNL     1      24.692  -0.527  53.281  1.00  0.00     0.024 C 
HETATM    9  C3  UNL     1      25.912  -0.015  53.380  1.00  0.00    -0.032 C 
BRANCH   9  10
HETATM   10  C2  UNL     1      26.513   1.347  53.652  1.00  0.00     0.203 C 
BRANCH  10  11
HETATM   11  O1  UNL     1      25.939   2.256  52.749  1.00  0.00    -0.392 OA
HETATM   12  C1  UNL     1      26.696   2.385  51.603  1.00  0.00     0.201 C 
ENDBRANCH  10  11
ENDBRANCH   9  10
BRANCH   9  13
HETATM   13  C15 UNL     1      27.107  -0.880  53.258  1.00  0.00     0.203 C 
BRANCH  13  14
HETATM   14  O2  UNL     1      28.095  -0.616  54.175  1.00  0.00    -0.392 OA
HETATM   15  C16 UNL     1      29.379  -0.907  53.784  1.00  0.00     0.201 C 
ENDBRANCH  13  14
ENDBRANCH   9  13
ENDBRANCH   1   8
BRANCH   7  16
HETATM   16  N3  UNL     1      23.210   1.297  51.408  1.00  0.00    -0.282 N 
HETATM   17  H11 UNL     1      23.801   0.776  50.748  1.00  0.00     0.189 HD
BRANCH  16  18
HETATM   18  N4  UNL     1      23.059   2.619  50.994  1.00  0.00    -0.306 N 
HETATM   19  C10 UNL     1      22.941   3.820  51.767  1.00  0.00     0.177 C 
BRANCH  18  20
HETATM   20  C11 UNL     1      23.025   2.657  49.583  1.00  0.00     0.111 C 
HETATM   21  C12 UNL     1      22.064   2.450  48.678  1.00  0.00    -0.071 C 
HETATM   22  C13 UNL     1      22.288   2.555  47.191  1.00  0.00     0.044 C 
HETATM   23  C14 UNL     1      20.753   2.096  49.299  1.00  0.00     0.044 C 
ENDBRANCH  18  20
ENDBRANCH  16  18
ENDBRANCH   7  16
TORSDOF 8
ENDMDL
MODEL 8
REMARK VINA RESULT:      -5.8      2.684      6.041
REMARK  8 active torsions:
REMARK  status: ('A' for Active; 'I' for Inactive)
REMARK    1  A    between atoms: O1_2  and  C2_3 
REMARK    2  A    between atoms: C2_3  and  C3_4 
REMARK    3  A    between atoms: C3_4  and  C15_20 
REMARK    4  A    between atoms: C4_5  and  C5_6 
REMARK    5  A    between atoms: C9_12  and  N3_13 
REMARK    6  A    between atoms: N3_13  and  N4_14 
REMARK    7  A    between atoms: N4_14  and  C11_16 
REMARK    8  A    between atoms: C15_20  and  O2_21 
ROOT
HETATM    1  C5  UNL     1      24.382   1.910  52.055  1.00  0.00     0.036 A 
HETATM    2  C6  UNL     1      24.274   3.180  51.521  1.00  0.00     0.046 A 
HETATM    3  C7  UNL     1      23.095   4.099  51.524  1.00  0.00     0.071 C 
HETATM    4  N1  UNL     1      25.301   3.778  50.845  1.00  0.00    -0.246 NA
HETATM    5  C8  UNL     1      26.467   3.101  50.692  1.00  0.00     0.235 A 
HETATM    6  N2  UNL     1      26.591   1.869  51.201  1.00  0.00    -0.222 NA
HETATM    7  C9  UNL     1      25.580   1.294  51.860  1.00  0.00     0.155 A 
ENDROOT
BRANCH   1   8
HETATM    8  C4  UNL     1      23.251   1.440  52.777  1.00  0.00     0.024 C 
HETATM    9  C3  UNL     1      22.111   0.796  52.565  1.00  0.00    -0.032 C 
BRANCH   9  10
HETATM   10  C2  UNL     1      21.386   0.205  51.374  1.00  0.00     0.203 C 
BRANCH  10  11
HETATM   11  O1  UNL     1      20.943   1.269  50.573  1.00  0.00    -0.392 OA
HETATM   12  C1  UNL     1      19.611   1.139  50.242  1.00  0.00     0.201 C 
ENDBRANCH  10  11
ENDBRANCH   9  10
BRANCH   9  13
HETATM   13  C15 UNL     1      21.218   0.451  53.694  1.00  0.00     0.203 C 
BRANCH  13  14
HETATM   14  O2  UNL     1      21.808  -0.312  54.672  1.00  0.00    -0.392 OA
HETATM   15  C16 UNL     1      21.658  -1.672  54.554  1.00  0.00     0.201 C 
ENDBRANCH  13  14
ENDBRANCH   9  13
ENDBRANCH   1   8
BRANCH   7  16
HETATM   16  N3  UNL     1      25.848  -0.007  52.329  1.00  0.00    -0.282 N 
HETATM   17  H11 UNL     1      25.704  -0.854  51.765  1.00  0.00     0.189 HD
BRANCH  16  18
HETATM   18  N4  UNL     1      26.333  -0.334  53.593  1.00  0.00    -0.306 N 
HETATM   19  C10 UNL     1      25.680  -0.307  54.868  1.00  0.00     0.177 C 
BRANCH  18  20
HETATM   20  C11 UNL     1      27.683  -0.731  53.477  1.00  0.00     0.111 C 
HETATM   21  C12 UNL     1      28.848  -0.100  53.651  1.00  0.00    -0.071 C 
HETATM   22  C13 UNL     1      30.188  -0.765  53.460  1.00  0.00     0.044 C 
HETATM   23  C14 UNL     1      28.678   1.329  54.044  1.00  0.00     0.044 C 
ENDBRANCH  18  20
ENDBRANCH  16  18
ENDBRANCH   7  16
TORSDOF 8
ENDMDL
MODEL 9
REMARK VINA RESULT:      -5.7      3.113      4.843
REMARK  8 active torsions:
REMARK  status: ('A' for Active; 'I' for Inactive)
REMARK    1  A    between atoms: O1_2  and  C2_3 
REMARK    2  A    between atoms: C2_3  and  C3_4 
REMARK    3  A    between atoms: C3_4  and  C15_20 
REMARK    4  A    between atoms: C4_5  and  C5_6 
REMARK    5  A    between atoms: C9_12  and  N3_13 
REMARK    6  A    between atoms: N3_13  and  N4_14 
REMARK    7  A    between atoms: N4_14  and  C11_16 
REMARK    8  A    between atoms: C15_20  and  O2_21 
ROOT
HETATM    1  C5  UNL     1      22.845   0.692  52.859  1.00  0.00     0.036 A 
HETATM    2  C6  UNL     1      23.613  -0.221  53.557  1.00  0.00     0.046 A 
HETATM    3  C7  UNL     1      25.051  -0.579  53.357  1.00  0.00     0.071 C 
HETATM    4  N1  UNL     1      23.101  -0.988  54.565  1.00  0.00    -0.246 NA
HETATM    5  C8  UNL     1      21.791  -0.850  54.893  1.00  0.00     0.235 A 
HETATM    6  N2  UNL     1      21.029   0.029  54.229  1.00  0.00    -0.222 NA
HETATM    7  C9  UNL     1      21.542   0.774  53.244  1.00  0.00     0.155 A 
ENDROOT
BRANCH   1   8
HETATM    8  C4  UNL     1      23.527   1.456  51.874  1.00  0.00     0.024 C 
HETATM    9  C3  UNL     1      23.864   2.714  51.622  1.00  0.00    -0.032 C 
BRANCH   9  10
HETATM   10  C2  UNL     1      23.673   4.058  52.291  1.00  0.00     0.203 C 
BRANCH  10  11
HETATM   11  O1  UNL     1      22.294   4.303  52.375  1.00  0.00    -0.392 OA
HETATM   12  C1  UNL     1      21.917   5.375  51.593  1.00  0.00     0.201 C 
ENDBRANCH  10  11
ENDBRANCH   9  10
BRANCH   9  13
HETATM   13  C15 UNL     1      24.676   3.055  50.432  1.00  0.00     0.203 C 
BRANCH  13  14
HETATM   14  O2  UNL     1      25.156   4.342  50.422  1.00  0.00    -0.392 OA
HETATM   15  C16 UNL     1      26.163   4.607  49.527  1.00  0.00     0.201 C 
ENDBRANCH  13  14
ENDBRANCH   9  13
ENDBRANCH   1   8
BRANCH   7  16
HETATM   16  N3  UNL     1      20.623   1.644  52.626  1.00  0.00    -0.282 N 
HETATM   17  H11 UNL     1      20.434   2.599  52.957  1.00  0.00     0.189 HD
BRANCH  16  18
HETATM   18  N4  UNL     1      19.851   1.351  51.504  1.00  0.00    -0.306 N 
HETATM   19  C10 UNL     1      18.910   0.293  51.282  1.00  0.00     0.177 C 
BRANCH  18  20
HETATM   20  C11 UNL     1      20.125   2.302  50.497  1.00  0.00     0.111 C 
HETATM   21  C12 UNL     1      20.807   2.258  49.349  1.00  0.00    -0.071 C 
HETATM   22  C13 UNL     1      20.956   3.442  48.426  1.00  0.00     0.044 C 
HETATM   23  C14 UNL     1      21.409   0.918  49.085  1.00  0.00     0.044 C 
ENDBRANCH  18  20
ENDBRANCH  16  18
ENDBRANCH   7  16
TORSDOF 8
ENDMDL
