MODEL 1
REMARK VINA RESULT:      -7.6      0.000      0.000
REMARK  4 active torsions:
REMARK  status: ('A' for Active; 'I' for Inactive)
REMARK    1  A    between atoms: N1_1  and  C1_2 
REMARK    2  A    between atoms: C1_2  and  C2_3 
REMARK    3  A    between atoms: C7_10  and  N4_11 
REMARK    4  A    between atoms: N4_11  and  C8_12 
ROOT
HETATM    1  C2  UNL     1      22.047  -0.431  54.192  1.00  0.00    -0.030 A 
HETATM    2  C3  UNL     1      20.886   0.296  54.043  1.00  0.00     0.011 A 
HETATM    3  C4  UNL     1      20.784   1.380  53.196  1.00  0.00     0.033 A 
HETATM    4  C5  UNL     1      21.899   1.758  52.456  1.00  0.00     0.072 A 
HETATM    5  N2  UNL     1      21.840   2.810  51.605  1.00  0.00    -0.241 NA
HETATM    6  C6  UNL     1      22.951   3.145  50.891  1.00  0.00     0.236 A 
HETATM    7  N3  UNL     1      24.125   2.471  50.993  1.00  0.00    -0.224 NA
HETATM    8  C7  UNL     1      24.202   1.410  51.845  1.00  0.00     0.142 A 
HETATM    9  C14 UNL     1      23.086   1.029  52.598  1.00  0.00     0.039 A 
HETATM   10  C15 UNL     1      23.183  -0.062  53.454  1.00  0.00     0.026 A 
ENDROOT
BRANCH   8  11
HETATM   11  N4  UNL     1      25.345   0.595  52.053  1.00  0.00    -0.340 N 
HETATM   12  H8  UNL     1      25.094  -0.340  51.671  1.00  0.00     0.167 HD
BRANCH  11  13
HETATM   13  C8  UNL     1      26.613   0.885  52.639  1.00  0.00     0.035 A 
HETATM   14  C9  UNL     1      27.000   2.157  53.012  1.00  0.00     0.029 A 
HETATM   15  C10 UNL     1      28.263   2.338  53.585  1.00  0.00     0.004 A 
HETATM   16  C11 UNL     1      29.069   1.233  53.754  1.00  0.00     0.019 A 
HETATM   17  C12 UNL     1      28.690  -0.025  53.388  1.00  0.00     0.013 A 
HETATM   18 BR1  UNL     1      29.806  -1.552  53.630  1.00  0.00    -0.051 Br
HETATM   19  C13 UNL     1      27.441  -0.223  52.818  1.00  0.00     0.048 A 
ENDBRANCH  11  13
ENDBRANCH   8  11
BRANCH   1  20
HETATM   20  C1  UNL     1      22.228  -1.611  55.073  1.00  0.00     0.305 C 
BRANCH  20  21
HETATM   21  N1  UNL     1      23.493  -1.554  55.786  1.00  0.00     0.082 N 
HETATM   22  H1  UNL     1      23.555  -2.304  56.536  1.00  0.00     0.313 HD
HETATM   23  H2  UNL     1      23.595  -0.626  56.299  1.00  0.00     0.313 HD
ENDBRANCH  20  21
ENDBRANCH   1  20
TORSDOF 4
ENDMDL
MODEL 2
REMARK VINA RESULT:      -7.5      3.267      4.731
REMARK  4 active torsions:
REMARK  status: ('A' for Active; 'I' for Inactive)
REMARK    1  A    between atoms: N1_1  and  C1_2 
REMARK    2  A    between atoms: C1_2  and  C2_3 
REMARK    3  A    between atoms: C7_10  and  N4_11 
REMARK    4  A    between atoms: N4_11  and  C8_12 
ROOT
HETATM    1  C2  UNL     1      22.474  -0.541  53.966  1.00  0.00    -0.030 A 
HETATM    2  C3  UNL     1      22.986  -1.218  55.053  1.00  0.00     0.011 A 
HETATM    3  C4  UNL     1      24.326  -1.203  55.381  1.00  0.00     0.033 A 
HETATM    4  C5  UNL     1      25.202  -0.474  54.584  1.00  0.00     0.072 A 
HETATM    5  N2  UNL     1      26.524  -0.425  54.875  1.00  0.00    -0.241 NA
HETATM    6  C6  UNL     1      27.349   0.306  54.077  1.00  0.00     0.236 A 
HETATM    7  N3  UNL     1      26.908   0.993  52.992  1.00  0.00    -0.224 NA
HETATM    8  C7  UNL     1      25.581   0.954  52.683  1.00  0.00     0.142 A 
HETATM    9  C14 UNL     1      24.695   0.217  53.476  1.00  0.00     0.039 A 
HETATM   10  C15 UNL     1      23.344   0.198  53.151  1.00  0.00     0.026 A 
ENDROOT
BRANCH   8  11
HETATM   11  N4  UNL     1      24.962   1.628  51.599  1.00  0.00    -0.340 N 
HETATM   12  H8  UNL     1      24.101   1.083  51.386  1.00  0.00     0.167 HD
BRANCH  11  13
HETATM   13  C8  UNL     1      25.341   2.801  50.881  1.00  0.00     0.035 A 
HETATM   14  C9  UNL     1      26.431   2.851  50.034  1.00  0.00     0.029 A 
HETATM   15  C10 UNL     1      26.716   4.048  49.370  1.00  0.00     0.004 A 
HETATM   16  C11 UNL     1      25.892   5.130  49.590  1.00  0.00     0.019 A 
HETATM   17  C12 UNL     1      24.814   5.086  50.424  1.00  0.00     0.013 A 
HETATM   18 BR1  UNL     1      23.673   6.584  50.720  1.00  0.00    -0.051 Br
HETATM   19  C13 UNL     1      24.516   3.906  51.092  1.00  0.00     0.048 A 
ENDBRANCH  11  13
ENDBRANCH   8  11
BRANCH   1  20
HETATM   20  C1  UNL     1      21.048  -0.503  53.559  1.00  0.00     0.305 C 
BRANCH  20  21
HETATM   21  N1  UNL     1      20.263  -1.495  54.274  1.00  0.00     0.082 N 
HETATM   22  H1  UNL     1      20.808  -1.919  55.082  1.00  0.00     0.313 HD
HETATM   23  H2  UNL     1      20.016  -2.310  53.636  1.00  0.00     0.313 HD
ENDBRANCH  20  21
ENDBRANCH   1  20
TORSDOF 4
ENDMDL
MODEL 3
REMARK VINA RESULT:      -7.5      2.741      4.474
REMARK  4 active torsions:
REMARK  status: ('A' for Active; 'I' for Inactive)
REMARK    1  A    between atoms: N1_1  and  C1_2 
REMARK    2  A    between atoms: C1_2  and  C2_3 
REMARK    3  A    between atoms: C7_10  and  N4_11 
REMARK    4  A    between atoms: N4_11  and  C8_12 
ROOT
HETATM    1  C2  UNL     1      22.148  -0.567  53.997  1.00  0.00    -0.030 A 
HETATM    2  C3  UNL     1      22.581  -1.220  55.132  1.00  0.00     0.011 A 
HETATM    3  C4  UNL     1      23.908  -1.277  55.504  1.00  0.00     0.033 A 
HETATM    4  C5  UNL     1      24.855  -0.649  54.702  1.00  0.00     0.072 A 
HETATM    5  N2  UNL     1      26.168  -0.673  55.035  1.00  0.00    -0.241 NA
HETATM    6  C6  UNL     1      27.065  -0.039  54.230  1.00  0.00     0.236 A 
HETATM    7  N3  UNL     1      26.705   0.619  53.099  1.00  0.00    -0.224 NA
HETATM    8  C7  UNL     1      25.388   0.653  52.748  1.00  0.00     0.142 A 
HETATM    9  C14 UNL     1      24.430   0.017  53.546  1.00  0.00     0.039 A 
HETATM   10  C15 UNL     1      23.092   0.071  53.176  1.00  0.00     0.026 A 
ENDROOT
BRANCH   8  11
HETATM   11  N4  UNL     1      24.849   1.310  51.612  1.00  0.00    -0.340 N 
HETATM   12  H8  UNL     1      24.433   0.557  51.025  1.00  0.00     0.167 HD
BRANCH  11  13
HETATM   13  C8  UNL     1      24.819   2.689  51.249  1.00  0.00     0.035 A 
HETATM   14  C9  UNL     1      23.877   3.577  51.730  1.00  0.00     0.029 A 
HETATM   15  C10 UNL     1      23.936   4.913  51.319  1.00  0.00     0.004 A 
HETATM   16  C11 UNL     1      24.937   5.286  50.449  1.00  0.00     0.019 A 
HETATM   17  C12 UNL     1      25.870   4.412  49.972  1.00  0.00     0.013 A 
HETATM   18 BR1  UNL     1      27.258   4.935  48.773  1.00  0.00    -0.051 Br
HETATM   19  C13 UNL     1      25.826   3.083  50.369  1.00  0.00     0.048 A 
ENDBRANCH  11  13
ENDBRANCH   8  11
BRANCH   1  20
HETATM   20  C1  UNL     1      20.742  -0.455  53.541  1.00  0.00     0.305 C 
BRANCH  20  21
HETATM   21  N1  UNL     1      19.914  -1.507  54.105  1.00  0.00     0.082 N 
HETATM   22  H1  UNL     1      20.429  -2.050  54.860  1.00  0.00     0.313 HD
HETATM   23  H2  UNL     1      19.657  -2.224  53.361  1.00  0.00     0.313 HD
ENDBRANCH  20  21
ENDBRANCH   1  20
TORSDOF 4
ENDMDL
MODEL 4
REMARK VINA RESULT:      -7.1      2.587      4.747
REMARK  4 active torsions:
REMARK  status: ('A' for Active; 'I' for Inactive)
REMARK    1  A    between atoms: N1_1  and  C1_2 
REMARK    2  A    between atoms: C1_2  and  C2_3 
REMARK    3  A    between atoms: C7_10  and  N4_11 
REMARK    4  A    between atoms: N4_11  and  C8_12 
ROOT
HETATM    1  C2  UNL     1      25.239  -0.473  54.390  1.00  0.00    -0.030 A 
HETATM    2  C3  UNL     1      24.727  -1.213  55.434  1.00  0.00     0.011 A 
HETATM    3  C4  UNL     1      23.380  -1.471  55.580  1.00  0.00     0.033 A 
HETATM    4  C5  UNL     1      22.495  -0.965  54.634  1.00  0.00     0.072 A 
HETATM    5  N2  UNL     1      21.165  -1.202  54.734  1.00  0.00    -0.241 NA
HETATM    6  C6  UNL     1      20.331  -0.697  53.783  1.00  0.00     0.236 A 
HETATM    7  N3  UNL     1      20.771   0.041  52.732  1.00  0.00    -0.224 NA
HETATM    8  C7  UNL     1      22.106   0.290  52.616  1.00  0.00     0.142 A 
HETATM    9  C14 UNL     1      23.001  -0.210  53.568  1.00  0.00     0.039 A 
HETATM   10  C15 UNL     1      24.360   0.046  53.427  1.00  0.00     0.026 A 
ENDROOT
BRANCH   8  11
HETATM   11  N4  UNL     1      22.725   1.025  51.572  1.00  0.00    -0.340 N 
HETATM   12  H8  UNL     1      22.885   0.340  50.805  1.00  0.00     0.167 HD
BRANCH  11  13
HETATM   13  C8  UNL     1      23.090   2.401  51.479  1.00  0.00     0.035 A 
HETATM   14  C9  UNL     1      22.390   3.413  52.107  1.00  0.00     0.029 A 
HETATM   15  C10 UNL     1      22.833   4.732  51.960  1.00  0.00     0.004 A 
HETATM   16  C11 UNL     1      23.952   4.964  51.192  1.00  0.00     0.019 A 
HETATM   17  C12 UNL     1      24.646   3.968  50.570  1.00  0.00     0.013 A 
HETATM   18 BR1  UNL     1      26.199   4.294  49.513  1.00  0.00    -0.051 Br
HETATM   19  C13 UNL     1      24.222   2.654  50.705  1.00  0.00     0.048 A 
ENDBRANCH  11  13
ENDBRANCH   8  11
BRANCH   1  20
HETATM   20  C1  UNL     1      26.672  -0.165  54.163  1.00  0.00     0.305 C 
BRANCH  20  21
HETATM   21  N1  UNL     1      27.103   0.975  54.954  1.00  0.00     0.082 N 
HETATM   22  H1  UNL     1      27.966   0.749  55.531  1.00  0.00     0.313 HD
HETATM   23  H2  UNL     1      26.352   1.251  55.657  1.00  0.00     0.313 HD
ENDBRANCH  20  21
ENDBRANCH   1  20
TORSDOF 4
ENDMDL
MODEL 5
REMARK VINA RESULT:      -7.0      3.533      6.095
REMARK  4 active torsions:
REMARK  status: ('A' for Active; 'I' for Inactive)
REMARK    1  A    between atoms: N1_1  and  C1_2 
REMARK    2  A    between atoms: C1_2  and  C2_3 
REMARK    3  A    between atoms: C7_10  and  N4_11 
REMARK    4  A    between atoms: N4_11  and  C8_12 
ROOT
HETATM    1  C2  UNL     1      27.521   5.437  48.583  1.00  0.00    -0.030 A 
HETATM    2  C3  UNL     1      26.738   6.517  48.235  1.00  0.00     0.011 A 
HETATM    3  C4  UNL     1      25.407   6.620  48.581  1.00  0.00     0.033 A 
HETATM    4  C5  UNL     1      24.824   5.591  49.313  1.00  0.00     0.072 A 
HETATM    5  N2  UNL     1      23.522   5.656  49.682  1.00  0.00    -0.241 NA
HETATM    6  C6  UNL     1      22.989   4.633  50.406  1.00  0.00     0.236 A 
HETATM    7  N3  UNL     1      23.705   3.541  50.778  1.00  0.00    -0.224 NA
HETATM    8  C7  UNL     1      25.016   3.459  50.415  1.00  0.00     0.142 A 
HETATM    9  C14 UNL     1      25.607   4.487  49.672  1.00  0.00     0.039 A 
HETATM   10  C15 UNL     1      26.948   4.389  49.321  1.00  0.00     0.026 A 
ENDROOT
BRANCH   8  11
HETATM   11  N4  UNL     1      25.901   2.398  50.739  1.00  0.00    -0.340 N 
HETATM   12  H8  UNL     1      26.625   2.400  49.991  1.00  0.00     0.167 HD
BRANCH  11  13
HETATM   13  C8  UNL     1      25.902   1.471  51.823  1.00  0.00     0.035 A 
HETATM   14  C9  UNL     1      24.751   0.896  52.326  1.00  0.00     0.029 A 
HETATM   15  C10 UNL     1      24.857  -0.008  53.389  1.00  0.00     0.004 A 
HETATM   16  C11 UNL     1      26.110  -0.286  53.888  1.00  0.00     0.019 A 
HETATM   17  C12 UNL     1      27.249   0.280  53.394  1.00  0.00     0.013 A 
HETATM   18 BR1  UNL     1      28.982  -0.114  54.084  1.00  0.00    -0.051 Br
HETATM   19  C13 UNL     1      27.163   1.178  52.340  1.00  0.00     0.048 A 
ENDBRANCH  11  13
ENDBRANCH   8  11
BRANCH   1  20
HETATM   20  C1  UNL     1      28.957   5.262  48.256  1.00  0.00     0.305 C 
BRANCH  20  21
HETATM   21  N1  UNL     1      29.790   6.184  49.011  1.00  0.00     0.082 N 
HETATM   22  H1  UNL     1      29.774   7.160  48.592  1.00  0.00     0.313 HD
HETATM   23  H2  UNL     1      30.809   5.877  48.985  1.00  0.00     0.313 HD
ENDBRANCH  20  21
ENDBRANCH   1  20
TORSDOF 4
ENDMDL
MODEL 6
REMARK VINA RESULT:      -7.0      2.878      4.592
REMARK  4 active torsions:
REMARK  status: ('A' for Active; 'I' for Inactive)
REMARK    1  A    between atoms: N1_1  and  C1_2 
REMARK    2  A    between atoms: C1_2  and  C2_3 
REMARK    3  A    between atoms: C7_10  and  N4_11 
REMARK    4  A    between atoms: N4_11  and  C8_12 
ROOT
HETATM    1  C2  UNL     1      18.963   0.124  51.497  1.00  0.00    -0.030 A 
HETATM    2  C3  UNL     1      18.342  -0.644  52.458  1.00  0.00     0.011 A 
HETATM    3  C4  UNL     1      19.008  -1.162  53.549  1.00  0.00     0.033 A 
HETATM    4  C5  UNL     1      20.367  -0.900  53.690  1.00  0.00     0.072 A 
HETATM    5  N2  UNL     1      21.058  -1.381  54.751  1.00  0.00    -0.241 NA
HETATM    6  C6  UNL     1      22.385  -1.096  54.859  1.00  0.00     0.236 A 
HETATM    7  N3  UNL     1      23.056  -0.348  53.946  1.00  0.00    -0.224 NA
HETATM    8  C7  UNL     1      22.377   0.144  52.872  1.00  0.00     0.142 A 
HETATM    9  C14 UNL     1      21.011  -0.122  52.720  1.00  0.00     0.039 A 
HETATM   10  C15 UNL     1      20.335   0.397  51.623  1.00  0.00     0.026 A 
ENDROOT
BRANCH   8  11
HETATM   11  N4  UNL     1      22.926   0.953  51.844  1.00  0.00    -0.340 N 
HETATM   12  H8  UNL     1      22.135   1.160  51.199  1.00  0.00     0.167 HD
BRANCH  11  13
HETATM   13  C8  UNL     1      24.250   1.442  51.637  1.00  0.00     0.035 A 
HETATM   14  C9  UNL     1      25.375   0.809  52.129  1.00  0.00     0.029 A 
HETATM   15  C10 UNL     1      26.631   1.364  51.867  1.00  0.00     0.004 A 
HETATM   16  C11 UNL     1      26.692   2.524  51.126  1.00  0.00     0.019 A 
HETATM   17  C12 UNL     1      25.583   3.153  50.638  1.00  0.00     0.013 A 
HETATM   18 BR1  UNL     1      25.673   4.754  49.607  1.00  0.00    -0.051 Br
HETATM   19  C13 UNL     1      24.329   2.615  50.888  1.00  0.00     0.048 A 
ENDBRANCH  11  13
ENDBRANCH   8  11
BRANCH   1  20
HETATM   20  C1  UNL     1      18.312   0.722  50.306  1.00  0.00     0.305 C 
BRANCH  20  21
HETATM   21  N1  UNL     1      19.291   1.262  49.378  1.00  0.00     0.082 N 
HETATM   22  H1  UNL     1      20.128   1.675  49.887  1.00  0.00     0.313 HD
HETATM   23  H2  UNL     1      18.873   2.064  48.815  1.00  0.00     0.313 HD
ENDBRANCH  20  21
ENDBRANCH   1  20
TORSDOF 4
ENDMDL
MODEL 7
REMARK VINA RESULT:      -7.0      3.195      5.189
REMARK  4 active torsions:
REMARK  status: ('A' for Active; 'I' for Inactive)
REMARK    1  A    between atoms: N1_1  and  C1_2 
REMARK    2  A    between atoms: C1_2  and  C2_3 
REMARK    3  A    between atoms: C7_10  and  N4_11 
REMARK    4  A    between atoms: N4_11  and  C8_12 
ROOT
HETATM    1  C2  UNL     1      26.675   0.768  53.572  1.00  0.00    -0.030 A 
HETATM    2  C3  UNL     1      26.048  -0.150  54.387  1.00  0.00     0.011 A 
HETATM    3  C4  UNL     1      24.720  -0.496  54.243  1.00  0.00     0.033 A 
HETATM    4  C5  UNL     1      23.978   0.106  53.232  1.00  0.00     0.072 A 
HETATM    5  N2  UNL     1      22.673  -0.211  53.050  1.00  0.00    -0.241 NA
HETATM    6  C6  UNL     1      21.982   0.393  52.045  1.00  0.00     0.236 A 
HETATM    7  N3  UNL     1      22.540   1.306  51.210  1.00  0.00    -0.224 NA
HETATM    8  C7  UNL     1      23.851   1.637  51.379  1.00  0.00     0.142 A 
HETATM    9  C14 UNL     1      24.602   1.042  52.398  1.00  0.00     0.039 A 
HETATM   10  C15 UNL     1      25.940   1.385  52.548  1.00  0.00     0.026 A 
ENDROOT
BRANCH   8  11
HETATM   11  N4  UNL     1      24.583   2.556  50.583  1.00  0.00    -0.340 N 
HETATM   12  H8  UNL     1      25.126   1.974  49.912  1.00  0.00     0.167 HD
BRANCH  11  13
HETATM   13  C8  UNL     1      24.640   3.981  50.604  1.00  0.00     0.035 A 
HETATM   14  C9  UNL     1      23.837   4.758  51.417  1.00  0.00     0.029 A 
HETATM   15  C10 UNL     1      23.973   6.149  51.369  1.00  0.00     0.004 A 
HETATM   16  C11 UNL     1      24.906   6.686  50.509  1.00  0.00     0.019 A 
HETATM   17  C12 UNL     1      25.700   5.923  49.704  1.00  0.00     0.013 A 
HETATM   18 BR1  UNL     1      26.995   6.670  48.521  1.00  0.00    -0.051 Br
HETATM   19  C13 UNL     1      25.580   4.541  49.739  1.00  0.00     0.048 A 
ENDBRANCH  11  13
ENDBRANCH   8  11
BRANCH   1  20
HETATM   20  C1  UNL     1      28.097   1.180  53.660  1.00  0.00     0.305 C 
BRANCH  20  21
HETATM   21  N1  UNL     1      28.224   2.608  53.895  1.00  0.00     0.082 N 
HETATM   22  H1  UNL     1      28.366   2.825  54.926  1.00  0.00     0.313 HD
HETATM   23  H2  UNL     1      27.331   3.117  53.615  1.00  0.00     0.313 HD
ENDBRANCH  20  21
ENDBRANCH   1  20
TORSDOF 4
ENDMDL
MODEL 8
REMARK VINA RESULT:      -6.8      3.105      6.384
REMARK  4 active torsions:
REMARK  status: ('A' for Active; 'I' for Inactive)
REMARK    1  A    between atoms: N1_1  and  C1_2 
REMARK    2  A    between atoms: C1_2  and  C2_3 
REMARK    3  A    between atoms: C7_10  and  N4_11 
REMARK    4  A    between atoms: N4_11  and  C8_12 
ROOT
HETATM    1  C2  UNL     1      24.229   3.684  49.595  1.00  0.00    -0.030 A 
HETATM    2  C3  UNL     1      25.551   3.840  49.235  1.00  0.00     0.011 A 
HETATM    3  C4  UNL     1      26.597   3.369  50.001  1.00  0.00     0.033 A 
HETATM    4  C5  UNL     1      26.310   2.705  51.190  1.00  0.00     0.072 A 
HETATM    5  N2  UNL     1      27.307   2.219  51.967  1.00  0.00    -0.241 NA
HETATM    6  C6  UNL     1      26.986   1.567  53.120  1.00  0.00     0.236 A 
HETATM    7  N3  UNL     1      25.706   1.382  53.531  1.00  0.00    -0.224 NA
HETATM    8  C7  UNL     1      24.691   1.866  52.761  1.00  0.00     0.142 A 
HETATM    9  C14 UNL     1      24.972   2.541  51.568  1.00  0.00     0.039 A 
HETATM   10  C15 UNL     1      23.922   3.017  50.792  1.00  0.00     0.026 A 
ENDROOT
BRANCH   8  11
HETATM   11  N4  UNL     1      23.306   1.740  53.041  1.00  0.00    -0.340 N 
HETATM   12  H8  UNL     1      22.905   2.691  52.902  1.00  0.00     0.167 HD
BRANCH  11  13
HETATM   13  C8  UNL     1      22.523   0.613  53.430  1.00  0.00     0.035 A 
HETATM   14  C9  UNL     1      23.004  -0.399  54.239  1.00  0.00     0.029 A 
HETATM   15  C10 UNL     1      22.156  -1.460  54.571  1.00  0.00     0.004 A 
HETATM   16  C11 UNL     1      20.871  -1.450  54.073  1.00  0.00     0.019 A 
HETATM   17  C12 UNL     1      20.392  -0.453  53.274  1.00  0.00     0.013 A 
HETATM   18 BR1  UNL     1      18.611  -0.441  52.594  1.00  0.00    -0.051 Br
HETATM   19  C13 UNL     1      21.219   0.607  52.935  1.00  0.00     0.048 A 
ENDBRANCH  11  13
ENDBRANCH   8  11
BRANCH   1  20
HETATM   20  C1  UNL     1      23.055   4.153  48.819  1.00  0.00     0.305 C 
BRANCH  20  21
HETATM   21  N1  UNL     1      21.808   3.753  49.448  1.00  0.00     0.082 N 
HETATM   22  H1  UNL     1      20.969   4.215  48.986  1.00  0.00     0.313 HD
HETATM   23  H2  UNL     1      21.782   4.067  50.466  1.00  0.00     0.313 HD
ENDBRANCH  20  21
ENDBRANCH   1  20
TORSDOF 4
ENDMDL
MODEL 9
REMARK VINA RESULT:      -6.8      3.389      6.965
REMARK  4 active torsions:
REMARK  status: ('A' for Active; 'I' for Inactive)
REMARK    1  A    between atoms: N1_1  and  C1_2 
REMARK    2  A    between atoms: C1_2  and  C2_3 
REMARK    3  A    between atoms: C7_10  and  N4_11 
REMARK    4  A    between atoms: N4_11  and  C8_12 
ROOT
HETATM    1  C2  UNL     1      25.117   3.287  50.923  1.00  0.00    -0.030 A 
HETATM    2  C3  UNL     1      26.382   2.742  50.977  1.00  0.00     0.011 A 
HETATM    3  C4  UNL     1      26.671   1.585  51.670  1.00  0.00     0.033 A 
HETATM    4  C5  UNL     1      25.643   0.934  52.345  1.00  0.00     0.072 A 
HETATM    5  N2  UNL     1      25.881  -0.210  53.030  1.00  0.00    -0.241 NA
HETATM    6  C6  UNL     1      24.847  -0.823  53.670  1.00  0.00     0.236 A 
HETATM    7  N3  UNL     1      23.579  -0.337  53.658  1.00  0.00    -0.224 NA
HETATM    8  C7  UNL     1      23.322   0.813  52.974  1.00  0.00     0.142 A 
HETATM    9  C14 UNL     1      24.353   1.477  52.299  1.00  0.00     0.039 A 
HETATM   10  C15 UNL     1      24.068   2.643  51.600  1.00  0.00     0.026 A 
ENDROOT
BRANCH   8  11
HETATM   11  N4  UNL     1      22.054   1.438  52.850  1.00  0.00    -0.340 N 
HETATM   12  H8  UNL     1      22.123   2.321  53.397  1.00  0.00     0.167 HD
BRANCH  11  13
HETATM   13  C8  UNL     1      20.875   1.042  52.152  1.00  0.00     0.035 A 
HETATM   14  C9  UNL     1      20.580   1.457  50.868  1.00  0.00     0.029 A 
HETATM   15  C10 UNL     1      19.400   1.007  50.267  1.00  0.00     0.004 A 
HETATM   16  C11 UNL     1      18.580   0.165  50.986  1.00  0.00     0.019 A 
HETATM   17  C12 UNL     1      18.866  -0.247  52.254  1.00  0.00     0.013 A 
HETATM   18 BR1  UNL     1      17.731  -1.417  53.242  1.00  0.00    -0.051 Br
HETATM   19  C13 UNL     1      20.033   0.189  52.866  1.00  0.00     0.048 A 
ENDBRANCH  11  13
ENDBRANCH   8  11
BRANCH   1  20
HETATM   20  C1  UNL     1      24.730   4.518  50.193  1.00  0.00     0.305 C 
BRANCH  20  21
HETATM   21  N1  UNL     1      25.715   5.571  50.367  1.00  0.00     0.082 N 
HETATM   22  H1  UNL     1      25.543   6.127  51.256  1.00  0.00     0.313 HD
HETATM   23  H2  UNL     1      25.656   6.278  49.572  1.00  0.00     0.313 HD
ENDBRANCH  20  21
ENDBRANCH   1  20
TORSDOF 4
ENDMDL
