MODEL 1
REMARK VINA RESULT:      -8.6      0.000      0.000
REMARK  6 active torsions:
REMARK  status: ('A' for Active; 'I' for Inactive)
REMARK    1  A    between atoms: C2_2  and  O1_3 
REMARK    2  A    between atoms: O1_3  and  C3_4 
REMARK    3  A    between atoms: C8_11  and  N3_12 
REMARK    4  A    between atoms: N3_12  and  C9_13 
REMARK    5  A    between atoms: C16_22  and  O2_23 
REMARK    6  A    between atoms: O2_23  and  C17_24 
ROOT
HETATM    1  C3  UNL     1      20.674   1.242  52.075  1.00  0.00     0.103 A 
HETATM    2  C4  UNL     1      19.627   0.425  52.530  1.00  0.00     0.042 A 
HETATM    3  C5  UNL     1      19.934  -0.545  53.456  1.00  0.00     0.035 A 
HETATM    4  C6  UNL     1      21.219  -0.737  53.945  1.00  0.00     0.075 A 
HETATM    5  N1  UNL     1      21.464  -1.691  54.853  1.00  0.00    -0.241 NA
HETATM    6  C7  UNL     1      22.715  -1.836  55.306  1.00  0.00     0.236 A 
HETATM    7  N2  UNL     1      23.658  -1.013  54.828  1.00  0.00    -0.223 NA
HETATM    8  C8  UNL     1      23.417  -0.059  53.921  1.00  0.00     0.144 A 
HETATM    9  C15 UNL     1      22.161   0.100  53.449  1.00  0.00     0.075 A 
HETATM   10  C16 UNL     1      22.009   1.100  52.534  1.00  0.00     0.118 A 
ENDROOT
BRANCH   8  11
HETATM   11  N3  UNL     1      24.506   0.736  53.545  1.00  0.00    -0.340 N 
HETATM   12  H9  UNL     1      24.921   1.621  53.293  1.00  0.00     0.167 HD
BRANCH  11  13
HETATM   13  C9  UNL     1      25.793   0.154  53.385  1.00  0.00     0.035 A 
HETATM   14  C10 UNL     1      26.283  -1.041  52.836  1.00  0.00     0.032 A 
HETATM   15  C11 UNL     1      27.598  -1.436  52.801  1.00  0.00     0.046 A 
HETATM   16  C12 UNL     1      28.495  -0.574  53.356  1.00  0.00     0.138 A 
HETATM   17  F1  UNL     1      29.780  -1.003  53.301  1.00  0.00    -0.204 F 
HETATM   18  C13 UNL     1      28.100   0.618  53.917  1.00  0.00     0.074 A 
HETATM   19 CL1  UNL     1      29.442   1.562  54.571  1.00  0.00    -0.081 Cl
HETATM   20  C14 UNL     1      26.769   1.004  53.946  1.00  0.00     0.056 A 
ENDBRANCH  11  13
ENDBRANCH   8  11
BRANCH  10  21
HETATM   21  O2  UNL     1      22.730   1.976  51.950  1.00  0.00    -0.342 OA
BRANCH  21  22
HETATM   22  C17 UNL     1      23.465   2.893  51.385  1.00  0.00     0.132 C 
HETATM   23  C18 UNL     1      23.959   2.707  49.961  1.00  0.00     0.062 C 
HETATM   24  C19 UNL     1      25.001   3.752  49.616  1.00  0.00     0.272 C 
HETATM   25  N4  UNL     1      25.232   4.539  50.811  1.00  0.00     0.083 N 
HETATM   26  C20 UNL     1      24.010   5.255  51.125  1.00  0.00     0.272 C 
HETATM   27  H18 UNL     1      25.987   5.236  50.679  1.00  0.00     0.315 HD
HETATM   28  C21 UNL     1      22.850   4.322  51.405  1.00  0.00     0.062 C 
ENDBRANCH  21  22
ENDBRANCH  10  21
BRANCH   1  29
HETATM   29  O1  UNL     1      20.288   2.182  51.149  1.00  0.00    -0.349 OA
BRANCH  29  30
HETATM   30  C2  UNL     1      19.808   1.896  49.889  1.00  0.00     0.171 C 
HETATM   31  C1  UNL     1      20.837   1.263  49.004  1.00  0.00     0.034 C 
ENDBRANCH  29  30
ENDBRANCH   1  29
TORSDOF 6
ENDMDL
MODEL 2
REMARK VINA RESULT:      -8.1      3.405      5.645
REMARK  6 active torsions:
REMARK  status: ('A' for Active; 'I' for Inactive)
REMARK    1  A    between atoms: C2_2  and  O1_3 
REMARK    2  A    between atoms: O1_3  and  C3_4 
REMARK    3  A    between atoms: C8_11  and  N3_12 
REMARK    4  A    between atoms: N3_12  and  C9_13 
REMARK    5  A    between atoms: C16_22  and  O2_23 
REMARK    6  A    between atoms: O2_23  and  C17_24 
ROOT
HETATM    1  C3  UNL     1      23.853  -0.218  53.426  1.00  0.00     0.103 A 
HETATM    2  C4  UNL     1      24.688  -0.806  54.389  1.00  0.00     0.042 A 
HETATM    3  C5  UNL     1      25.984  -0.352  54.468  1.00  0.00     0.035 A 
HETATM    4  C6  UNL     1      26.482   0.648  53.644  1.00  0.00     0.075 A 
HETATM    5  N1  UNL     1      27.751   1.060  53.767  1.00  0.00    -0.241 NA
HETATM    6  C7  UNL     1      28.187   2.034  52.959  1.00  0.00     0.236 A 
HETATM    7  N2  UNL     1      27.328   2.548  52.069  1.00  0.00    -0.223 NA
HETATM    8  C8  UNL     1      26.060   2.139  51.944  1.00  0.00     0.144 A 
HETATM    9  C15 UNL     1      25.602   1.154  52.748  1.00  0.00     0.075 A 
HETATM   10  C16 UNL     1      24.297   0.808  52.553  1.00  0.00     0.118 A 
ENDROOT
BRANCH   8  11
HETATM   11  N3  UNL     1      25.282   2.798  50.985  1.00  0.00    -0.340 N 
HETATM   12  H9  UNL     1      24.415   2.955  50.492  1.00  0.00     0.167 HD
BRANCH  11  13
HETATM   13  C9  UNL     1      25.854   3.825  50.186  1.00  0.00     0.035 A 
HETATM   14  C10 UNL     1      26.948   3.913  49.312  1.00  0.00     0.032 A 
HETATM   15  C11 UNL     1      27.357   5.037  48.637  1.00  0.00     0.046 A 
HETATM   16  C12 UNL     1      26.618   6.163  48.850  1.00  0.00     0.138 A 
HETATM   17  F1  UNL     1      27.057   7.248  48.167  1.00  0.00    -0.204 F 
HETATM   18  C13 UNL     1      25.532   6.165  49.692  1.00  0.00     0.074 A 
HETATM   19 CL1  UNL     1      24.738   7.739  49.805  1.00  0.00    -0.081 Cl
HETATM   20  C14 UNL     1      25.130   5.023  50.367  1.00  0.00     0.056 A 
ENDBRANCH  11  13
ENDBRANCH   8  11
BRANCH  10  21
HETATM   21  O2  UNL     1      23.324   1.142  51.798  1.00  0.00    -0.342 OA
BRANCH  21  22
HETATM   22  C17 UNL     1      22.353   1.477  50.995  1.00  0.00     0.132 C 
HETATM   23  C18 UNL     1      21.249   0.485  50.675  1.00  0.00     0.062 C 
HETATM   24  C19 UNL     1      20.392   0.988  49.530  1.00  0.00     0.272 C 
HETATM   25  N4  UNL     1      20.979   2.232  49.070  1.00  0.00     0.083 N 
HETATM   26  C20 UNL     1      20.865   3.208  50.139  1.00  0.00     0.272 C 
HETATM   27  H18 UNL     1      20.490   2.609  48.239  1.00  0.00     0.315 HD
HETATM   28  C21 UNL     1      21.606   2.783  51.389  1.00  0.00     0.062 C 
ENDBRANCH  21  22
ENDBRANCH  10  21
BRANCH   1  29
HETATM   29  O1  UNL     1      22.577  -0.729  53.407  1.00  0.00    -0.349 OA
BRANCH  29  30
HETATM   30  C2  UNL     1      21.704  -0.710  54.474  1.00  0.00     0.171 C 
HETATM   31  C1  UNL     1      20.812   0.492  54.474  1.00  0.00     0.034 C 
ENDBRANCH  29  30
ENDBRANCH   1  29
TORSDOF 6
ENDMDL
MODEL 3
REMARK VINA RESULT:      -8.0      1.539      4.824
REMARK  6 active torsions:
REMARK  status: ('A' for Active; 'I' for Inactive)
REMARK    1  A    between atoms: C2_2  and  O1_3 
REMARK    2  A    between atoms: O1_3  and  C3_4 
REMARK    3  A    between atoms: C8_11  and  N3_12 
REMARK    4  A    between atoms: N3_12  and  C9_13 
REMARK    5  A    between atoms: C16_22  and  O2_23 
REMARK    6  A    between atoms: O2_23  and  C17_24 
ROOT
HETATM    1  C3  UNL     1      22.022   3.299  50.573  1.00  0.00     0.103 A 
HETATM    2  C4  UNL     1      22.141   4.265  49.562  1.00  0.00     0.042 A 
HETATM    3  C5  UNL     1      23.409   4.577  49.129  1.00  0.00     0.035 A 
HETATM    4  C6  UNL     1      24.549   3.978  49.647  1.00  0.00     0.075 A 
HETATM    5  N1  UNL     1      25.761   4.311  49.184  1.00  0.00    -0.241 NA
HETATM    6  C7  UNL     1      26.834   3.702  49.705  1.00  0.00     0.236 A 
HETATM    7  N2  UNL     1      26.636   2.786  50.663  1.00  0.00    -0.223 NA
HETATM    8  C8  UNL     1      25.427   2.451  51.127  1.00  0.00     0.144 A 
HETATM    9  C15 UNL     1      24.333   3.058  50.617  1.00  0.00     0.075 A 
HETATM   10  C16 UNL     1      23.144   2.648  51.146  1.00  0.00     0.118 A 
ENDROOT
BRANCH   8  11
HETATM   11  N3  UNL     1      25.388   1.455  52.110  1.00  0.00    -0.340 N 
HETATM   12  H9  UNL     1      24.897   0.792  52.691  1.00  0.00     0.167 HD
BRANCH  11  13
HETATM   13  C9  UNL     1      26.591   1.017  52.728  1.00  0.00     0.035 A 
HETATM   14  C10 UNL     1      27.620   1.637  53.453  1.00  0.00     0.032 A 
HETATM   15  C11 UNL     1      28.739   1.021  53.959  1.00  0.00     0.046 A 
HETATM   16  C12 UNL     1      28.841  -0.318  53.724  1.00  0.00     0.138 A 
HETATM   17  F1  UNL     1      29.959  -0.885  54.239  1.00  0.00    -0.204 F 
HETATM   18  C13 UNL     1      27.878  -1.003  53.022  1.00  0.00     0.074 A 
HETATM   19 CL1  UNL     1      28.232  -2.725  52.847  1.00  0.00    -0.081 Cl
HETATM   20  C14 UNL     1      26.754  -0.369  52.516  1.00  0.00     0.056 A 
ENDBRANCH  11  13
ENDBRANCH   8  11
BRANCH  10  21
HETATM   21  O2  UNL     1      22.725   1.827  52.029  1.00  0.00    -0.342 OA
BRANCH  21  22
HETATM   22  C17 UNL     1      22.301   0.959  52.905  1.00  0.00     0.132 C 
HETATM   23  C18 UNL     1      20.919   1.104  53.517  1.00  0.00     0.062 C 
HETATM   24  C19 UNL     1      20.750   0.156  54.688  1.00  0.00     0.272 C 
HETATM   25  N4  UNL     1      22.017  -0.523  54.875  1.00  0.00     0.083 N 
HETATM   26  C20 UNL     1      22.269  -1.343  53.705  1.00  0.00     0.272 C 
HETATM   27  H18 UNL     1      22.007  -1.143  55.705  1.00  0.00     0.315 HD
HETATM   28  C21 UNL     1      22.370  -0.523  52.436  1.00  0.00     0.062 C 
ENDBRANCH  21  22
ENDBRANCH  10  21
BRANCH   1  29
HETATM   29  O1  UNL     1      20.724   3.048  50.954  1.00  0.00    -0.349 OA
BRANCH  29  30
HETATM   30  C2  UNL     1      19.756   2.500  50.140  1.00  0.00     0.171 C 
HETATM   31  C1  UNL     1      20.087   1.110  49.696  1.00  0.00     0.034 C 
ENDBRANCH  29  30
ENDBRANCH   1  29
TORSDOF 6
ENDMDL
MODEL 4
REMARK VINA RESULT:      -7.9      3.381      6.068
REMARK  6 active torsions:
REMARK  status: ('A' for Active; 'I' for Inactive)
REMARK    1  A    between atoms: C2_2  and  O1_3 
REMARK    2  A    between atoms: O1_3  and  C3_4 
REMARK    3  A    between atoms: C8_11  and  N3_12 
REMARK    4  A    between atoms: N3_12  and  C9_13 
REMARK    5  A    between atoms: C16_22  and  O2_23 
REMARK    6  A    between atoms: O2_23  and  C17_24 
ROOT
HETATM    1  C3  UNL     1      22.157   0.602  51.640  1.00  0.00     0.103 A 
HETATM    2  C4  UNL     1      20.881   0.331  51.121  1.00  0.00     0.042 A 
HETATM    3  C5  UNL     1      20.502   1.005  49.983  1.00  0.00     0.035 A 
HETATM    4  C6  UNL     1      21.324   1.923  49.345  1.00  0.00     0.075 A 
HETATM    5  N1  UNL     1      20.910   2.547  48.234  1.00  0.00    -0.241 NA
HETATM    6  C7  UNL     1      21.738   3.418  47.643  1.00  0.00     0.236 A 
HETATM    7  N2  UNL     1      22.943   3.617  48.197  1.00  0.00    -0.223 NA
HETATM    8  C8  UNL     1      23.359   2.996  49.306  1.00  0.00     0.144 A 
HETATM    9  C15 UNL     1      22.536   2.116  49.918  1.00  0.00     0.075 A 
HETATM   10  C16 UNL     1      23.047   1.527  51.037  1.00  0.00     0.118 A 
ENDROOT
BRANCH   8  11
HETATM   11  N3  UNL     1      24.656   3.292  49.740  1.00  0.00    -0.340 N 
HETATM   12  H9  UNL     1      25.569   3.024  50.075  1.00  0.00     0.167 HD
BRANCH  11  13
HETATM   13  C9  UNL     1      25.094   4.643  49.807  1.00  0.00     0.035 A 
HETATM   14  C10 UNL     1      24.634   5.807  50.441  1.00  0.00     0.032 A 
HETATM   15  C11 UNL     1      25.204   7.054  50.358  1.00  0.00     0.046 A 
HETATM   16  C12 UNL     1      26.322   7.148  49.583  1.00  0.00     0.138 A 
HETATM   17  F1  UNL     1      26.852   8.394  49.528  1.00  0.00    -0.204 F 
HETATM   18  C13 UNL     1      26.840   6.056  48.927  1.00  0.00     0.074 A 
HETATM   19 CL1  UNL     1      28.289   6.428  47.987  1.00  0.00    -0.081 Cl
HETATM   20  C14 UNL     1      26.253   4.804  49.019  1.00  0.00     0.056 A 
ENDBRANCH  11  13
ENDBRANCH   8  11
BRANCH  10  21
HETATM   21  O2  UNL     1      24.121   1.558  51.726  1.00  0.00    -0.342 OA
BRANCH  21  22
HETATM   22  C17 UNL     1      25.197   1.603  52.460  1.00  0.00     0.132 C 
HETATM   23  C18 UNL     1      25.375   0.634  53.615  1.00  0.00     0.062 C 
HETATM   24  C19 UNL     1      26.552   1.041  54.480  1.00  0.00     0.272 C 
HETATM   25  N4  UNL     1      27.067   2.285  53.943  1.00  0.00     0.083 N 
HETATM   26  C20 UNL     1      27.593   2.023  52.617  1.00  0.00     0.272 C 
HETATM   27  H18 UNL     1      27.835   2.670  54.522  1.00  0.00     0.315 HD
HETATM   28  C21 UNL     1      26.531   1.516  51.664  1.00  0.00     0.062 C 
ENDBRANCH  21  22
ENDBRANCH  10  21
BRANCH   1  29
HETATM   29  O1  UNL     1      22.458  -0.107  52.779  1.00  0.00    -0.349 OA
BRANCH  29  30
HETATM   30  C2  UNL     1      21.667  -0.160  53.907  1.00  0.00     0.171 C 
HETATM   31  C1  UNL     1      22.257  -1.007  54.991  1.00  0.00     0.034 C 
ENDBRANCH  29  30
ENDBRANCH   1  29
TORSDOF 6
ENDMDL
MODEL 5
REMARK VINA RESULT:      -7.6      3.391      5.712
REMARK  6 active torsions:
REMARK  status: ('A' for Active; 'I' for Inactive)
REMARK    1  A    between atoms: C2_2  and  O1_3 
REMARK    2  A    between atoms: O1_3  and  C3_4 
REMARK    3  A    between atoms: C8_11  and  N3_12 
REMARK    4  A    between atoms: N3_12  and  C9_13 
REMARK    5  A    between atoms: C16_22  and  O2_23 
REMARK    6  A    between atoms: O2_23  and  C17_24 
ROOT
HETATM    1  C3  UNL     1      23.339  -0.011  53.021  1.00  0.00     0.103 A 
HETATM    2  C4  UNL     1      24.073  -0.604  54.060  1.00  0.00     0.042 A 
HETATM    3  C5  UNL     1      25.388  -0.225  54.205  1.00  0.00     0.035 A 
HETATM    4  C6  UNL     1      25.997   0.705  53.375  1.00  0.00     0.075 A 
HETATM    5  N1  UNL     1      27.279   1.046  53.564  1.00  0.00    -0.241 NA
HETATM    6  C7  UNL     1      27.826   1.956  52.748  1.00  0.00     0.236 A 
HETATM    7  N2  UNL     1      27.058   2.480  51.783  1.00  0.00    -0.223 NA
HETATM    8  C8  UNL     1      25.777   2.142  51.592  1.00  0.00     0.144 A 
HETATM    9  C15 UNL     1      25.209   1.223  52.404  1.00  0.00     0.075 A 
HETATM   10  C16 UNL     1      23.900   0.947  52.138  1.00  0.00     0.118 A 
ENDROOT
BRANCH   8  11
HETATM   11  N3  UNL     1      25.104   2.803  50.558  1.00  0.00    -0.340 N 
HETATM   12  H9  UNL     1      24.622   2.817  49.671  1.00  0.00     0.167 HD
BRANCH  11  13
HETATM   13  C9  UNL     1      24.896   4.208  50.627  1.00  0.00     0.035 A 
HETATM   14  C10 UNL     1      24.060   5.055  51.371  1.00  0.00     0.032 A 
HETATM   15  C11 UNL     1      23.995   6.422  51.267  1.00  0.00     0.046 A 
HETATM   16  C12 UNL     1      24.828   6.992  50.349  1.00  0.00     0.138 A 
HETATM   17  F1  UNL     1      24.730   8.342  50.279  1.00  0.00    -0.204 F 
HETATM   18  C13 UNL     1      25.678   6.235  49.578  1.00  0.00     0.074 A 
HETATM   19 CL1  UNL     1      26.655   7.197  48.465  1.00  0.00    -0.081 Cl
HETATM   20  C14 UNL     1      25.733   4.855  49.693  1.00  0.00     0.056 A 
ENDBRANCH  11  13
ENDBRANCH   8  11
BRANCH  10  21
HETATM   21  O2  UNL     1      22.999   1.304  51.308  1.00  0.00    -0.342 OA
BRANCH  21  22
HETATM   22  C17 UNL     1      22.051   1.657  50.485  1.00  0.00     0.132 C 
HETATM   23  C18 UNL     1      21.132   2.816  50.831  1.00  0.00     0.062 C 
HETATM   24  C19 UNL     1      19.957   2.871  49.875  1.00  0.00     0.272 C 
HETATM   25  N4  UNL     1      20.072   1.729  48.989  1.00  0.00     0.083 N 
HETATM   26  C20 UNL     1      21.271   1.897  48.188  1.00  0.00     0.272 C 
HETATM   27  H18 UNL     1      19.265   1.654  48.344  1.00  0.00     0.315 HD
HETATM   28  C21 UNL     1      22.526   1.951  49.034  1.00  0.00     0.062 C 
ENDBRANCH  21  22
ENDBRANCH  10  21
BRANCH   1  29
HETATM   29  O1  UNL     1      22.037  -0.445  52.939  1.00  0.00    -0.349 OA
BRANCH  29  30
HETATM   30  C2  UNL     1      21.042  -0.128  53.839  1.00  0.00     0.171 C 
HETATM   31  C1  UNL     1      19.683  -0.556  53.379  1.00  0.00     0.034 C 
ENDBRANCH  29  30
ENDBRANCH   1  29
TORSDOF 6
ENDMDL
MODEL 6
REMARK VINA RESULT:      -7.6      3.901      6.253
REMARK  6 active torsions:
REMARK  status: ('A' for Active; 'I' for Inactive)
REMARK    1  A    between atoms: C2_2  and  O1_3 
REMARK    2  A    between atoms: O1_3  and  C3_4 
REMARK    3  A    between atoms: C8_11  and  N3_12 
REMARK    4  A    between atoms: N3_12  and  C9_13 
REMARK    5  A    between atoms: C16_22  and  O2_23 
REMARK    6  A    between atoms: O2_23  and  C17_24 
ROOT
HETATM    1  C3  UNL     1      25.219   1.087  51.894  1.00  0.00     0.103 A 
HETATM    2  C4  UNL     1      26.231   0.392  52.575  1.00  0.00     0.042 A 
HETATM    3  C5  UNL     1      25.857  -0.383  53.648  1.00  0.00     0.035 A 
HETATM    4  C6  UNL     1      24.539  -0.500  54.067  1.00  0.00     0.075 A 
HETATM    5  N1  UNL     1      24.226  -1.277  55.113  1.00  0.00    -0.241 NA
HETATM    6  C7  UNL     1      22.941  -1.369  55.478  1.00  0.00     0.236 A 
HETATM    7  N2  UNL     1      22.034  -0.680  54.773  1.00  0.00    -0.223 NA
HETATM    8  C8  UNL     1      22.343   0.096  53.728  1.00  0.00     0.144 A 
HETATM    9  C15 UNL     1      23.635   0.205  53.347  1.00  0.00     0.075 A 
HETATM   10  C16 UNL     1      23.854   1.012  52.268  1.00  0.00     0.118 A 
ENDROOT
BRANCH   8  11
HETATM   11  N3  UNL     1      21.275   0.727  53.080  1.00  0.00    -0.340 N 
HETATM   12  H9  UNL     1      20.858   1.512  52.602  1.00  0.00     0.167 HD
BRANCH  11  13
HETATM   13  C9  UNL     1      20.037   0.046  52.918  1.00  0.00     0.035 A 
HETATM   14  C10 UNL     1      19.317  -0.899  53.663  1.00  0.00     0.032 A 
HETATM   15  C11 UNL     1      18.116  -1.464  53.309  1.00  0.00     0.046 A 
HETATM   16  C12 UNL     1      17.591  -1.054  52.120  1.00  0.00     0.138 A 
HETATM   17  F1  UNL     1      16.407  -1.637  51.810  1.00  0.00    -0.204 F 
HETATM   18  C13 UNL     1      18.232  -0.132  51.328  1.00  0.00     0.074 A 
HETATM   19 CL1  UNL     1      17.356   0.239  49.838  1.00  0.00    -0.081 Cl
HETATM   20  C14 UNL     1      19.444   0.430  51.697  1.00  0.00     0.056 A 
ENDBRANCH  11  13
ENDBRANCH   8  11
BRANCH  10  21
HETATM   21  O2  UNL     1      23.177   1.741  51.470  1.00  0.00    -0.342 OA
BRANCH  21  22
HETATM   22  C17 UNL     1      22.507   2.517  50.664  1.00  0.00     0.132 C 
HETATM   23  C18 UNL     1      22.951   3.952  50.440  1.00  0.00     0.062 C 
HETATM   24  C19 UNL     1      21.888   4.732  49.693  1.00  0.00     0.272 C 
HETATM   25  N4  UNL     1      20.755   3.846  49.513  1.00  0.00     0.083 N 
HETATM   26  C20 UNL     1      21.164   2.758  48.644  1.00  0.00     0.272 C 
HETATM   27  H18 UNL     1      19.952   4.326  49.068  1.00  0.00     0.315 HD
HETATM   28  C21 UNL     1      22.296   1.943  49.234  1.00  0.00     0.062 C 
ENDBRANCH  21  22
ENDBRANCH  10  21
BRANCH   1  29
HETATM   29  O1  UNL     1      25.674   1.843  50.839  1.00  0.00    -0.349 OA
BRANCH  29  30
HETATM   30  C2  UNL     1      26.568   2.888  50.945  1.00  0.00     0.171 C 
HETATM   31  C1  UNL     1      26.642   3.718  49.701  1.00  0.00     0.034 C 
ENDBRANCH  29  30
ENDBRANCH   1  29
TORSDOF 6
ENDMDL
MODEL 7
REMARK VINA RESULT:      -7.6      3.563      5.683
REMARK  6 active torsions:
REMARK  status: ('A' for Active; 'I' for Inactive)
REMARK    1  A    between atoms: C2_2  and  O1_3 
REMARK    2  A    between atoms: O1_3  and  C3_4 
REMARK    3  A    between atoms: C8_11  and  N3_12 
REMARK    4  A    between atoms: N3_12  and  C9_13 
REMARK    5  A    between atoms: C16_22  and  O2_23 
REMARK    6  A    between atoms: O2_23  and  C17_24 
ROOT
HETATM    1  C3  UNL     1      22.610   1.623  51.573  1.00  0.00     0.103 A 
HETATM    2  C4  UNL     1      22.847   0.936  52.774  1.00  0.00     0.042 A 
HETATM    3  C5  UNL     1      24.141   0.898  53.239  1.00  0.00     0.035 A 
HETATM    4  C6  UNL     1      25.196   1.506  52.573  1.00  0.00     0.075 A 
HETATM    5  N1  UNL     1      26.438   1.447  53.074  1.00  0.00    -0.241 NA
HETATM    6  C7  UNL     1      27.426   2.056  52.406  1.00  0.00     0.236 A 
HETATM    7  N2  UNL     1      27.118   2.696  51.269  1.00  0.00    -0.223 NA
HETATM    8  C8  UNL     1      25.878   2.757  50.767  1.00  0.00     0.144 A 
HETATM    9  C15 UNL     1      24.869   2.146  51.426  1.00  0.00     0.075 A 
HETATM   10  C16 UNL     1      23.642   2.266  50.843  1.00  0.00     0.118 A 
ENDROOT
BRANCH   8  11
HETATM   11  N3  UNL     1      25.718   3.490  49.586  1.00  0.00    -0.340 N 
HETATM   12  H9  UNL     1      25.487   3.566  48.606  1.00  0.00     0.167 HD
BRANCH  11  13
HETATM   13  C9  UNL     1      25.975   4.888  49.574  1.00  0.00     0.035 A 
HETATM   14  C10 UNL     1      25.396   6.011  50.185  1.00  0.00     0.032 A 
HETATM   15  C11 UNL     1      25.790   7.316  50.019  1.00  0.00     0.046 A 
HETATM   16  C12 UNL     1      26.845   7.519  49.179  1.00  0.00     0.138 A 
HETATM   17  F1  UNL     1      27.201   8.820  49.044  1.00  0.00    -0.204 F 
HETATM   18  C13 UNL     1      27.469   6.474  48.539  1.00  0.00     0.074 A 
HETATM   19 CL1  UNL     1      28.806   6.988  47.505  1.00  0.00    -0.081 Cl
HETATM   20  C14 UNL     1      27.060   5.162  48.715  1.00  0.00     0.056 A 
ENDBRANCH  11  13
ENDBRANCH   8  11
BRANCH  10  21
HETATM   21  O2  UNL     1      23.126   2.803  49.806  1.00  0.00    -0.342 OA
BRANCH  21  22
HETATM   22  C17 UNL     1      22.636   3.357  48.733  1.00  0.00     0.132 C 
HETATM   23  C18 UNL     1      22.200   2.497  47.560  1.00  0.00     0.062 C 
HETATM   24  C19 UNL     1      21.923   3.354  46.341  1.00  0.00     0.272 C 
HETATM   25  N4  UNL     1      22.250   4.721  46.695  1.00  0.00     0.083 N 
HETATM   26  C20 UNL     1      21.329   5.153  47.730  1.00  0.00     0.272 C 
HETATM   27  H18 UNL     1      22.153   5.366  45.890  1.00  0.00     0.315 HD
HETATM   28  C21 UNL     1      21.436   4.314  48.986  1.00  0.00     0.062 C 
ENDBRANCH  21  22
ENDBRANCH  10  21
BRANCH   1  29
HETATM   29  O1  UNL     1      21.294   1.610  51.173  1.00  0.00    -0.349 OA
BRANCH  29  30
HETATM   30  C2  UNL     1      20.607   0.490  50.755  1.00  0.00     0.171 C 
HETATM   31  C1  UNL     1      19.299   0.313  51.461  1.00  0.00     0.034 C 
ENDBRANCH  29  30
ENDBRANCH   1  29
TORSDOF 6
ENDMDL
MODEL 8
REMARK VINA RESULT:      -7.6      3.615      5.993
REMARK  6 active torsions:
REMARK  status: ('A' for Active; 'I' for Inactive)
REMARK    1  A    between atoms: C2_2  and  O1_3 
REMARK    2  A    between atoms: O1_3  and  C3_4 
REMARK    3  A    between atoms: C8_11  and  N3_12 
REMARK    4  A    between atoms: N3_12  and  C9_13 
REMARK    5  A    between atoms: C16_22  and  O2_23 
REMARK    6  A    between atoms: O2_23  and  C17_24 
ROOT
HETATM    1  C3  UNL     1      25.542   1.070  53.174  1.00  0.00     0.103 A 
HETATM    2  C4  UNL     1      25.769  -0.121  53.882  1.00  0.00     0.042 A 
HETATM    3  C5  UNL     1      24.668  -0.842  54.280  1.00  0.00     0.035 A 
HETATM    4  C6  UNL     1      23.368  -0.440  54.008  1.00  0.00     0.075 A 
HETATM    5  N1  UNL     1      22.329  -1.185  54.411  1.00  0.00    -0.241 NA
HETATM    6  C7  UNL     1      21.091  -0.766  54.118  1.00  0.00     0.236 A 
HETATM    7  N2  UNL     1      20.958   0.378  53.433  1.00  0.00    -0.223 NA
HETATM    8  C8  UNL     1      21.993   1.123  53.029  1.00  0.00     0.144 A 
HETATM    9  C15 UNL     1      23.250   0.719  53.318  1.00  0.00     0.075 A 
HETATM   10  C16 UNL     1      24.240   1.538  52.861  1.00  0.00     0.118 A 
ENDROOT
BRANCH   8  11
HETATM   11  N3  UNL     1      21.686   2.276  52.298  1.00  0.00    -0.340 N 
HETATM   12  H9  UNL     1      21.572   3.275  52.211  1.00  0.00     0.167 HD
BRANCH  11  13
HETATM   13  C9  UNL     1      21.314   2.175  50.929  1.00  0.00     0.035 A 
HETATM   14  C10 UNL     1      21.599   1.282  49.885  1.00  0.00     0.032 A 
HETATM   15  C11 UNL     1      21.145   1.378  48.592  1.00  0.00     0.046 A 
HETATM   16  C12 UNL     1      20.344   2.446  48.318  1.00  0.00     0.138 A 
HETATM   17  F1  UNL     1      19.919   2.503  47.032  1.00  0.00    -0.204 F 
HETATM   18  C13 UNL     1      20.016   3.369  49.284  1.00  0.00     0.074 A 
HETATM   19 CL1  UNL     1      18.967   4.660  48.688  1.00  0.00    -0.081 Cl
HETATM   20  C14 UNL     1      20.481   3.260  50.584  1.00  0.00     0.056 A 
ENDBRANCH  11  13
ENDBRANCH   8  11
BRANCH  10  21
HETATM   21  O2  UNL     1      24.351   2.632  52.215  1.00  0.00    -0.342 OA
BRANCH  21  22
HETATM   22  C17 UNL     1      24.503   3.752  51.565  1.00  0.00     0.132 C 
HETATM   23  C18 UNL     1      24.432   3.771  50.048  1.00  0.00     0.062 C 
HETATM   24  C19 UNL     1      24.899   5.108  49.507  1.00  0.00     0.272 C 
HETATM   25  N4  UNL     1      25.336   5.900  50.639  1.00  0.00     0.083 N 
HETATM   26  C20 UNL     1      24.181   6.167  51.477  1.00  0.00     0.272 C 
HETATM   27  H18 UNL     1      25.737   6.809  50.347  1.00  0.00     0.315 HD
HETATM   28  C21 UNL     1      23.553   4.899  52.017  1.00  0.00     0.062 C 
ENDBRANCH  21  22
ENDBRANCH  10  21
BRANCH   1  29
HETATM   29  O1  UNL     1      26.692   1.735  52.816  1.00  0.00    -0.349 OA
BRANCH  29  30
HETATM   30  C2  UNL     1      27.969   1.333  53.145  1.00  0.00     0.171 C 
HETATM   31  C1  UNL     1      28.794   2.439  53.727  1.00  0.00     0.034 C 
ENDBRANCH  29  30
ENDBRANCH   1  29
TORSDOF 6
ENDMDL
MODEL 9
REMARK VINA RESULT:      -7.5      2.196      5.481
REMARK  6 active torsions:
REMARK  status: ('A' for Active; 'I' for Inactive)
REMARK    1  A    between atoms: C2_2  and  O1_3 
REMARK    2  A    between atoms: O1_3  and  C3_4 
REMARK    3  A    between atoms: C8_11  and  N3_12 
REMARK    4  A    between atoms: N3_12  and  C9_13 
REMARK    5  A    between atoms: C16_22  and  O2_23 
REMARK    6  A    between atoms: O2_23  and  C17_24 
ROOT
HETATM    1  C3  UNL     1      22.761   5.302  49.856  1.00  0.00     0.103 A 
HETATM    2  C4  UNL     1      23.153   6.419  49.102  1.00  0.00     0.042 A 
HETATM    3  C5  UNL     1      24.469   6.489  48.708  1.00  0.00     0.035 A 
HETATM    4  C6  UNL     1      25.401   5.510  49.024  1.00  0.00     0.075 A 
HETATM    5  N1  UNL     1      26.670   5.622  48.608  1.00  0.00    -0.241 NA
HETATM    6  C7  UNL     1      27.534   4.649  48.926  1.00  0.00     0.236 A 
HETATM    7  N2  UNL     1      27.081   3.612  49.643  1.00  0.00    -0.223 NA
HETATM    8  C8  UNL     1      25.814   3.498  50.059  1.00  0.00     0.144 A 
HETATM    9  C15 UNL     1      24.928   4.470  49.751  1.00  0.00     0.075 A 
HETATM   10  C16 UNL     1      23.661   4.265  50.212  1.00  0.00     0.118 A 
ENDROOT
BRANCH   8  11
HETATM   11  N3  UNL     1      25.493   2.338  50.774  1.00  0.00    -0.340 N 
HETATM   12  H9  UNL     1      24.873   1.578  51.011  1.00  0.00     0.167 HD
BRANCH  11  13
HETATM   13  C9  UNL     1      26.417   1.799  51.711  1.00  0.00     0.035 A 
HETATM   14  C10 UNL     1      27.379   2.335  52.580  1.00  0.00     0.032 A 
HETATM   15  C11 UNL     1      28.208   1.621  53.409  1.00  0.00     0.046 A 
HETATM   16  C12 UNL     1      28.068   0.265  53.371  1.00  0.00     0.138 A 
HETATM   17  F1  UNL     1      28.905  -0.400  54.203  1.00  0.00    -0.204 F 
HETATM   18  C13 UNL     1      27.150  -0.342  52.547  1.00  0.00     0.074 A 
HETATM   19 CL1  UNL     1      27.155  -2.104  52.674  1.00  0.00    -0.081 Cl
HETATM   20  C14 UNL     1      26.319   0.392  51.714  1.00  0.00     0.056 A 
ENDBRANCH  11  13
ENDBRANCH   8  11
BRANCH  10  21
HETATM   21  O2  UNL     1      23.021   3.392  50.887  1.00  0.00    -0.342 OA
BRANCH  21  22
HETATM   22  C17 UNL     1      22.401   2.481  51.584  1.00  0.00     0.132 C 
HETATM   23  C18 UNL     1      21.098   2.814  52.290  1.00  0.00     0.062 C 
HETATM   24  C19 UNL     1      20.707   1.703  53.244  1.00  0.00     0.272 C 
HETATM   25  N4  UNL     1      21.771   0.718  53.214  1.00  0.00     0.083 N 
HETATM   26  C20 UNL     1      21.811   0.135  51.886  1.00  0.00     0.272 C 
HETATM   27  H18 UNL     1      21.613  -0.046  53.895  1.00  0.00     0.315 HD
HETATM   28  C21 UNL     1      22.105   1.163  50.813  1.00  0.00     0.062 C 
ENDBRANCH  21  22
ENDBRANCH  10  21
BRANCH   1  29
HETATM   29  O1  UNL     1      21.433   5.309  50.214  1.00  0.00    -0.349 OA
BRANCH  29  30
HETATM   30  C2  UNL     1      20.377   5.278  49.329  1.00  0.00     0.171 C 
HETATM   31  C1  UNL     1      20.119   3.909  48.780  1.00  0.00     0.034 C 
ENDBRANCH  29  30
ENDBRANCH   1  29
TORSDOF 6
ENDMDL
