MODEL 1
REMARK VINA RESULT:      -7.7      0.000      0.000
REMARK  7 active torsions:
REMARK  status: ('A' for Active; 'I' for Inactive)
REMARK    1  A    between atoms: N1_1  and  C1_2 
REMARK    2  A    between atoms: C1_2  and  O1_3 
REMARK    3  A    between atoms: C1_2  and  S1_4 
REMARK    4  A    between atoms: S1_4  and  C2_5 
REMARK    5  A    between atoms: C2_5  and  N2_6 
REMARK    6  A    between atoms: C11_16  and  C12_17 
REMARK    7  A    between atoms: C12_17  and  C13_18 
ROOT
HETATM    1  N2  UNL     1      25.615   2.314  52.425  1.00  0.00     0.107 N 
HETATM    2  C3  UNL     1      26.169   2.100  53.790  1.00  0.00     0.313 C 
HETATM    3  C4  UNL     1      27.157   1.003  53.634  1.00  0.00    -0.024 A 
HETATM    4  C5  UNL     1      28.512   1.109  53.932  1.00  0.00     0.012 A 
HETATM    5  C6  UNL     1      29.306  -0.003  53.736  1.00  0.00     0.043 A 
HETATM    6  C7  UNL     1      28.737  -1.169  53.258  1.00  0.00     0.117 A 
HETATM    7  F1  UNL     1      29.540  -2.241  53.076  1.00  0.00    -0.206 F 
HETATM    8  C8  UNL     1      27.400  -1.302  52.955  1.00  0.00     0.050 A 
HETATM    9  C9  UNL     1      26.627  -0.178  53.159  1.00  0.00    -0.045 A 
HETATM   10  C10 UNL     1      25.181  -0.077  52.905  1.00  0.00     0.075 C 
HETATM   11  C11 UNL     1      24.762   1.155  52.135  1.00  0.00     0.232 C 
ENDROOT
BRANCH   1  12
HETATM   12  C2  UNL     1      26.762   2.397  51.581  1.00  0.00     0.351 C 
BRANCH  12  13
HETATM   13  S1  UNL     1      26.385   2.942  49.939  1.00  0.00    -0.077 SA
BRANCH  13  14
HETATM   14  C1  UNL     1      26.129   4.657  49.653  1.00  0.00     0.417 C 
BRANCH  14  15
HETATM   15  N1  UNL     1      27.303   5.408  49.263  1.00  0.00     0.117 N 
HETATM   16  H1  UNL     1      28.131   5.181  49.823  1.00  0.00     0.317 HD
HETATM   17  H2  UNL     1      27.508   5.236  48.251  1.00  0.00     0.317 HD
ENDBRANCH  14  15
BRANCH  14  18
HETATM   18  O1  UNL     1      25.518   5.272  50.778  1.00  0.00    -0.360 OA
HETATM   19  H4  UNL     1      24.712   5.758  50.480  1.00  0.00     0.213 HD
ENDBRANCH  14  18
ENDBRANCH  13  14
ENDBRANCH  12  13
ENDBRANCH   1  12
BRANCH  11  20
HETATM   20  C12 UNL     1      23.351   1.557  52.413  1.00  0.00     0.070 C 
BRANCH  20  21
HETATM   21  C13 UNL     1      22.860   2.603  51.445  1.00  0.00    -0.074 A 
HETATM   22  C14 UNL     1      22.826   2.293  50.159  1.00  0.00     0.005 A 
HETATM   23  C15 UNL     1      22.389   3.155  49.073  1.00  0.00     0.022 A 
HETATM   24  P1  UNL     1      21.908   4.624  49.540  1.00  0.00     0.000 P 
HETATM   25 BR1  UNL     1      21.192   6.142  48.092  1.00  0.00    -0.051 Br
HETATM   26  C16 UNL     1      21.988   4.903  51.130  1.00  0.00    -0.001 A 
HETATM   27  C17 UNL     1      22.471   3.880  52.108  1.00  0.00     0.063 A 
ENDBRANCH  20  21
ENDBRANCH  11  20
TORSDOF 7
ENDMDL
MODEL 2
REMARK VINA RESULT:      -7.5      3.243      4.193
REMARK  7 active torsions:
REMARK  status: ('A' for Active; 'I' for Inactive)
REMARK    1  A    between atoms: N1_1  and  C1_2 
REMARK    2  A    between atoms: C1_2  and  O1_3 
REMARK    3  A    between atoms: C1_2  and  S1_4 
REMARK    4  A    between atoms: S1_4  and  C2_5 
REMARK    5  A    between atoms: C2_5  and  N2_6 
REMARK    6  A    between atoms: C11_16  and  C12_17 
REMARK    7  A    between atoms: C12_17  and  C13_18 
ROOT
HETATM    1  N2  UNL     1      25.089  -0.079  52.881  1.00  0.00     0.107 N 
HETATM    2  C3  UNL     1      26.352  -0.461  52.191  1.00  0.00     0.313 C 
HETATM    3  C4  UNL     1      27.425   0.231  52.948  1.00  0.00    -0.024 A 
HETATM    4  C5  UNL     1      28.481  -0.408  53.590  1.00  0.00     0.012 A 
HETATM    5  C6  UNL     1      29.404   0.377  54.252  1.00  0.00     0.043 A 
HETATM    6  C7  UNL     1      29.253   1.750  54.254  1.00  0.00     0.117 A 
HETATM    7  F1  UNL     1      30.173   2.491  54.910  1.00  0.00    -0.206 F 
HETATM    8  C8  UNL     1      28.219   2.409  53.626  1.00  0.00     0.050 A 
HETATM    9  C9  UNL     1      27.309   1.605  52.972  1.00  0.00    -0.045 A 
HETATM   10  C10 UNL     1      26.124   2.077  52.237  1.00  0.00     0.075 C 
HETATM   11  C11 UNL     1      24.848   1.332  52.555  1.00  0.00     0.232 C 
ENDROOT
BRANCH   1  12
HETATM   12  C2  UNL     1      25.353  -0.303  54.265  1.00  0.00     0.351 C 
BRANCH  12  13
HETATM   13  S1  UNL     1      24.016  -1.095  55.113  1.00  0.00    -0.077 SA
BRANCH  13  14
HETATM   14  C1  UNL     1      22.426  -1.108  54.364  1.00  0.00     0.417 C 
BRANCH  14  15
HETATM   15  N1  UNL     1      21.808   0.190  54.188  1.00  0.00     0.117 N 
HETATM   16  H1  UNL     1      21.194   0.452  54.967  1.00  0.00     0.317 HD
HETATM   17  H2  UNL     1      22.552   0.917  54.068  1.00  0.00     0.317 HD
ENDBRANCH  14  15
BRANCH  14  18
HETATM   18  O1  UNL     1      21.542  -1.969  55.066  1.00  0.00    -0.360 OA
HETATM   19  H4  UNL     1      21.311  -2.734  54.486  1.00  0.00     0.213 HD
ENDBRANCH  14  18
ENDBRANCH  13  14
ENDBRANCH  12  13
ENDBRANCH   1  12
BRANCH  11  20
HETATM   20  C12 UNL     1      23.862   1.371  51.436  1.00  0.00     0.070 C 
BRANCH  20  21
HETATM   21  C13 UNL     1      23.324   2.761  51.204  1.00  0.00    -0.074 A 
HETATM   22  C14 UNL     1      22.717   3.368  52.211  1.00  0.00     0.005 A 
HETATM   23  C15 UNL     1      22.133   4.699  52.192  1.00  0.00     0.022 A 
HETATM   24  P1  UNL     1      22.269   5.467  50.778  1.00  0.00     0.000 P 
HETATM   25 BR1  UNL     1      21.468   7.511  50.468  1.00  0.00    -0.051 Br
HETATM   26  C16 UNL     1      23.028   4.641  49.615  1.00  0.00    -0.001 A 
HETATM   27  C17 UNL     1      23.569   3.262  49.822  1.00  0.00     0.063 A 
ENDBRANCH  20  21
ENDBRANCH  11  20
TORSDOF 7
ENDMDL
MODEL 3
REMARK VINA RESULT:      -7.2      2.220      2.512
REMARK  7 active torsions:
REMARK  status: ('A' for Active; 'I' for Inactive)
REMARK    1  A    between atoms: N1_1  and  C1_2 
REMARK    2  A    between atoms: C1_2  and  O1_3 
REMARK    3  A    between atoms: C1_2  and  S1_4 
REMARK    4  A    between atoms: S1_4  and  C2_5 
REMARK    5  A    between atoms: C2_5  and  N2_6 
REMARK    6  A    between atoms: C11_16  and  C12_17 
REMARK    7  A    between atoms: C12_17  and  C13_18 
ROOT
HETATM    1  N2  UNL     1      25.716   2.467  52.416  1.00  0.00     0.107 N 
HETATM    2  C3  UNL     1      26.379   2.089  53.695  1.00  0.00     0.313 C 
HETATM    3  C4  UNL     1      26.976   0.755  53.436  1.00  0.00    -0.024 A 
HETATM    4  C5  UNL     1      28.332   0.461  53.534  1.00  0.00     0.012 A 
HETATM    5  C6  UNL     1      28.734  -0.832  53.264  1.00  0.00     0.043 A 
HETATM    6  C7  UNL     1      27.791  -1.778  52.912  1.00  0.00     0.117 A 
HETATM    7  F1  UNL     1      28.215  -3.035  52.654  1.00  0.00    -0.206 F 
HETATM    8  C8  UNL     1      26.442  -1.515  52.807  1.00  0.00     0.050 A 
HETATM    9  C9  UNL     1      26.065  -0.217  53.081  1.00  0.00    -0.045 A 
HETATM   10  C10 UNL     1      24.688   0.301  53.033  1.00  0.00     0.075 C 
HETATM   11  C11 UNL     1      24.533   1.608  52.290  1.00  0.00     0.232 C 
ENDROOT
BRANCH   1  12
HETATM   12  C2  UNL     1      26.702   2.222  51.415  1.00  0.00     0.351 C 
BRANCH  12  13
HETATM   13  S1  UNL     1      26.437   3.149  49.929  1.00  0.00    -0.077 SA
BRANCH  13  14
HETATM   14  C1  UNL     1      25.637   4.710  50.036  1.00  0.00     0.417 C 
BRANCH  14  15
HETATM   15  N1  UNL     1      24.457   4.866  49.212  1.00  0.00     0.117 N 
HETATM   16  H1  UNL     1      23.602   4.525  49.664  1.00  0.00     0.317 HD
HETATM   17  H2  UNL     1      24.340   5.875  48.957  1.00  0.00     0.317 HD
ENDBRANCH  14  15
BRANCH  14  18
HETATM   18  O1  UNL     1      26.549   5.766  49.774  1.00  0.00    -0.360 OA
HETATM   19  H4  UNL     1      27.192   5.472  49.084  1.00  0.00     0.213 HD
ENDBRANCH  14  18
ENDBRANCH  13  14
ENDBRANCH  12  13
ENDBRANCH   1  12
BRANCH  11  20
HETATM   20  C12 UNL     1      23.354   2.398  52.753  1.00  0.00     0.070 C 
BRANCH  20  21
HETATM   21  C13 UNL     1      22.065   1.889  52.161  1.00  0.00    -0.074 A 
HETATM   22  C14 UNL     1      21.195   1.308  52.971  1.00  0.00     0.005 A 
HETATM   23  C15 UNL     1      19.904   0.754  52.600  1.00  0.00     0.022 A 
HETATM   24  P1  UNL     1      19.545   0.890  51.031  1.00  0.00     0.000 P 
HETATM   25 BR1  UNL     1      17.641   0.130  50.190  1.00  0.00    -0.051 Br
HETATM   26  C16 UNL     1      20.672   1.614  50.127  1.00  0.00    -0.001 A 
HETATM   27  C17 UNL     1      21.958   2.128  50.694  1.00  0.00     0.063 A 
ENDBRANCH  20  21
ENDBRANCH  11  20
TORSDOF 7
ENDMDL
MODEL 4
REMARK VINA RESULT:      -7.2      3.182      4.482
REMARK  7 active torsions:
REMARK  status: ('A' for Active; 'I' for Inactive)
REMARK    1  A    between atoms: N1_1  and  C1_2 
REMARK    2  A    between atoms: C1_2  and  O1_3 
REMARK    3  A    between atoms: C1_2  and  S1_4 
REMARK    4  A    between atoms: S1_4  and  C2_5 
REMARK    5  A    between atoms: C2_5  and  N2_6 
REMARK    6  A    between atoms: C11_16  and  C12_17 
REMARK    7  A    between atoms: C12_17  and  C13_18 
ROOT
HETATM    1  N2  UNL     1      24.332   2.933  51.284  1.00  0.00     0.107 N 
HETATM    2  C3  UNL     1      24.216   1.449  51.256  1.00  0.00     0.313 C 
HETATM    3  C4  UNL     1      25.044   0.979  52.396  1.00  0.00    -0.024 A 
HETATM    4  C5  UNL     1      24.566   0.232  53.468  1.00  0.00     0.012 A 
HETATM    5  C6  UNL     1      25.463  -0.132  54.452  1.00  0.00     0.043 A 
HETATM    6  C7  UNL     1      26.787   0.250  54.342  1.00  0.00     0.117 A 
HETATM    7  F1  UNL     1      27.641  -0.122  55.321  1.00  0.00    -0.206 F 
HETATM    8  C8  UNL     1      27.287   0.989  53.292  1.00  0.00     0.050 A 
HETATM    9  C9  UNL     1      26.373   1.341  52.322  1.00  0.00    -0.045 A 
HETATM   10  C10 UNL     1      26.669   2.128  51.113  1.00  0.00     0.075 C 
HETATM   11  C11 UNL     1      25.695   3.252  50.840  1.00  0.00     0.232 C 
ENDROOT
BRANCH   1  12
HETATM   12  C2  UNL     1      24.083   3.288  52.643  1.00  0.00     0.351 C 
BRANCH  12  13
HETATM   13  S1  UNL     1      23.265   4.848  52.820  1.00  0.00    -0.077 SA
BRANCH  13  14
HETATM   14  C1  UNL     1      22.230   5.415  51.517  1.00  0.00     0.417 C 
BRANCH  14  15
HETATM   15  N1  UNL     1      22.004   6.845  51.475  1.00  0.00     0.117 N 
HETATM   16  H1  UNL     1      21.608   7.216  52.345  1.00  0.00     0.317 HD
HETATM   17  H2  UNL     1      22.906   7.334  51.264  1.00  0.00     0.317 HD
ENDBRANCH  14  15
BRANCH  14  18
HETATM   18  O1  UNL     1      20.984   4.733  51.526  1.00  0.00    -0.360 OA
HETATM   19  H4  UNL     1      20.547   4.874  52.399  1.00  0.00     0.213 HD
ENDBRANCH  14  18
ENDBRANCH  13  14
ENDBRANCH  12  13
ENDBRANCH   1  12
BRANCH  11  20
HETATM   20  C12 UNL     1      25.622   3.613  49.394  1.00  0.00     0.070 C 
BRANCH  20  21
HETATM   21  C13 UNL     1      26.330   4.911  49.099  1.00  0.00    -0.074 A 
HETATM   22  C14 UNL     1      27.559   4.853  48.614  1.00  0.00     0.005 A 
HETATM   23  C15 UNL     1      28.406   5.982  48.266  1.00  0.00     0.022 A 
HETATM   24  P1  UNL     1      27.728   7.427  48.516  1.00  0.00     0.000 P 
HETATM   25 BR1  UNL     1      28.795   9.319  48.073  1.00  0.00    -0.051 Br
HETATM   26  C16 UNL     1      26.225   7.389  49.110  1.00  0.00    -0.001 A 
HETATM   27  C17 UNL     1      25.504   6.113  49.409  1.00  0.00     0.063 A 
ENDBRANCH  20  21
ENDBRANCH  11  20
TORSDOF 7
ENDMDL
MODEL 5
REMARK VINA RESULT:      -7.1      1.700      2.041
REMARK  7 active torsions:
REMARK  status: ('A' for Active; 'I' for Inactive)
REMARK    1  A    between atoms: N1_1  and  C1_2 
REMARK    2  A    between atoms: C1_2  and  O1_3 
REMARK    3  A    between atoms: C1_2  and  S1_4 
REMARK    4  A    between atoms: S1_4  and  C2_5 
REMARK    5  A    between atoms: C2_5  and  N2_6 
REMARK    6  A    between atoms: C11_16  and  C12_17 
REMARK    7  A    between atoms: C12_17  and  C13_18 
ROOT
HETATM    1  N2  UNL     1      24.445   2.204  52.480  1.00  0.00     0.107 N 
HETATM    2  C3  UNL     1      25.252   2.468  53.703  1.00  0.00     0.313 C 
HETATM    3  C4  UNL     1      26.471   1.635  53.545  1.00  0.00    -0.024 A 
HETATM    4  C5  UNL     1      27.771   2.130  53.507  1.00  0.00     0.012 A 
HETATM    5  C6  UNL     1      28.802   1.225  53.358  1.00  0.00     0.043 A 
HETATM    6  C7  UNL     1      28.515  -0.123  53.253  1.00  0.00     0.117 A 
HETATM    7  F1  UNL     1      29.546  -0.985  53.107  1.00  0.00    -0.206 F 
HETATM    8  C8  UNL     1      27.239  -0.641  53.287  1.00  0.00     0.050 A 
HETATM    9  C9  UNL     1      26.225   0.282  53.437  1.00  0.00    -0.045 A 
HETATM   10  C10 UNL     1      24.787  -0.029  53.497  1.00  0.00     0.075 C 
HETATM   11  C11 UNL     1      23.918   0.840  52.617  1.00  0.00     0.232 C 
ENDROOT
BRANCH   1  12
HETATM   12  C2  UNL     1      25.369   2.347  51.402  1.00  0.00     0.351 C 
BRANCH  12  13
HETATM   13  S1  UNL     1      24.787   3.423  50.121  1.00  0.00    -0.077 SA
BRANCH  13  14
HETATM   14  C1  UNL     1      25.818   4.745  49.593  1.00  0.00     0.417 C 
BRANCH  14  15
HETATM   15  N1  UNL     1      27.217   4.414  49.417  1.00  0.00     0.117 N 
HETATM   16  H1  UNL     1      27.771   4.543  50.270  1.00  0.00     0.317 HD
HETATM   17  H2  UNL     1      27.303   3.424  49.090  1.00  0.00     0.317 HD
ENDBRANCH  14  15
BRANCH  14  18
HETATM   18  O1  UNL     1      25.694   5.862  50.459  1.00  0.00    -0.360 OA
HETATM   19  H4  UNL     1      26.256   5.714  51.258  1.00  0.00     0.213 HD
ENDBRANCH  14  18
ENDBRANCH  13  14
ENDBRANCH  12  13
ENDBRANCH   1  12
BRANCH  11  20
HETATM   20  C12 UNL     1      22.517   0.951  53.119  1.00  0.00     0.070 C 
BRANCH  20  21
HETATM   21  C13 UNL     1      21.576   1.471  52.062  1.00  0.00    -0.074 A 
HETATM   22  C14 UNL     1      20.778   2.476  52.381  1.00  0.00     0.005 A 
HETATM   23  C15 UNL     1      19.805   3.117  51.511  1.00  0.00     0.022 A 
HETATM   24  P1  UNL     1      19.737   2.502  50.019  1.00  0.00     0.000 P 
HETATM   25 BR1  UNL     1      18.343   3.288  48.486  1.00  0.00    -0.051 Br
HETATM   26  C16 UNL     1      20.753   1.279  49.731  1.00  0.00    -0.001 A 
HETATM   27  C17 UNL     1      21.694   0.747  50.764  1.00  0.00     0.063 A 
ENDBRANCH  20  21
ENDBRANCH  11  20
TORSDOF 7
ENDMDL
MODEL 6
REMARK VINA RESULT:      -6.9      4.274      6.925
REMARK  7 active torsions:
REMARK  status: ('A' for Active; 'I' for Inactive)
REMARK    1  A    between atoms: N1_1  and  C1_2 
REMARK    2  A    between atoms: C1_2  and  O1_3 
REMARK    3  A    between atoms: C1_2  and  S1_4 
REMARK    4  A    between atoms: S1_4  and  C2_5 
REMARK    5  A    between atoms: C2_5  and  N2_6 
REMARK    6  A    between atoms: C11_16  and  C12_17 
REMARK    7  A    between atoms: C12_17  and  C13_18 
ROOT
HETATM    1  N2  UNL     1      23.264   2.372  50.562  1.00  0.00     0.107 N 
HETATM    2  C3  UNL     1      21.811   2.641  50.377  1.00  0.00     0.313 C 
HETATM    3  C4  UNL     1      21.717   4.106  50.162  1.00  0.00    -0.024 A 
HETATM    4  C5  UNL     1      21.192   4.708  49.022  1.00  0.00     0.012 A 
HETATM    5  C6  UNL     1      21.171   6.087  48.971  1.00  0.00     0.043 A 
HETATM    6  C7  UNL     1      21.663   6.815  50.038  1.00  0.00     0.117 A 
HETATM    7  F1  UNL     1      21.628   8.164  49.959  1.00  0.00    -0.206 F 
HETATM    8  C8  UNL     1      22.188   6.246  51.178  1.00  0.00     0.050 A 
HETATM    9  C9  UNL     1      22.199   4.867  51.206  1.00  0.00    -0.045 A 
HETATM   10  C10 UNL     1      22.710   4.038  52.309  1.00  0.00     0.075 C 
HETATM   11  C11 UNL     1      23.622   2.911  51.880  1.00  0.00     0.232 C 
ENDROOT
BRANCH   1  12
HETATM   12  C2  UNL     1      23.895   3.056  49.481  1.00  0.00     0.351 C 
BRANCH  12  13
HETATM   13  S1  UNL     1      25.578   3.494  49.817  1.00  0.00    -0.077 SA
BRANCH  13  14
HETATM   14  C1  UNL     1      26.115   5.130  49.462  1.00  0.00     0.417 C 
BRANCH  14  15
HETATM   15  N1  UNL     1      27.532   5.281  49.209  1.00  0.00     0.117 N 
HETATM   16  H1  UNL     1      28.101   4.554  49.656  1.00  0.00     0.317 HD
HETATM   17  H2  UNL     1      27.705   5.274  48.176  1.00  0.00     0.317 HD
ENDBRANCH  14  15
BRANCH  14  18
HETATM   18  O1  UNL     1      25.711   6.029  50.484  1.00  0.00    -0.360 OA
HETATM   19  H4  UNL     1      26.332   6.796  50.501  1.00  0.00     0.213 HD
ENDBRANCH  14  18
ENDBRANCH  13  14
ENDBRANCH  12  13
ENDBRANCH   1  12
BRANCH  11  20
HETATM   20  C12 UNL     1      23.625   1.772  52.844  1.00  0.00     0.070 C 
BRANCH  20  21
HETATM   21  C13 UNL     1      25.003   1.189  53.026  1.00  0.00    -0.074 A 
HETATM   22  C14 UNL     1      25.155  -0.113  52.850  1.00  0.00     0.005 A 
HETATM   23  C15 UNL     1      26.394  -0.864  52.978  1.00  0.00     0.022 A 
HETATM   24  P1  UNL     1      27.678   0.031  53.374  1.00  0.00     0.000 P 
HETATM   25 BR1  UNL     1      29.693  -0.856  53.636  1.00  0.00    -0.051 Br
HETATM   26  C16 UNL     1      27.387   1.609  53.565  1.00  0.00    -0.001 A 
HETATM   27  C17 UNL     1      26.028   2.209  53.389  1.00  0.00     0.063 A 
ENDBRANCH  20  21
ENDBRANCH  11  20
TORSDOF 7
ENDMDL
MODEL 7
REMARK VINA RESULT:      -6.8      5.011      7.687
REMARK  7 active torsions:
REMARK  status: ('A' for Active; 'I' for Inactive)
REMARK    1  A    between atoms: N1_1  and  C1_2 
REMARK    2  A    between atoms: C1_2  and  O1_3 
REMARK    3  A    between atoms: C1_2  and  S1_4 
REMARK    4  A    between atoms: S1_4  and  C2_5 
REMARK    5  A    between atoms: C2_5  and  N2_6 
REMARK    6  A    between atoms: C11_16  and  C12_17 
REMARK    7  A    between atoms: C12_17  and  C13_18 
ROOT
HETATM    1  N2  UNL     1      21.705   1.980  52.068  1.00  0.00     0.107 N 
HETATM    2  C3  UNL     1      21.405   3.358  51.588  1.00  0.00     0.313 C 
HETATM    3  C4  UNL     1      21.507   3.277  50.109  1.00  0.00    -0.024 A 
HETATM    4  C5  UNL     1      20.471   3.568  49.226  1.00  0.00     0.012 A 
HETATM    5  C6  UNL     1      20.722   3.449  47.874  1.00  0.00     0.043 A 
HETATM    6  C7  UNL     1      21.975   3.052  47.448  1.00  0.00     0.117 A 
HETATM    7  F1  UNL     1      22.191   2.944  46.118  1.00  0.00    -0.206 F 
HETATM    8  C8  UNL     1      23.019   2.758  48.298  1.00  0.00     0.050 A 
HETATM    9  C9  UNL     1      22.744   2.884  49.644  1.00  0.00    -0.045 A 
HETATM   10  C10 UNL     1      23.693   2.624  50.738  1.00  0.00     0.075 C 
HETATM   11  C11 UNL     1      23.143   1.771  51.859  1.00  0.00     0.232 C 
ENDROOT
BRANCH   1  12
HETATM   12  C2  UNL     1      20.887   1.133  51.263  1.00  0.00     0.351 C 
BRANCH  12  13
HETATM   13  S1  UNL     1      19.582   0.352  52.171  1.00  0.00    -0.077 SA
BRANCH  13  14
HETATM   14  C1  UNL     1      19.995  -0.657  53.550  1.00  0.00     0.417 C 
BRANCH  14  15
HETATM   15  N1  UNL     1      18.993  -1.627  53.936  1.00  0.00     0.117 N 
HETATM   16  H1  UNL     1      18.938  -1.767  54.951  1.00  0.00     0.317 HD
HETATM   17  H2  UNL     1      18.058  -1.327  53.574  1.00  0.00     0.317 HD
ENDBRANCH  14  15
BRANCH  14  18
HETATM   18  O1  UNL     1      20.352   0.138  54.671  1.00  0.00    -0.360 OA
HETATM   19  H4  UNL     1      19.733  -0.059  55.414  1.00  0.00     0.213 HD
ENDBRANCH  14  18
ENDBRANCH  13  14
ENDBRANCH  12  13
ENDBRANCH   1  12
BRANCH  11  20
HETATM   20  C12 UNL     1      23.826   2.020  53.162  1.00  0.00     0.070 C 
BRANCH  20  21
HETATM   21  C13 UNL     1      25.157   1.317  53.247  1.00  0.00    -0.074 A 
HETATM   22  C14 UNL     1      26.234   2.050  53.477  1.00  0.00     0.005 A 
HETATM   23  C15 UNL     1      27.600   1.567  53.592  1.00  0.00     0.022 A 
HETATM   24  P1  UNL     1      27.760  -0.031  53.415  1.00  0.00     0.000 P 
HETATM   25 BR1  UNL     1      29.732  -1.036  53.543  1.00  0.00    -0.051 Br
HETATM   26  C16 UNL     1      26.386  -0.834  53.138  1.00  0.00    -0.001 A 
HETATM   27  C17 UNL     1      25.055  -0.157  53.051  1.00  0.00     0.063 A 
ENDBRANCH  20  21
ENDBRANCH  11  20
TORSDOF 7
ENDMDL
MODEL 8
REMARK VINA RESULT:      -6.7      3.347      4.486
REMARK  7 active torsions:
REMARK  status: ('A' for Active; 'I' for Inactive)
REMARK    1  A    between atoms: N1_1  and  C1_2 
REMARK    2  A    between atoms: C1_2  and  O1_3 
REMARK    3  A    between atoms: C1_2  and  S1_4 
REMARK    4  A    between atoms: S1_4  and  C2_5 
REMARK    5  A    between atoms: C2_5  and  N2_6 
REMARK    6  A    between atoms: C11_16  and  C12_17 
REMARK    7  A    between atoms: C12_17  and  C13_18 
ROOT
HETATM    1  N2  UNL     1      23.677   1.342  52.271  1.00  0.00     0.107 N 
HETATM    2  C3  UNL     1      24.912   1.205  51.451  1.00  0.00     0.313 C 
HETATM    3  C4  UNL     1      25.951   0.730  52.399  1.00  0.00    -0.024 A 
HETATM    4  C5  UNL     1      26.653  -0.465  52.273  1.00  0.00     0.012 A 
HETATM    5  C6  UNL     1      27.592  -0.767  53.239  1.00  0.00     0.043 A 
HETATM    6  C7  UNL     1      27.802   0.114  54.282  1.00  0.00     0.117 A 
HETATM    7  F1  UNL     1      28.729  -0.209  55.211  1.00  0.00    -0.206 F 
HETATM    8  C8  UNL     1      27.123   1.303  54.432  1.00  0.00     0.050 A 
HETATM    9  C9  UNL     1      26.189   1.583  53.456  1.00  0.00    -0.045 A 
HETATM   10  C10 UNL     1      25.341   2.785  53.403  1.00  0.00     0.075 C 
HETATM   11  C11 UNL     1      23.879   2.513  53.134  1.00  0.00     0.232 C 
ENDROOT
BRANCH   1  12
HETATM   12  C2  UNL     1      23.588   0.115  52.994  1.00  0.00     0.351 C 
BRANCH  12  13
HETATM   13  S1  UNL     1      22.024  -0.694  52.809  1.00  0.00    -0.077 SA
BRANCH  13  14
HETATM   14  C1  UNL     1      21.069  -1.031  54.246  1.00  0.00     0.417 C 
BRANCH  14  15
HETATM   15  N1  UNL     1      20.597   0.130  54.970  1.00  0.00     0.117 N 
HETATM   16  H1  UNL     1      20.110  -0.108  55.840  1.00  0.00     0.317 HD
HETATM   17  H2  UNL     1      21.405   0.761  55.183  1.00  0.00     0.317 HD
ENDBRANCH  14  15
BRANCH  14  18
HETATM   18  O1  UNL     1      21.770  -1.895  55.129  1.00  0.00    -0.360 OA
HETATM   19  H4  UNL     1      21.219  -2.696  55.299  1.00  0.00     0.213 HD
ENDBRANCH  14  18
ENDBRANCH  13  14
ENDBRANCH  12  13
ENDBRANCH   1  12
BRANCH  11  20
HETATM   20  C12 UNL     1      23.186   3.667  52.491  1.00  0.00     0.070 C 
BRANCH  20  21
HETATM   21  C13 UNL     1      21.909   3.251  51.807  1.00  0.00    -0.074 A 
HETATM   22  C14 UNL     1      20.893   2.868  52.564  1.00  0.00     0.005 A 
HETATM   23  C15 UNL     1      19.586   2.432  52.101  1.00  0.00     0.022 A 
HETATM   24  P1  UNL     1      19.411   2.434  50.496  1.00  0.00     0.000 P 
HETATM   25 BR1  UNL     1      17.521   1.815  49.518  1.00  0.00    -0.051 Br
HETATM   26  C16 UNL     1      20.709   2.918  49.662  1.00  0.00    -0.001 A 
HETATM   27  C17 UNL     1      21.985   3.337  50.321  1.00  0.00     0.063 A 
ENDBRANCH  20  21
ENDBRANCH  11  20
TORSDOF 7
ENDMDL
MODEL 9
REMARK VINA RESULT:      -6.5      3.904      4.439
REMARK  7 active torsions:
REMARK  status: ('A' for Active; 'I' for Inactive)
REMARK    1  A    between atoms: N1_1  and  C1_2 
REMARK    2  A    between atoms: C1_2  and  O1_3 
REMARK    3  A    between atoms: C1_2  and  S1_4 
REMARK    4  A    between atoms: S1_4  and  C2_5 
REMARK    5  A    between atoms: C2_5  and  N2_6 
REMARK    6  A    between atoms: C11_16  and  C12_17 
REMARK    7  A    between atoms: C12_17  and  C13_18 
ROOT
HETATM    1  N2  UNL     1      22.723   1.999  51.975  1.00  0.00     0.107 N 
HETATM    2  C3  UNL     1      23.730   2.465  52.968  1.00  0.00     0.313 C 
HETATM    3  C4  UNL     1      24.854   1.502  52.855  1.00  0.00    -0.024 A 
HETATM    4  C5  UNL     1      26.159   1.843  52.514  1.00  0.00     0.012 A 
HETATM    5  C6  UNL     1      27.096   0.831  52.452  1.00  0.00     0.043 A 
HETATM    6  C7  UNL     1      26.714  -0.468  52.727  1.00  0.00     0.117 A 
HETATM    7  F1  UNL     1      27.654  -1.436  52.658  1.00  0.00    -0.206 F 
HETATM    8  C8  UNL     1      25.430  -0.834  53.067  1.00  0.00     0.050 A 
HETATM    9  C9  UNL     1      24.512   0.193  53.122  1.00  0.00    -0.045 A 
HETATM   10  C10 UNL     1      23.086   0.048  53.458  1.00  0.00     0.075 C 
HETATM   11  C11 UNL     1      22.142   0.766  52.520  1.00  0.00     0.232 C 
ENDROOT
BRANCH   1  12
HETATM   12  C2  UNL     1      23.470   1.791  50.777  1.00  0.00     0.351 C 
BRANCH  12  13
HETATM   13  S1  UNL     1      22.901   2.774  49.419  1.00  0.00    -0.077 SA
BRANCH  13  14
HETATM   14  C1  UNL     1      21.937   2.008  48.164  1.00  0.00     0.417 C 
BRANCH  14  15
HETATM   15  N1  UNL     1      20.733   2.716  47.783  1.00  0.00     0.117 N 
HETATM   16  H1  UNL     1      20.342   2.394  46.891  1.00  0.00     0.317 HD
HETATM   17  H2  UNL     1      20.013   2.612  48.537  1.00  0.00     0.317 HD
ENDBRANCH  14  15
BRANCH  14  18
HETATM   18  O1  UNL     1      21.617   0.670  48.517  1.00  0.00    -0.360 OA
HETATM   19  H4  UNL     1      22.078   0.440  49.359  1.00  0.00     0.213 HD
ENDBRANCH  14  18
ENDBRANCH  13  14
ENDBRANCH  12  13
ENDBRANCH   1  12
BRANCH  11  20
HETATM   20  C12 UNL     1      20.848   1.129  53.169  1.00  0.00     0.070 C 
BRANCH  20  21
HETATM   21  C13 UNL     1      19.663   0.744  52.321  1.00  0.00    -0.074 A 
HETATM   22  C14 UNL     1      18.938  -0.295  52.701  1.00  0.00     0.005 A 
HETATM   23  C15 UNL     1      17.764  -0.824  52.026  1.00  0.00     0.022 A 
HETATM   24  P1  UNL     1      17.348  -0.024  50.686  1.00  0.00     0.000 P 
HETATM   25 BR1  UNL     1      15.599  -0.615  49.460  1.00  0.00    -0.051 Br
HETATM   26  C16 UNL     1      18.296   1.229  50.310  1.00  0.00    -0.001 A 
HETATM   27  C17 UNL     1      19.476   1.629  51.137  1.00  0.00     0.063 A 
ENDBRANCH  20  21
ENDBRANCH  11  20
TORSDOF 7
ENDMDL
