MODEL 1
REMARK VINA RESULT:      -9.8      0.000      0.000
REMARK  2 active torsions:
REMARK  status: ('A' for Active; 'I' for Inactive)
REMARK    1  A    between atoms: C4_5  and  N1_6 
REMARK    2  A    between atoms: N1_6  and  C5_7 
ROOT
HETATM    1  C5  UNL     1      26.270   2.744  51.586  1.00  0.00     0.143 A 
HETATM    2  N2  UNL     1      26.830   3.363  50.539  1.00  0.00    -0.223 NA
HETATM    3  C6  UNL     1      26.176   3.694  49.423  1.00  0.00     0.236 A 
HETATM    4  N3  UNL     1      24.869   3.413  49.286  1.00  0.00    -0.241 NA
HETATM    5  C7  UNL     1      24.227   2.792  50.289  1.00  0.00     0.071 A 
HETATM    6  C8  UNL     1      24.940   2.473  51.414  1.00  0.00     0.054 A 
HETATM    7  C9  UNL     1      24.344   1.852  52.418  1.00  0.00     0.112 A 
HETATM    8  N4  UNL     1      22.976   1.536  52.328  1.00  0.00    -0.325 N 
HETATM    9  C10 UNL     1      21.991   0.936  53.140  1.00  0.00     0.174 C 
HETATM   10  S1  UNL     1      22.818  -0.444  53.271  1.00  0.00    -0.041 SA
HETATM   11  N5  UNL     1      20.776   1.233  53.780  1.00  0.00    -0.367 N 
HETATM   12  C11 UNL     1      20.234   0.051  54.420  1.00  0.00     0.124 C 
HETATM   13  C12 UNL     1      19.781  -0.929  53.319  1.00  0.00     0.046 C 
HETATM   14  C13 UNL     1      18.790  -0.310  52.411  1.00  0.00     0.169 C 
HETATM   15  O1  UNL     1      19.055   0.713  51.611  1.00  0.00    -0.391 OA
HETATM   16  C14 UNL     1      19.879   0.751  50.579  1.00  0.00     0.170 C 
HETATM   17  C15 UNL     1      21.353   0.653  50.646  1.00  0.00     0.056 C 
HETATM   18  C16 UNL     1      22.093   1.787  51.237  1.00  0.00     0.118 A 
HETATM   19  C17 UNL     1      22.946   2.488  50.183  1.00  0.00     0.031 A 
HETATM   20  H6  UNL     1      20.929   2.175  53.437  1.00  0.00     0.161 HD
ENDROOT
BRANCH   1  21
HETATM   21  N1  UNL     1      26.954   2.389  52.769  1.00  0.00    -0.340 N 
HETATM   22  H3  UNL     1      26.928   2.978  53.620  1.00  0.00     0.167 HD
BRANCH  21  23
HETATM   23  C4  UNL     1      27.754   1.265  53.036  1.00  0.00     0.035 A 
HETATM   24  C3  UNL     1      29.018   1.293  53.590  1.00  0.00     0.032 A 
HETATM   25  C2  UNL     1      29.782   0.180  53.841  1.00  0.00     0.046 A 
HETATM   26  C1  UNL     1      29.307  -1.076  53.540  1.00  0.00     0.138 A 
HETATM   27  F1  UNL     1      30.114  -2.127  53.814  1.00  0.00    -0.204 F 
HETATM   28  C19 UNL     1      28.057  -1.160  52.988  1.00  0.00     0.074 A 
HETATM   29  C18 UNL     1      27.331  -0.012  52.757  1.00  0.00     0.056 A 
HETATM   30 CL1  UNL     1      27.495  -2.774  52.623  1.00  0.00    -0.081 Cl
ENDBRANCH  21  23
ENDBRANCH   1  21
TORSDOF 2
ENDMDL
MODEL 2
REMARK VINA RESULT:      -9.4      2.658      4.299
REMARK  2 active torsions:
REMARK  status: ('A' for Active; 'I' for Inactive)
REMARK    1  A    between atoms: C4_5  and  N1_6 
REMARK    2  A    between atoms: N1_6  and  C5_7 
ROOT
HETATM    1  C5  UNL     1      23.926  -0.196  53.556  1.00  0.00     0.143 A 
HETATM    2  N2  UNL     1      23.952  -0.904  54.692  1.00  0.00    -0.223 NA
HETATM    3  C6  UNL     1      22.867  -1.387  55.302  1.00  0.00     0.236 A 
HETATM    4  N3  UNL     1      21.643  -1.183  54.786  1.00  0.00    -0.241 NA
HETATM    5  C7  UNL     1      21.525  -0.481  53.646  1.00  0.00     0.071 A 
HETATM    6  C8  UNL     1      22.666  -0.006  53.057  1.00  0.00     0.054 A 
HETATM    7  C9  UNL     1      22.589   0.696  51.940  1.00  0.00     0.112 A 
HETATM    8  N4  UNL     1      21.332   0.938  51.355  1.00  0.00    -0.325 N 
HETATM    9  C10 UNL     1      20.826   1.581  50.207  1.00  0.00     0.174 C 
HETATM   10  S1  UNL     1      21.473   3.003  50.612  1.00  0.00    -0.041 SA
HETATM   11  N5  UNL     1      20.120   1.304  49.023  1.00  0.00    -0.367 N 
HETATM   12  C11 UNL     1      19.856   2.525  48.289  1.00  0.00     0.124 C 
HETATM   13  C12 UNL     1      18.827   3.354  49.084  1.00  0.00     0.046 C 
HETATM   14  C13 UNL     1      17.581   2.592  49.324  1.00  0.00     0.169 C 
HETATM   15  O1  UNL     1      17.511   1.499  50.069  1.00  0.00    -0.391 OA
HETATM   16  C14 UNL     1      17.717   1.382  51.369  1.00  0.00     0.170 C 
HETATM   17  C15 UNL     1      19.014   1.552  52.057  1.00  0.00     0.056 C 
HETATM   18  C16 UNL     1      20.054   0.527  51.834  1.00  0.00     0.118 A 
HETATM   19  C17 UNL     1      20.336  -0.249  53.117  1.00  0.00     0.031 A 
HETATM   20  H6  UNL     1      20.172   0.337  49.325  1.00  0.00     0.161 HD
ENDROOT
BRANCH   1  21
HETATM   21  N1  UNL     1      25.069   0.320  52.906  1.00  0.00    -0.340 N 
HETATM   22  H3  UNL     1      25.001   0.998  52.126  1.00  0.00     0.167 HD
BRANCH  21  23
HETATM   23  C4  UNL     1      26.428   0.054  53.142  1.00  0.00     0.035 A 
HETATM   24  C3  UNL     1      27.072  -1.136  52.872  1.00  0.00     0.032 A 
HETATM   25  C2  UNL     1      28.402  -1.373  53.113  1.00  0.00     0.046 A 
HETATM   26  C1  UNL     1      29.198  -0.393  53.660  1.00  0.00     0.138 A 
HETATM   27  F1  UNL     1      30.500  -0.696  53.870  1.00  0.00    -0.204 F 
HETATM   28  C19 UNL     1      28.609   0.808  53.948  1.00  0.00     0.074 A 
HETATM   29  C18 UNL     1      27.269   0.995  53.686  1.00  0.00     0.056 A 
HETATM   30 CL1  UNL     1      29.657   2.023  54.641  1.00  0.00    -0.081 Cl
ENDBRANCH  21  23
ENDBRANCH   1  21
TORSDOF 2
ENDMDL
MODEL 3
REMARK VINA RESULT:      -9.4      4.223      7.463
REMARK  2 active torsions:
REMARK  status: ('A' for Active; 'I' for Inactive)
REMARK    1  A    between atoms: C4_5  and  N1_6 
REMARK    2  A    between atoms: N1_6  and  C5_7 
ROOT
HETATM    1  C5  UNL     1      23.563   0.630  53.108  1.00  0.00     0.143 A 
HETATM    2  N2  UNL     1      24.135  -0.529  53.457  1.00  0.00    -0.223 NA
HETATM    3  C6  UNL     1      25.385  -0.875  53.139  1.00  0.00     0.236 A 
HETATM    4  N3  UNL     1      26.166  -0.046  52.426  1.00  0.00    -0.241 NA
HETATM    5  C7  UNL     1      25.670   1.140  52.034  1.00  0.00     0.071 A 
HETATM    6  C8  UNL     1      24.383   1.451  52.384  1.00  0.00     0.054 A 
HETATM    7  C9  UNL     1      23.858   2.604  52.007  1.00  0.00     0.112 A 
HETATM    8  N4  UNL     1      24.633   3.511  51.260  1.00  0.00    -0.325 N 
HETATM    9  C10 UNL     1      24.481   4.801  50.709  1.00  0.00     0.174 C 
HETATM   10  S1  UNL     1      23.215   4.361  49.809  1.00  0.00    -0.041 SA
HETATM   11  N5  UNL     1      25.009   6.099  50.810  1.00  0.00    -0.367 N 
HETATM   12  C11 UNL     1      24.401   6.974  49.828  1.00  0.00     0.124 C 
HETATM   13  C12 UNL     1      24.887   6.543  48.430  1.00  0.00     0.046 C 
HETATM   14  C13 UNL     1      26.364   6.571  48.332  1.00  0.00     0.169 C 
HETATM   15  O1  UNL     1      27.169   5.782  49.029  1.00  0.00    -0.391 OA
HETATM   16  C14 UNL     1      27.286   4.467  48.956  1.00  0.00     0.170 C 
HETATM   17  C15 UNL     1      26.261   3.484  49.366  1.00  0.00     0.056 C 
HETATM   18  C16 UNL     1      25.974   3.346  50.808  1.00  0.00     0.118 A 
HETATM   19  C17 UNL     1      26.405   1.974  51.320  1.00  0.00     0.031 A 
HETATM   20  H6  UNL     1      25.570   5.716  51.563  1.00  0.00     0.161 HD
ENDROOT
BRANCH   1  21
HETATM   21  N1  UNL     1      22.241   1.004  53.438  1.00  0.00    -0.340 N 
HETATM   22  H3  UNL     1      22.032   1.690  54.185  1.00  0.00     0.167 HD
BRANCH  21  23
HETATM   23  C4  UNL     1      21.025   0.569  52.885  1.00  0.00     0.035 A 
HETATM   24  C3  UNL     1      20.455   1.048  51.722  1.00  0.00     0.032 A 
HETATM   25  C2  UNL     1      19.264   0.608  51.202  1.00  0.00     0.046 A 
HETATM   26  C1  UNL     1      18.544  -0.376  51.839  1.00  0.00     0.138 A 
HETATM   27  F1  UNL     1      17.379  -0.760  51.269  1.00  0.00    -0.204 F 
HETATM   28  C19 UNL     1      19.064  -0.886  52.998  1.00  0.00     0.074 A 
HETATM   29  C18 UNL     1      20.264  -0.410  53.478  1.00  0.00     0.056 A 
HETATM   30 CL1  UNL     1      18.117  -2.134  53.773  1.00  0.00    -0.081 Cl
ENDBRANCH  21  23
ENDBRANCH   1  21
TORSDOF 2
ENDMDL
MODEL 4
REMARK VINA RESULT:      -9.4      4.457      7.442
REMARK  2 active torsions:
REMARK  status: ('A' for Active; 'I' for Inactive)
REMARK    1  A    between atoms: C4_5  and  N1_6 
REMARK    2  A    between atoms: N1_6  and  C5_7 
ROOT
HETATM    1  C5  UNL     1      22.491   3.039  52.457  1.00  0.00     0.143 A 
HETATM    2  N2  UNL     1      21.292   2.624  52.030  1.00  0.00    -0.223 NA
HETATM    3  C6  UNL     1      20.977   1.347  51.802  1.00  0.00     0.236 A 
HETATM    4  N3  UNL     1      21.881   0.372  51.998  1.00  0.00    -0.241 NA
HETATM    5  C7  UNL     1      23.111   0.701  52.427  1.00  0.00     0.071 A 
HETATM    6  C8  UNL     1      23.387   2.024  52.648  1.00  0.00     0.054 A 
HETATM    7  C9  UNL     1      24.590   2.386  53.060  1.00  0.00     0.112 A 
HETATM    8  N4  UNL     1      25.574   1.406  53.284  1.00  0.00    -0.325 N 
HETATM    9  C10 UNL     1      26.910   1.357  53.734  1.00  0.00     0.174 C 
HETATM   10  S1  UNL     1      27.432   2.333  52.559  1.00  0.00    -0.041 SA
HETATM   11  N5  UNL     1      27.690   0.837  54.781  1.00  0.00    -0.367 N 
HETATM   12  C11 UNL     1      29.094   1.119  54.558  1.00  0.00     0.124 C 
HETATM   13  C12 UNL     1      29.572   0.275  53.359  1.00  0.00     0.046 C 
HETATM   14  C13 UNL     1      29.344  -1.170  53.583  1.00  0.00     0.169 C 
HETATM   15  O1  UNL     1      28.144  -1.723  53.697  1.00  0.00    -0.391 OA
HETATM   16  C14 UNL     1      27.198  -1.815  52.779  1.00  0.00     0.170 C 
HETATM   17  C15 UNL     1      26.427  -0.686  52.217  1.00  0.00     0.056 C 
HETATM   18  C16 UNL     1      25.460  -0.003  53.100  1.00  0.00     0.118 A 
HETATM   19  C17 UNL     1      24.029  -0.230  52.618  1.00  0.00     0.031 A 
HETATM   20  H6  UNL     1      26.806   0.522  55.163  1.00  0.00     0.161 HD
ENDROOT
BRANCH   1  21
HETATM   21  N1  UNL     1      22.833   4.388  52.699  1.00  0.00    -0.340 N 
HETATM   22  H3  UNL     1      22.997   4.753  53.655  1.00  0.00     0.167 HD
BRANCH  21  23
HETATM   23  C4  UNL     1      23.008   5.443  51.789  1.00  0.00     0.035 A 
HETATM   24  C3  UNL     1      22.000   6.228  51.265  1.00  0.00     0.032 A 
HETATM   25  C2  UNL     1      22.196   7.253  50.374  1.00  0.00     0.046 A 
HETATM   26  C1  UNL     1      23.463   7.567  49.937  1.00  0.00     0.138 A 
HETATM   27  F1  UNL     1      23.581   8.590  49.060  1.00  0.00    -0.204 F 
HETATM   28  C19 UNL     1      24.500   6.820  50.426  1.00  0.00     0.074 A 
HETATM   29  C18 UNL     1      24.250   5.801  51.319  1.00  0.00     0.056 A 
HETATM   30 CL1  UNL     1      26.090   7.254  49.845  1.00  0.00    -0.081 Cl
ENDBRANCH  21  23
ENDBRANCH   1  21
TORSDOF 2
ENDMDL
MODEL 5
REMARK VINA RESULT:      -9.0      2.346      4.228
REMARK  2 active torsions:
REMARK  status: ('A' for Active; 'I' for Inactive)
REMARK    1  A    between atoms: C4_5  and  N1_6 
REMARK    2  A    between atoms: N1_6  and  C5_7 
ROOT
HETATM    1  C5  UNL     1      24.163   0.462  53.354  1.00  0.00     0.143 A 
HETATM    2  N2  UNL     1      23.796  -0.500  54.210  1.00  0.00    -0.223 NA
HETATM    3  C6  UNL     1      22.637  -1.159  54.147  1.00  0.00     0.236 A 
HETATM    4  N3  UNL     1      21.742  -0.883  53.184  1.00  0.00    -0.241 NA
HETATM    5  C7  UNL     1      22.029   0.071  52.282  1.00  0.00     0.071 A 
HETATM    6  C8  UNL     1      23.231   0.720  52.386  1.00  0.00     0.054 A 
HETATM    7  C9  UNL     1      23.544   1.671  51.523  1.00  0.00     0.112 A 
HETATM    8  N4  UNL     1      22.644   2.000  50.493  1.00  0.00    -0.325 N 
HETATM    9  C10 UNL     1      22.598   2.884  49.395  1.00  0.00     0.174 C 
HETATM   10  S1  UNL     1      22.792   4.188  50.327  1.00  0.00    -0.041 SA
HETATM   11  N5  UNL     1      22.523   2.877  47.991  1.00  0.00    -0.367 N 
HETATM   12  C11 UNL     1      22.429   4.230  47.480  1.00  0.00     0.124 C 
HETATM   13  C12 UNL     1      21.049   4.798  47.868  1.00  0.00     0.046 C 
HETATM   14  C13 UNL     1      19.947   3.954  47.355  1.00  0.00     0.169 C 
HETATM   15  O1  UNL     1      19.721   2.709  47.750  1.00  0.00    -0.391 OA
HETATM   16  C14 UNL     1      19.358   2.286  48.948  1.00  0.00     0.170 C 
HETATM   17  C15 UNL     1      20.189   2.333  50.170  1.00  0.00     0.056 C 
HETATM   18  C16 UNL     1      21.359   1.435  50.243  1.00  0.00     0.118 A 
HETATM   19  C17 UNL     1      21.167   0.379  51.329  1.00  0.00     0.031 A 
HETATM   20  H6  UNL     1      22.579   1.869  48.083  1.00  0.00     0.161 HD
ENDROOT
BRANCH   1  21
HETATM   21  N1  UNL     1      25.386   1.166  53.414  1.00  0.00    -0.340 N 
HETATM   22  H3  UNL     1      25.428   2.201  53.402  1.00  0.00     0.167 HD
BRANCH  21  23
HETATM   23  C4  UNL     1      26.698   0.672  53.493  1.00  0.00     0.035 A 
HETATM   24  C3  UNL     1      27.816   1.410  53.828  1.00  0.00     0.032 A 
HETATM   25  C2  UNL     1      29.090   0.904  53.897  1.00  0.00     0.046 A 
HETATM   26  C1  UNL     1      29.331  -0.423  53.624  1.00  0.00     0.138 A 
HETATM   27  F1  UNL     1      30.611  -0.852  53.712  1.00  0.00    -0.204 F 
HETATM   28  C19 UNL     1      28.256  -1.201  53.287  1.00  0.00     0.074 A 
HETATM   29  C18 UNL     1      26.997  -0.644  53.232  1.00  0.00     0.056 A 
HETATM   30 CL1  UNL     1      28.609  -2.880  52.950  1.00  0.00    -0.081 Cl
ENDBRANCH  21  23
ENDBRANCH   1  21
TORSDOF 2
ENDMDL
MODEL 6
REMARK VINA RESULT:      -8.8      3.725      5.438
REMARK  2 active torsions:
REMARK  status: ('A' for Active; 'I' for Inactive)
REMARK    1  A    between atoms: C4_5  and  N1_6 
REMARK    2  A    between atoms: N1_6  and  C5_7 
ROOT
HETATM    1  C5  UNL     1      26.262   2.667  50.871  1.00  0.00     0.143 A 
HETATM    2  N2  UNL     1      27.374   2.564  51.608  1.00  0.00    -0.223 NA
HETATM    3  C6  UNL     1      27.452   1.896  52.762  1.00  0.00     0.236 A 
HETATM    4  N3  UNL     1      26.376   1.267  53.263  1.00  0.00    -0.241 NA
HETATM    5  C7  UNL     1      25.216   1.319  52.587  1.00  0.00     0.071 A 
HETATM    6  C8  UNL     1      25.185   2.016  51.408  1.00  0.00     0.054 A 
HETATM    7  C9  UNL     1      24.060   2.098  50.720  1.00  0.00     0.112 A 
HETATM    8  N4  UNL     1      22.903   1.455  51.199  1.00  0.00    -0.325 N 
HETATM    9  C10 UNL     1      21.568   1.272  50.783  1.00  0.00     0.174 C 
HETATM   10  S1  UNL     1      21.275   2.858  50.730  1.00  0.00    -0.041 SA
HETATM   11  N5  UNL     1      20.671   0.255  50.410  1.00  0.00    -0.367 N 
HETATM   12  C11 UNL     1      19.352   0.803  50.165  1.00  0.00     0.124 C 
HETATM   13  C12 UNL     1      18.764   1.266  51.513  1.00  0.00     0.046 C 
HETATM   14  C13 UNL     1      18.711   0.158  52.495  1.00  0.00     0.169 C 
HETATM   15  O1  UNL     1      19.781  -0.446  52.989  1.00  0.00    -0.391 OA
HETATM   16  C14 UNL     1      20.722   0.065  53.764  1.00  0.00     0.170 C 
HETATM   17  C15 UNL     1      21.708   1.091  53.363  1.00  0.00     0.056 C 
HETATM   18  C16 UNL     1      22.758   0.701  52.400  1.00  0.00     0.118 A 
HETATM   19  C17 UNL     1      24.135   0.724  53.057  1.00  0.00     0.031 A 
HETATM   20  H6  UNL     1      21.468  -0.362  50.514  1.00  0.00     0.161 HD
ENDROOT
BRANCH   1  21
HETATM   21  N1  UNL     1      26.170   3.373  49.651  1.00  0.00    -0.340 N 
HETATM   22  H3  UNL     1      25.804   2.936  48.787  1.00  0.00     0.167 HD
BRANCH  21  23
HETATM   23  C4  UNL     1      26.524   4.700  49.357  1.00  0.00     0.035 A 
HETATM   24  C3  UNL     1      27.620   5.094  48.616  1.00  0.00     0.032 A 
HETATM   25  C2  UNL     1      27.947   6.398  48.343  1.00  0.00     0.046 A 
HETATM   26  C1  UNL     1      27.165   7.428  48.815  1.00  0.00     0.138 A 
HETATM   27  F1  UNL     1      27.547   8.689  48.507  1.00  0.00    -0.204 F 
HETATM   28  C19 UNL     1      26.065   7.093  49.556  1.00  0.00     0.074 A 
HETATM   29  C18 UNL     1      25.781   5.768  49.802  1.00  0.00     0.056 A 
HETATM   30 CL1  UNL     1      25.101   8.432  50.134  1.00  0.00    -0.081 Cl
ENDBRANCH  21  23
ENDBRANCH   1  21
TORSDOF 2
ENDMDL
MODEL 7
REMARK VINA RESULT:      -8.6      4.163      7.552
REMARK  2 active torsions:
REMARK  status: ('A' for Active; 'I' for Inactive)
REMARK    1  A    between atoms: C4_5  and  N1_6 
REMARK    2  A    between atoms: N1_6  and  C5_7 
ROOT
HETATM    1  C5  UNL     1      21.208   2.109  52.462  1.00  0.00     0.143 A 
HETATM    2  N2  UNL     1      20.094   1.366  52.471  1.00  0.00    -0.223 NA
HETATM    3  C6  UNL     1      20.054   0.076  52.812  1.00  0.00     0.236 A 
HETATM    4  N3  UNL     1      21.173  -0.571  53.179  1.00  0.00    -0.241 NA
HETATM    5  C7  UNL     1      22.338   0.100  53.198  1.00  0.00     0.071 A 
HETATM    6  C8  UNL     1      22.328   1.422  52.842  1.00  0.00     0.054 A 
HETATM    7  C9  UNL     1      23.456   2.112  52.838  1.00  0.00     0.112 A 
HETATM    8  N4  UNL     1      24.657   1.484  53.217  1.00  0.00    -0.325 N 
HETATM    9  C10 UNL     1      26.012   1.842  53.377  1.00  0.00     0.174 C 
HETATM   10  S1  UNL     1      26.157   2.318  51.841  1.00  0.00    -0.041 SA
HETATM   11  N5  UNL     1      27.007   1.933  54.365  1.00  0.00    -0.367 N 
HETATM   12  C11 UNL     1      28.274   2.321  53.779  1.00  0.00     0.124 C 
HETATM   13  C12 UNL     1      28.788   1.149  52.920  1.00  0.00     0.046 C 
HETATM   14  C13 UNL     1      28.923  -0.093  53.716  1.00  0.00     0.169 C 
HETATM   15  O1  UNL     1      27.904  -0.736  54.266  1.00  0.00    -0.391 OA
HETATM   16  C14 UNL     1      26.903  -1.349  53.659  1.00  0.00     0.170 C 
HETATM   17  C15 UNL     1      25.835  -0.693  52.876  1.00  0.00     0.056 C 
HETATM   18  C16 UNL     1      24.847   0.126  53.607  1.00  0.00     0.118 A 
HETATM   19  C17 UNL     1      23.459  -0.508  53.541  1.00  0.00     0.031 A 
HETATM   20  H6  UNL     1      26.269   1.664  55.006  1.00  0.00     0.161 HD
ENDROOT
BRANCH   1  21
HETATM   21  N1  UNL     1      21.259   3.474  52.102  1.00  0.00    -0.340 N 
HETATM   22  H3  UNL     1      21.183   4.233  52.802  1.00  0.00     0.167 HD
BRANCH  21  23
HETATM   23  C4  UNL     1      21.407   4.058  50.833  1.00  0.00     0.035 A 
HETATM   24  C3  UNL     1      21.307   5.406  50.553  1.00  0.00     0.032 A 
HETATM   25  C2  UNL     1      21.455   5.954  49.304  1.00  0.00     0.046 A 
HETATM   26  C1  UNL     1      21.721   5.154  48.216  1.00  0.00     0.138 A 
HETATM   27  F1  UNL     1      21.854   5.762  47.015  1.00  0.00    -0.204 F 
HETATM   28  C19 UNL     1      21.830   3.808  48.438  1.00  0.00     0.074 A 
HETATM   29  C18 UNL     1      21.674   3.308  49.713  1.00  0.00     0.056 A 
HETATM   30 CL1  UNL     1      22.169   2.829  47.030  1.00  0.00    -0.081 Cl
ENDBRANCH  21  23
ENDBRANCH   1  21
TORSDOF 2
ENDMDL
MODEL 8
REMARK VINA RESULT:      -8.6      5.146      8.016
REMARK  2 active torsions:
REMARK  status: ('A' for Active; 'I' for Inactive)
REMARK    1  A    between atoms: C4_5  and  N1_6 
REMARK    2  A    between atoms: N1_6  and  C5_7 
ROOT
HETATM    1  C5  UNL     1      21.856   3.388  50.552  1.00  0.00     0.143 A 
HETATM    2  N2  UNL     1      20.564   3.039  50.514  1.00  0.00    -0.223 NA
HETATM    3  C6  UNL     1      20.023   2.079  51.267  1.00  0.00     0.236 A 
HETATM    4  N3  UNL     1      20.774   1.385  52.138  1.00  0.00    -0.241 NA
HETATM    5  C7  UNL     1      22.084   1.670  52.241  1.00  0.00     0.071 A 
HETATM    6  C8  UNL     1      22.593   2.664  51.448  1.00  0.00     0.054 A 
HETATM    7  C9  UNL     1      23.879   2.966  51.514  1.00  0.00     0.112 A 
HETATM    8  N4  UNL     1      24.712   2.271  52.411  1.00  0.00    -0.325 N 
HETATM    9  C10 UNL     1      26.066   2.297  52.804  1.00  0.00     0.174 C 
HETATM   10  S1  UNL     1      26.596   2.014  51.306  1.00  0.00    -0.041 SA
HETATM   11  N5  UNL     1      26.871   2.540  53.931  1.00  0.00    -0.367 N 
HETATM   12  C11 UNL     1      28.265   2.295  53.623  1.00  0.00     0.124 C 
HETATM   13  C12 UNL     1      28.456   0.778  53.420  1.00  0.00     0.046 C 
HETATM   14  C13 UNL     1      28.026   0.009  54.610  1.00  0.00     0.169 C 
HETATM   15  O1  UNL     1      26.775  -0.046  55.045  1.00  0.00    -0.391 OA
HETATM   16  C14 UNL     1      25.724  -0.576  54.444  1.00  0.00     0.170 C 
HETATM   17  C15 UNL     1      25.085  -0.065  53.213  1.00  0.00     0.056 C 
HETATM   18  C16 UNL     1      24.351   1.214  53.296  1.00  0.00     0.118 A 
HETATM   19  C17 UNL     1      22.856   0.999  53.077  1.00  0.00     0.031 A 
HETATM   20  H6  UNL     1      25.999   2.774  54.391  1.00  0.00     0.161 HD
ENDROOT
BRANCH   1  21
HETATM   21  N1  UNL     1      22.437   4.401  49.758  1.00  0.00    -0.340 N 
HETATM   22  H3  UNL     1      23.219   4.211  49.106  1.00  0.00     0.167 HD
BRANCH  21  23
HETATM   23  C4  UNL     1      22.121   5.768  49.681  1.00  0.00     0.035 A 
HETATM   24  C3  UNL     1      21.733   6.563  50.740  1.00  0.00     0.032 A 
HETATM   25  C2  UNL     1      21.427   7.898  50.640  1.00  0.00     0.046 A 
HETATM   26  C1  UNL     1      21.495   8.541  49.425  1.00  0.00     0.138 A 
HETATM   27  F1  UNL     1      21.180   9.856  49.401  1.00  0.00    -0.204 F 
HETATM   28  C19 UNL     1      21.875   7.797  48.340  1.00  0.00     0.074 A 
HETATM   29  C18 UNL     1      22.171   6.461  48.495  1.00  0.00     0.056 A 
HETATM   30 CL1  UNL     1      21.948   8.655  46.819  1.00  0.00    -0.081 Cl
ENDBRANCH  21  23
ENDBRANCH   1  21
TORSDOF 2
ENDMDL
MODEL 9
REMARK VINA RESULT:      -8.5      3.756      6.220
REMARK  2 active torsions:
REMARK  status: ('A' for Active; 'I' for Inactive)
REMARK    1  A    between atoms: C4_5  and  N1_6 
REMARK    2  A    between atoms: N1_6  and  C5_7 
ROOT
HETATM    1  C5  UNL     1      22.779   1.933  51.213  1.00  0.00     0.143 A 
HETATM    2  N2  UNL     1      21.991   0.983  50.695  1.00  0.00    -0.223 NA
HETATM    3  C6  UNL     1      21.541   0.982  49.438  1.00  0.00     0.236 A 
HETATM    4  N3  UNL     1      21.869   1.973  48.591  1.00  0.00    -0.241 NA
HETATM    5  C7  UNL     1      22.658   2.969  49.029  1.00  0.00     0.071 A 
HETATM    6  C8  UNL     1      23.095   2.927  50.326  1.00  0.00     0.054 A 
HETATM    7  C9  UNL     1      23.864   3.894  50.796  1.00  0.00     0.112 A 
HETATM    8  N4  UNL     1      24.240   4.956  49.952  1.00  0.00    -0.325 N 
HETATM    9  C10 UNL     1      25.034   6.118  50.034  1.00  0.00     0.174 C 
HETATM   10  S1  UNL     1      24.169   6.728  51.252  1.00  0.00    -0.041 SA
HETATM   11  N5  UNL     1      26.191   6.690  49.477  1.00  0.00    -0.367 N 
HETATM   12  C11 UNL     1      26.401   8.026  49.999  1.00  0.00     0.124 C 
HETATM   13  C12 UNL     1      25.295   8.942  49.439  1.00  0.00     0.046 C 
HETATM   14  C13 UNL     1      25.281   8.940  47.959  1.00  0.00     0.169 C 
HETATM   15  O1  UNL     1      24.994   7.878  47.221  1.00  0.00    -0.391 OA
HETATM   16  C14 UNL     1      23.845   7.230  47.135  1.00  0.00     0.170 C 
HETATM   17  C15 UNL     1      23.222   6.430  48.210  1.00  0.00     0.056 C 
HETATM   18  C16 UNL     1      23.872   5.159  48.589  1.00  0.00     0.118 A 
HETATM   19  C17 UNL     1      22.990   3.967  48.229  1.00  0.00     0.031 A 
HETATM   20  H6  UNL     1      26.274   5.813  48.975  1.00  0.00     0.161 HD
ENDROOT
BRANCH   1  21
HETATM   21  N1  UNL     1      23.258   1.943  52.542  1.00  0.00    -0.340 N 
HETATM   22  H3  UNL     1      22.751   2.422  53.307  1.00  0.00     0.167 HD
BRANCH  21  23
HETATM   23  C4  UNL     1      24.420   1.364  53.077  1.00  0.00     0.035 A 
HETATM   24  C3  UNL     1      24.531   0.069  53.543  1.00  0.00     0.032 A 
HETATM   25  C2  UNL     1      25.679  -0.474  54.064  1.00  0.00     0.046 A 
HETATM   26  C1  UNL     1      26.830   0.275  54.152  1.00  0.00     0.138 A 
HETATM   27  F1  UNL     1      27.923  -0.325  54.675  1.00  0.00    -0.204 F 
HETATM   28  C19 UNL     1      26.774   1.567  53.703  1.00  0.00     0.074 A 
HETATM   29  C18 UNL     1      25.597   2.065  53.188  1.00  0.00     0.056 A 
HETATM   30 CL1  UNL     1      28.259   2.481  53.833  1.00  0.00    -0.081 Cl
ENDBRANCH  21  23
ENDBRANCH   1  21
TORSDOF 2
ENDMDL
