MODEL 1
REMARK VINA RESULT:      -8.2      0.000      0.000
REMARK  7 active torsions:
REMARK  status: ('A' for Active; 'I' for Inactive)
REMARK       I    between atoms: N1_2  and  C2_3 
REMARK    1  A    between atoms: C2_3  and  C3_5 
REMARK    2  A    between atoms: C6_9  and  O2_10 
REMARK    3  A    between atoms: O2_10  and  C7_11 
REMARK    4  A    between atoms: C10_14  and  N3_15 
REMARK    5  A    between atoms: N3_15  and  C11_16 
REMARK    6  A    between atoms: C11_16  and  N4_18 
REMARK    7  A    between atoms: C16_23  and  C17_24 
ROOT
HETATM    1  C7  UNL     1      24.278   2.166  51.853  1.00  0.00     0.075 A 
HETATM    2  C8  UNL     1      23.778   2.903  52.906  1.00  0.00     0.039 A 
HETATM    3  C9  UNL     1      23.549   4.255  52.767  1.00  0.00     0.032 A 
HETATM    4  C10 UNL     1      23.802   4.936  51.585  1.00  0.00     0.029 A 
HETATM    5  C19 UNL     1      24.299   4.160  50.558  1.00  0.00     0.032 A 
HETATM    6  C20 UNL     1      24.547   2.795  50.655  1.00  0.00     0.039 A 
ENDROOT
BRANCH   4   7
HETATM    7  N3  UNL     1      23.571   6.335  51.417  1.00  0.00    -0.369 N 
HETATM    8  H10 UNL     1      23.962   6.949  52.192  1.00  0.00     0.161 HD
BRANCH   7   9
HETATM    9  C11 UNL     1      22.857   6.891  50.279  1.00  0.00     0.175 C 
HETATM   10  C12 UNL     1      21.535   7.418  50.784  1.00  0.00     0.055 C 
BRANCH   9  11
HETATM   11  N4  UNL     1      23.700   7.917  49.729  1.00  0.00    -0.388 N 
HETATM   12  C13 UNL     1      23.885   7.852  48.320  1.00  0.00     0.147 C 
HETATM   13  C14 UNL     1      24.976   6.896  47.947  1.00  0.00     0.013 C 
HETATM   14  C15 UNL     1      26.037   6.837  48.751  1.00  0.00     0.024 C 
HETATM   15 CL1  UNL     1      27.387   5.749  48.414  1.00  0.00    -0.088 Cl
HETATM   16  C16 UNL     1      26.146   7.667  49.956  1.00  0.00     0.155 C 
HETATM   17  C18 UNL     1      24.872   8.227  50.480  1.00  0.00     0.138 C 
BRANCH  16  18
HETATM   18  C17 UNL     1      27.193   8.750  49.719  1.00  0.00     0.397 C 
HETATM   19  F1  UNL     1      27.418   9.415  50.931  1.00  0.00    -0.170 F 
HETATM   20  F2  UNL     1      28.402   8.194  49.364  1.00  0.00    -0.170 F 
HETATM   21  F3  UNL     1      26.744   9.680  48.801  1.00  0.00    -0.170 F 
ENDBRANCH  16  18
ENDBRANCH   9  11
ENDBRANCH   7   9
ENDBRANCH   4   7
BRANCH   1  22
HETATM   22  O2  UNL     1      24.546   0.796  51.887  1.00  0.00    -0.312 OA
BRANCH  22  23
HETATM   23  C6  UNL     1      25.623   0.268  52.622  1.00  0.00     0.089 A 
HETATM   24  C3  UNL     1      25.650   0.252  54.102  1.00  0.00     0.256 A 
HETATM   25  N2  UNL     1      26.920  -0.368  54.384  1.00  0.00    -0.280 NA
HETATM   26  C4  UNL     1      27.464  -0.632  53.251  1.00  0.00     0.114 A 
HETATM   27  C5  UNL     1      26.702  -0.257  52.068  1.00  0.00     0.054 A 
BRANCH  24  28
HETATM   28  C2  UNL     1      24.578  -0.663  54.620  1.00  0.00     0.248 C 
HETATM   29  N1  UNL     1      23.247  -0.663  54.090  1.00  0.00    -0.363 N 
HETATM   30  C1  UNL     1      22.225  -1.554  54.603  1.00  0.00     0.149 C 
HETATM   31  H4  UNL     1      23.053   0.002  53.324  1.00  0.00     0.162 HD
HETATM   32  O1  UNL     1      25.102  -1.355  55.544  1.00  0.00    -0.271 OA
ENDBRANCH  24  28
ENDBRANCH  22  23
ENDBRANCH   1  22
TORSDOF 7
ENDMDL
MODEL 2
REMARK VINA RESULT:      -8.0      4.866      8.839
REMARK  7 active torsions:
REMARK  status: ('A' for Active; 'I' for Inactive)
REMARK       I    between atoms: N1_2  and  C2_3 
REMARK    1  A    between atoms: C2_3  and  C3_5 
REMARK    2  A    between atoms: C6_9  and  O2_10 
REMARK    3  A    between atoms: O2_10  and  C7_11 
REMARK    4  A    between atoms: C10_14  and  N3_15 
REMARK    5  A    between atoms: N3_15  and  C11_16 
REMARK    6  A    between atoms: C11_16  and  N4_18 
REMARK    7  A    between atoms: C16_23  and  C17_24 
ROOT
HETATM    1  C7  UNL     1      26.746   6.015  48.591  1.00  0.00     0.075 A 
HETATM    2  C8  UNL     1      25.459   5.938  49.081  1.00  0.00     0.039 A 
HETATM    3  C9  UNL     1      24.993   4.767  49.640  1.00  0.00     0.032 A 
HETATM    4  C10 UNL     1      25.775   3.626  49.739  1.00  0.00     0.029 A 
HETATM    5  C19 UNL     1      27.055   3.748  49.237  1.00  0.00     0.032 A 
HETATM    6  C20 UNL     1      27.565   4.907  48.665  1.00  0.00     0.039 A 
ENDROOT
BRANCH   4   7
HETATM    7  N3  UNL     1      25.314   2.403  50.315  1.00  0.00    -0.369 N 
HETATM    8  H10 UNL     1      25.779   1.525  49.935  1.00  0.00     0.161 HD
BRANCH   7   9
HETATM    9  C11 UNL     1      24.288   2.347  51.344  1.00  0.00     0.175 C 
HETATM   10  C12 UNL     1      22.975   2.044  50.662  1.00  0.00     0.055 C 
BRANCH   9  11
HETATM   11  N4  UNL     1      24.691   1.325  52.270  1.00  0.00    -0.388 N 
HETATM   12  C13 UNL     1      24.748   1.735  53.631  1.00  0.00     0.147 C 
HETATM   13  C14 UNL     1      26.049   2.402  53.956  1.00  0.00     0.013 C 
HETATM   14  C15 UNL     1      27.145   1.921  53.370  1.00  0.00     0.024 C 
HETATM   15 CL1  UNL     1      28.736   2.625  53.676  1.00  0.00    -0.088 Cl
HETATM   16  C16 UNL     1      27.095   0.786  52.441  1.00  0.00     0.155 C 
HETATM   17  C18 UNL     1      25.766   0.490  51.844  1.00  0.00     0.138 C 
BRANCH  16  18
HETATM   18  C17 UNL     1      27.703  -0.437  53.120  1.00  0.00     0.397 C 
HETATM   19  F1  UNL     1      27.397  -0.375  54.485  1.00  0.00    -0.170 F 
HETATM   20  F2  UNL     1      27.121  -1.596  52.656  1.00  0.00    -0.170 F 
HETATM   21  F3  UNL     1      29.079  -0.442  52.993  1.00  0.00    -0.170 F 
ENDBRANCH  16  18
ENDBRANCH   9  11
ENDBRANCH   7   9
ENDBRANCH   4   7
BRANCH   1  22
HETATM   22  O2  UNL     1      27.316   7.148  48.007  1.00  0.00    -0.312 OA
BRANCH  22  23
HETATM   23  C6  UNL     1      26.961   8.449  48.410  1.00  0.00     0.089 A 
HETATM   24  C3  UNL     1      27.521   9.092  49.620  1.00  0.00     0.256 A 
HETATM   25  N2  UNL     1      26.876  10.380  49.616  1.00  0.00    -0.280 NA
HETATM   26  C4  UNL     1      26.112  10.409  48.584  1.00  0.00     0.114 A 
HETATM   27  C5  UNL     1      26.104   9.213  47.754  1.00  0.00     0.054 A 
BRANCH  24  28
HETATM   28  C2  UNL     1      28.993   9.325  49.437  1.00  0.00     0.248 C 
HETATM   29  N1  UNL     1      29.942   8.253  49.403  1.00  0.00    -0.363 N 
HETATM   30  C1  UNL     1      31.360   8.498  49.226  1.00  0.00     0.149 C 
HETATM   31  H4  UNL     1      29.566   7.297  49.511  1.00  0.00     0.162 HD
HETATM   32  O1  UNL     1      29.155  10.579  49.333  1.00  0.00    -0.271 OA
ENDBRANCH  24  28
ENDBRANCH  22  23
ENDBRANCH   1  22
TORSDOF 7
ENDMDL
MODEL 3
REMARK VINA RESULT:      -7.9      1.061      2.180
REMARK  7 active torsions:
REMARK  status: ('A' for Active; 'I' for Inactive)
REMARK       I    between atoms: N1_2  and  C2_3 
REMARK    1  A    between atoms: C2_3  and  C3_5 
REMARK    2  A    between atoms: C6_9  and  O2_10 
REMARK    3  A    between atoms: O2_10  and  C7_11 
REMARK    4  A    between atoms: C10_14  and  N3_15 
REMARK    5  A    between atoms: N3_15  and  C11_16 
REMARK    6  A    between atoms: C11_16  and  N4_18 
REMARK    7  A    between atoms: C16_23  and  C17_24 
ROOT
HETATM    1  C7  UNL     1      24.596   2.313  51.799  1.00  0.00     0.075 A 
HETATM    2  C8  UNL     1      24.305   3.046  52.931  1.00  0.00     0.039 A 
HETATM    3  C9  UNL     1      23.900   4.359  52.828  1.00  0.00     0.032 A 
HETATM    4  C10 UNL     1      23.764   5.004  51.608  1.00  0.00     0.029 A 
HETATM    5  C19 UNL     1      24.064   4.234  50.502  1.00  0.00     0.032 A 
HETATM    6  C20 UNL     1      24.477   2.908  50.560  1.00  0.00     0.039 A 
ENDROOT
BRANCH   4   7
HETATM    7  N3  UNL     1      23.345   6.363  51.478  1.00  0.00    -0.369 N 
HETATM    8  H10 UNL     1      23.548   6.977  52.322  1.00  0.00     0.161 HD
BRANCH   7   9
HETATM    9  C11 UNL     1      22.691   6.881  50.287  1.00  0.00     0.175 C 
HETATM   10  C12 UNL     1      21.331   7.391  50.701  1.00  0.00     0.055 C 
BRANCH   9  11
HETATM   11  N4  UNL     1      23.544   7.913  49.767  1.00  0.00    -0.388 N 
HETATM   12  C13 UNL     1      23.746   7.874  48.359  1.00  0.00     0.147 C 
HETATM   13  C14 UNL     1      24.838   6.919  47.981  1.00  0.00     0.013 C 
HETATM   14  C15 UNL     1      25.889   6.841  48.797  1.00  0.00     0.024 C 
HETATM   15 CL1  UNL     1      27.237   5.752  48.456  1.00  0.00    -0.088 Cl
HETATM   16  C16 UNL     1      25.987   7.647  50.019  1.00  0.00     0.155 C 
HETATM   17  C18 UNL     1      24.709   8.204  50.537  1.00  0.00     0.138 C 
BRANCH  16  18
HETATM   18  C17 UNL     1      27.041   8.730  49.814  1.00  0.00     0.397 C 
HETATM   19  F1  UNL     1      28.189   8.127  49.285  1.00  0.00    -0.170 F 
HETATM   20  F2  UNL     1      26.628   9.645  48.872  1.00  0.00    -0.170 F 
HETATM   21  F3  UNL     1      27.386   9.319  51.015  1.00  0.00    -0.170 F 
ENDBRANCH  16  18
ENDBRANCH   9  11
ENDBRANCH   7   9
ENDBRANCH   4   7
BRANCH   1  22
HETATM   22  O2  UNL     1      25.013   0.981  51.790  1.00  0.00    -0.312 OA
BRANCH  22  23
HETATM   23  C6  UNL     1      24.955   0.176  52.944  1.00  0.00     0.089 A 
HETATM   24  C3  UNL     1      26.121  -0.586  53.446  1.00  0.00     0.256 A 
HETATM   25  N2  UNL     1      25.586  -1.237  54.615  1.00  0.00    -0.280 NA
HETATM   26  C4  UNL     1      24.357  -0.881  54.709  1.00  0.00     0.114 A 
HETATM   27  C5  UNL     1      23.867   0.025  53.679  1.00  0.00     0.054 A 
BRANCH  24  28
HETATM   28  C2  UNL     1      27.188   0.365  53.909  1.00  0.00     0.248 C 
HETATM   29  N1  UNL     1      27.570   1.519  53.151  1.00  0.00    -0.363 N 
HETATM   30  C1  UNL     1      28.602   2.424  53.614  1.00  0.00     0.149 C 
HETATM   31  H4  UNL     1      27.073   1.673  52.259  1.00  0.00     0.162 HD
HETATM   32  O1  UNL     1      27.612  -0.075  55.021  1.00  0.00    -0.271 OA
ENDBRANCH  24  28
ENDBRANCH  22  23
ENDBRANCH   1  22
TORSDOF 7
ENDMDL
MODEL 4
REMARK VINA RESULT:      -7.9      5.501      8.940
REMARK  7 active torsions:
REMARK  status: ('A' for Active; 'I' for Inactive)
REMARK       I    between atoms: N1_2  and  C2_3 
REMARK    1  A    between atoms: C2_3  and  C3_5 
REMARK    2  A    between atoms: C6_9  and  O2_10 
REMARK    3  A    between atoms: O2_10  and  C7_11 
REMARK    4  A    between atoms: C10_14  and  N3_15 
REMARK    5  A    between atoms: N3_15  and  C11_16 
REMARK    6  A    between atoms: C11_16  and  N4_18 
REMARK    7  A    between atoms: C16_23  and  C17_24 
ROOT
HETATM    1  C7  UNL     1      27.132   5.700  48.668  1.00  0.00     0.075 A 
HETATM    2  C8  UNL     1      26.084   6.440  49.177  1.00  0.00     0.039 A 
HETATM    3  C9  UNL     1      25.142   5.850  49.991  1.00  0.00     0.032 A 
HETATM    4  C10 UNL     1      25.193   4.508  50.338  1.00  0.00     0.029 A 
HETATM    5  C19 UNL     1      26.256   3.806  49.808  1.00  0.00     0.032 A 
HETATM    6  C20 UNL     1      27.227   4.360  48.982  1.00  0.00     0.039 A 
ENDROOT
BRANCH   4   7
HETATM    7  N3  UNL     1      24.228   3.876  51.181  1.00  0.00    -0.369 N 
HETATM    8  H10 UNL     1      24.453   3.906  52.220  1.00  0.00     0.161 HD
BRANCH   7   9
HETATM    9  C11 UNL     1      23.026   3.237  50.671  1.00  0.00     0.175 C 
HETATM   10  C12 UNL     1      22.841   3.689  49.242  1.00  0.00     0.055 C 
BRANCH   9  11
HETATM   11  N4  UNL     1      23.232   1.820  50.791  1.00  0.00    -0.388 N 
HETATM   12  C13 UNL     1      22.111   1.017  50.443  1.00  0.00     0.147 C 
HETATM   13  C14 UNL     1      21.154   0.874  51.587  1.00  0.00     0.013 C 
HETATM   14  C15 UNL     1      21.676   0.777  52.810  1.00  0.00     0.024 C 
HETATM   15 CL1  UNL     1      20.649   0.604  54.237  1.00  0.00    -0.088 Cl
HETATM   16  C16 UNL     1      23.125   0.811  53.042  1.00  0.00     0.155 C 
HETATM   17  C18 UNL     1      23.947   1.393  51.949  1.00  0.00     0.138 C 
BRANCH  16  18
HETATM   18  C17 UNL     1      23.596  -0.587  53.432  1.00  0.00     0.397 C 
HETATM   19  F1  UNL     1      22.736  -1.519  52.838  1.00  0.00    -0.170 F 
HETATM   20  F2  UNL     1      24.846  -0.844  52.915  1.00  0.00    -0.170 F 
HETATM   21  F3  UNL     1      23.537  -0.766  54.800  1.00  0.00    -0.170 F 
ENDBRANCH  16  18
ENDBRANCH   9  11
ENDBRANCH   7   9
ENDBRANCH   4   7
BRANCH   1  22
HETATM   22  O2  UNL     1      28.137   6.197  47.836  1.00  0.00    -0.312 OA
BRANCH  22  23
HETATM   23  C6  UNL     1      28.362   7.579  47.687  1.00  0.00     0.089 A 
HETATM   24  C3  UNL     1      28.964   8.410  48.753  1.00  0.00     0.256 A 
HETATM   25  N2  UNL     1      28.990   9.719  48.151  1.00  0.00    -0.280 NA
HETATM   26  C4  UNL     1      28.490   9.596  46.975  1.00  0.00     0.114 A 
HETATM   27  C5  UNL     1      28.060   8.257  46.594  1.00  0.00     0.054 A 
BRANCH  24  28
HETATM   28  C2  UNL     1      30.389   7.991  48.981  1.00  0.00     0.248 C 
HETATM   29  N1  UNL     1      30.765   6.623  49.175  1.00  0.00    -0.363 N 
HETATM   30  C1  UNL     1      32.145   6.238  49.393  1.00  0.00     0.149 C 
HETATM   31  H4  UNL     1      30.004   5.925  49.150  1.00  0.00     0.162 HD
HETATM   32  O1  UNL     1      31.089   9.049  48.959  1.00  0.00    -0.271 OA
ENDBRANCH  24  28
ENDBRANCH  22  23
ENDBRANCH   1  22
TORSDOF 7
ENDMDL
MODEL 5
REMARK VINA RESULT:      -7.8      5.754      8.123
REMARK  7 active torsions:
REMARK  status: ('A' for Active; 'I' for Inactive)
REMARK       I    between atoms: N1_2  and  C2_3 
REMARK    1  A    between atoms: C2_3  and  C3_5 
REMARK    2  A    between atoms: C6_9  and  O2_10 
REMARK    3  A    between atoms: O2_10  and  C7_11 
REMARK    4  A    between atoms: C10_14  and  N3_15 
REMARK    5  A    between atoms: N3_15  and  C11_16 
REMARK    6  A    between atoms: C11_16  and  N4_18 
REMARK    7  A    between atoms: C16_23  and  C17_24 
ROOT
HETATM    1  C7  UNL     1      27.365   6.236  48.302  1.00  0.00     0.075 A 
HETATM    2  C8  UNL     1      27.786   7.529  48.071  1.00  0.00     0.039 A 
HETATM    3  C9  UNL     1      29.130   7.820  47.974  1.00  0.00     0.032 A 
HETATM    4  C10 UNL     1      30.113   6.850  48.099  1.00  0.00     0.029 A 
HETATM    5  C19 UNL     1      29.649   5.571  48.329  1.00  0.00     0.032 A 
HETATM    6  C20 UNL     1      28.304   5.233  48.435  1.00  0.00     0.039 A 
ENDROOT
BRANCH   4   7
HETATM    7  N3  UNL     1      31.511   7.129  48.001  1.00  0.00    -0.369 N 
HETATM    8  H10 UNL     1      32.052   7.032  48.911  1.00  0.00     0.161 HD
BRANCH   7   9
HETATM    9  C11 UNL     1      32.157   7.516  46.757  1.00  0.00     0.175 C 
HETATM   10  C12 UNL     1      32.438   8.997  46.831  1.00  0.00     0.055 C 
BRANCH   9  11
HETATM   11  N4  UNL     1      33.350   6.721  46.651  1.00  0.00    -0.388 N 
HETATM   12  C13 UNL     1      33.550   6.102  45.386  1.00  0.00     0.147 C 
HETATM   13  C14 UNL     1      32.799   4.809  45.276  1.00  0.00     0.013 C 
HETATM   14  C15 UNL     1      32.722   4.054  46.372  1.00  0.00     0.024 C 
HETATM   15 CL1  UNL     1      31.864   2.510  46.364  1.00  0.00    -0.088 Cl
HETATM   16  C16 UNL     1      33.339   4.458  47.640  1.00  0.00     0.155 C 
HETATM   17  C18 UNL     1      33.655   5.904  47.780  1.00  0.00     0.138 C 
BRANCH  16  18
HETATM   18  C17 UNL     1      34.556   3.578  47.901  1.00  0.00     0.397 C 
HETATM   19  F1  UNL     1      34.111   2.365  48.440  1.00  0.00    -0.170 F 
HETATM   20  F2  UNL     1      35.190   3.255  46.722  1.00  0.00    -0.170 F 
HETATM   21  F3  UNL     1      35.405   4.166  48.819  1.00  0.00    -0.170 F 
ENDBRANCH  16  18
ENDBRANCH   9  11
ENDBRANCH   7   9
ENDBRANCH   4   7
BRANCH   1  22
HETATM   22  O2  UNL     1      26.034   5.833  48.418  1.00  0.00    -0.312 OA
BRANCH  22  23
HETATM   23  C6  UNL     1      25.275   6.099  49.573  1.00  0.00     0.089 A 
HETATM   24  C3  UNL     1      24.203   5.197  50.051  1.00  0.00     0.256 A 
HETATM   25  N2  UNL     1      23.729   5.874  51.231  1.00  0.00    -0.280 NA
HETATM   26  C4  UNL     1      24.428   6.944  51.352  1.00  0.00     0.114 A 
HETATM   27  C5  UNL     1      25.443   7.169  50.331  1.00  0.00     0.054 A 
BRANCH  24  28
HETATM   28  C2  UNL     1      24.799   3.890  50.491  1.00  0.00     0.248 C 
HETATM   29  N1  UNL     1      26.168   3.767  50.893  1.00  0.00    -0.363 N 
HETATM   30  C1  UNL     1      26.724   2.497  51.314  1.00  0.00     0.149 C 
HETATM   31  H4  UNL     1      26.737   4.628  50.869  1.00  0.00     0.162 HD
HETATM   32  O1  UNL     1      23.874   3.024  50.418  1.00  0.00    -0.271 OA
ENDBRANCH  24  28
ENDBRANCH  22  23
ENDBRANCH   1  22
TORSDOF 7
ENDMDL
MODEL 6
REMARK VINA RESULT:      -7.7      5.497      8.846
REMARK  7 active torsions:
REMARK  status: ('A' for Active; 'I' for Inactive)
REMARK       I    between atoms: N1_2  and  C2_3 
REMARK    1  A    between atoms: C2_3  and  C3_5 
REMARK    2  A    between atoms: C6_9  and  O2_10 
REMARK    3  A    between atoms: O2_10  and  C7_11 
REMARK    4  A    between atoms: C10_14  and  N3_15 
REMARK    5  A    between atoms: N3_15  and  C11_16 
REMARK    6  A    between atoms: C11_16  and  N4_18 
REMARK    7  A    between atoms: C16_23  and  C17_24 
ROOT
HETATM    1  C7  UNL     1      27.731   6.079  48.412  1.00  0.00     0.075 A 
HETATM    2  C8  UNL     1      26.620   6.734  48.904  1.00  0.00     0.039 A 
HETATM    3  C9  UNL     1      25.633   6.036  49.566  1.00  0.00     0.032 A 
HETATM    4  C10 UNL     1      25.699   4.665  49.771  1.00  0.00     0.029 A 
HETATM    5  C19 UNL     1      26.826   4.051  49.264  1.00  0.00     0.032 A 
HETATM    6  C20 UNL     1      27.845   4.715  48.590  1.00  0.00     0.039 A 
ENDROOT
BRANCH   4   7
HETATM    7  N3  UNL     1      24.689   3.922  50.455  1.00  0.00    -0.369 N 
HETATM    8  H10 UNL     1      23.758   3.858  49.945  1.00  0.00     0.161 HD
BRANCH   7   9
HETATM    9  C11 UNL     1      24.904   3.296  51.749  1.00  0.00     0.175 C 
HETATM   10  C12 UNL     1      23.746   3.678  52.638  1.00  0.00     0.055 C 
BRANCH   9  11
HETATM   11  N4  UNL     1      24.988   1.881  51.510  1.00  0.00    -0.388 N 
HETATM   12  C13 UNL     1      23.984   1.103  52.152  1.00  0.00     0.147 C 
HETATM   13  C14 UNL     1      24.351   0.784  53.569  1.00  0.00     0.013 C 
HETATM   14  C15 UNL     1      25.635   0.539  53.827  1.00  0.00     0.024 C 
HETATM   15 CL1  UNL     1      26.188   0.151  55.459  1.00  0.00    -0.088 Cl
HETATM   16  C16 UNL     1      26.660   0.578  52.777  1.00  0.00     0.155 C 
HETATM   17  C18 UNL     1      26.299   1.322  51.541  1.00  0.00     0.138 C 
BRANCH  16  18
HETATM   18  C17 UNL     1      27.116  -0.845  52.477  1.00  0.00     0.397 C 
HETATM   19  F1  UNL     1      26.290  -1.727  53.185  1.00  0.00    -0.170 F 
HETATM   20  F2  UNL     1      26.936  -1.148  51.145  1.00  0.00    -0.170 F 
HETATM   21  F3  UNL     1      28.416  -1.049  52.899  1.00  0.00    -0.170 F 
ENDBRANCH  16  18
ENDBRANCH   9  11
ENDBRANCH   7   9
ENDBRANCH   4   7
BRANCH   1  22
HETATM   22  O2  UNL     1      28.785   6.688  47.729  1.00  0.00    -0.312 OA
BRANCH  22  23
HETATM   23  C6  UNL     1      29.893   7.232  48.406  1.00  0.00     0.089 A 
HETATM   24  C3  UNL     1      30.980   6.394  48.961  1.00  0.00     0.256 A 
HETATM   25  N2  UNL     1      31.862   7.374  49.543  1.00  0.00    -0.280 NA
HETATM   26  C4  UNL     1      31.331   8.523  49.332  1.00  0.00     0.114 A 
HETATM   27  C5  UNL     1      30.066   8.526  48.609  1.00  0.00     0.054 A 
BRANCH  24  28
HETATM   28  C2  UNL     1      31.728   5.725  47.842  1.00  0.00     0.248 C 
HETATM   29  N1  UNL     1      32.707   6.413  47.055  1.00  0.00    -0.363 N 
HETATM   30  C1  UNL     1      33.418   5.751  45.979  1.00  0.00     0.149 C 
HETATM   31  H4  UNL     1      32.882   7.402  47.293  1.00  0.00     0.162 HD
HETATM   32  O1  UNL     1      31.309   4.530  47.786  1.00  0.00    -0.271 OA
ENDBRANCH  24  28
ENDBRANCH  22  23
ENDBRANCH   1  22
TORSDOF 7
ENDMDL
MODEL 7
REMARK VINA RESULT:      -7.6      5.324      8.111
REMARK  7 active torsions:
REMARK  status: ('A' for Active; 'I' for Inactive)
REMARK       I    between atoms: N1_2  and  C2_3 
REMARK    1  A    between atoms: C2_3  and  C3_5 
REMARK    2  A    between atoms: C6_9  and  O2_10 
REMARK    3  A    between atoms: O2_10  and  C7_11 
REMARK    4  A    between atoms: C10_14  and  N3_15 
REMARK    5  A    between atoms: N3_15  and  C11_16 
REMARK    6  A    between atoms: C11_16  and  N4_18 
REMARK    7  A    between atoms: C16_23  and  C17_24 
ROOT
HETATM    1  C7  UNL     1      28.188   6.228  47.979  1.00  0.00     0.075 A 
HETATM    2  C8  UNL     1      27.862   5.031  48.583  1.00  0.00     0.039 A 
HETATM    3  C9  UNL     1      26.584   4.809  49.050  1.00  0.00     0.032 A 
HETATM    4  C10 UNL     1      25.576   5.755  48.941  1.00  0.00     0.029 A 
HETATM    5  C19 UNL     1      25.945   6.936  48.330  1.00  0.00     0.032 A 
HETATM    6  C20 UNL     1      27.221   7.203  47.846  1.00  0.00     0.039 A 
ENDROOT
BRANCH   4   7
HETATM    7  N3  UNL     1      24.246   5.546  49.417  1.00  0.00    -0.369 N 
HETATM    8  H10 UNL     1      23.585   5.094  48.717  1.00  0.00     0.161 HD
BRANCH   7   9
HETATM    9  C11 UNL     1      23.814   5.917  50.755  1.00  0.00     0.175 C 
HETATM   10  C12 UNL     1      23.066   7.224  50.646  1.00  0.00     0.055 C 
BRANCH   9  11
HETATM   11  N4  UNL     1      22.995   4.838  51.236  1.00  0.00    -0.388 N 
HETATM   12  C13 UNL     1      22.695   4.884  52.625  1.00  0.00     0.147 C 
HETATM   13  C14 UNL     1      23.793   4.287  53.451  1.00  0.00     0.013 C 
HETATM   14  C15 UNL     1      24.422   3.223  52.951  1.00  0.00     0.024 C 
HETATM   15 CL1  UNL     1      25.732   2.433  53.833  1.00  0.00    -0.088 Cl
HETATM   16  C16 UNL     1      24.068   2.652  51.647  1.00  0.00     0.155 C 
HETATM   17  C18 UNL     1      23.313   3.544  50.727  1.00  0.00     0.138 C 
BRANCH  16  18
HETATM   18  C17 UNL     1      23.356   1.321  51.867  1.00  0.00     0.397 C 
HETATM   19  F1  UNL     1      22.667   0.995  50.692  1.00  0.00    -0.170 F 
HETATM   20  F2  UNL     1      24.265   0.306  52.064  1.00  0.00    -0.170 F 
HETATM   21  F3  UNL     1      22.433   1.417  52.890  1.00  0.00    -0.170 F 
ENDBRANCH  16  18
ENDBRANCH   9  11
ENDBRANCH   7   9
ENDBRANCH   4   7
BRANCH   1  22
HETATM   22  O2  UNL     1      29.447   6.555  47.472  1.00  0.00    -0.312 OA
BRANCH  22  23
HETATM   23  C6  UNL     1      30.442   7.140  48.277  1.00  0.00     0.089 A 
HETATM   24  C3  UNL     1      31.282   6.354  49.208  1.00  0.00     0.256 A 
HETATM   25  N2  UNL     1      32.128   7.363  49.792  1.00  0.00    -0.280 NA
HETATM   26  C4  UNL     1      31.792   8.482  49.262  1.00  0.00     0.114 A 
HETATM   27  C5  UNL     1      30.718   8.433  48.279  1.00  0.00     0.054 A 
BRANCH  24  28
HETATM   28  C2  UNL     1      32.166   5.421  48.430  1.00  0.00     0.248 C 
HETATM   29  N1  UNL     1      31.654   4.537  47.426  1.00  0.00    -0.363 N 
HETATM   30  C1  UNL     1      32.523   3.643  46.686  1.00  0.00     0.149 C 
HETATM   31  H4  UNL     1      30.636   4.569  47.255  1.00  0.00     0.162 HD
HETATM   32  O1  UNL     1      33.349   5.602  48.850  1.00  0.00    -0.271 OA
ENDBRANCH  24  28
ENDBRANCH  22  23
ENDBRANCH   1  22
TORSDOF 7
ENDMDL
MODEL 8
REMARK VINA RESULT:      -7.6      5.680      8.483
REMARK  7 active torsions:
REMARK  status: ('A' for Active; 'I' for Inactive)
REMARK       I    between atoms: N1_2  and  C2_3 
REMARK    1  A    between atoms: C2_3  and  C3_5 
REMARK    2  A    between atoms: C6_9  and  O2_10 
REMARK    3  A    between atoms: O2_10  and  C7_11 
REMARK    4  A    between atoms: C10_14  and  N3_15 
REMARK    5  A    between atoms: N3_15  and  C11_16 
REMARK    6  A    between atoms: C11_16  and  N4_18 
REMARK    7  A    between atoms: C16_23  and  C17_24 
ROOT
HETATM    1  C7  UNL     1      28.045   6.056  48.286  1.00  0.00     0.075 A 
HETATM    2  C8  UNL     1      27.851   4.723  48.586  1.00  0.00     0.039 A 
HETATM    3  C9  UNL     1      26.774   4.328  49.350  1.00  0.00     0.032 A 
HETATM    4  C10 UNL     1      25.845   5.228  49.850  1.00  0.00     0.029 A 
HETATM    5  C19 UNL     1      26.077   6.550  49.526  1.00  0.00     0.032 A 
HETATM    6  C20 UNL     1      27.149   6.992  48.760  1.00  0.00     0.039 A 
ENDROOT
BRANCH   4   7
HETATM    7  N3  UNL     1      24.722   4.842  50.643  1.00  0.00    -0.369 N 
HETATM    8  H10 UNL     1      24.848   4.970  51.691  1.00  0.00     0.161 HD
BRANCH   7   9
HETATM    9  C11 UNL     1      23.493   4.312  50.073  1.00  0.00     0.175 C 
HETATM   10  C12 UNL     1      23.405   4.799  48.647  1.00  0.00     0.055 C 
BRANCH   9  11
HETATM   11  N4  UNL     1      23.578   2.881  50.175  1.00  0.00    -0.388 N 
HETATM   12  C13 UNL     1      22.510   2.170  49.561  1.00  0.00     0.147 C 
HETATM   13  C14 UNL     1      21.321   2.063  50.466  1.00  0.00     0.013 C 
HETATM   14  C15 UNL     1      21.557   1.897  51.767  1.00  0.00     0.024 C 
HETATM   15 CL1  UNL     1      20.236   1.758  52.931  1.00  0.00    -0.088 Cl
HETATM   16  C16 UNL     1      22.920   1.820  52.306  1.00  0.00     0.155 C 
HETATM   17  C18 UNL     1      23.995   2.372  51.441  1.00  0.00     0.138 C 
BRANCH  16  18
HETATM   18  C17 UNL     1      23.205   0.383  52.729  1.00  0.00     0.397 C 
HETATM   19  F1  UNL     1      22.919   0.263  54.094  1.00  0.00    -0.170 F 
HETATM   20  F2  UNL     1      22.358  -0.494  52.088  1.00  0.00    -0.170 F 
HETATM   21  F3  UNL     1      24.537   0.068  52.544  1.00  0.00    -0.170 F 
ENDBRANCH  16  18
ENDBRANCH   9  11
ENDBRANCH   7   9
ENDBRANCH   4   7
BRANCH   1  22
HETATM   22  O2  UNL     1      29.099   6.562  47.523  1.00  0.00    -0.312 OA
BRANCH  22  23
HETATM   23  C6  UNL     1      30.188   7.232  48.111  1.00  0.00     0.089 A 
HETATM   24  C3  UNL     1      31.104   6.577  49.072  1.00  0.00     0.256 A 
HETATM   25  N2  UNL     1      32.031   7.634  49.388  1.00  0.00    -0.280 NA
HETATM   26  C4  UNL     1      31.666   8.663  48.712  1.00  0.00     0.114 A 
HETATM   27  C5  UNL     1      30.492   8.494  47.866  1.00  0.00     0.054 A 
BRANCH  24  28
HETATM   28  C2  UNL     1      31.878   5.493  48.379  1.00  0.00     0.248 C 
HETATM   29  N1  UNL     1      31.276   4.612  47.423  1.00  0.00    -0.363 N 
HETATM   30  C1  UNL     1      32.039   3.570  46.764  1.00  0.00     0.149 C 
HETATM   31  H4  UNL     1      30.273   4.756  47.227  1.00  0.00     0.162 HD
HETATM   32  O1  UNL     1      33.067   5.556  48.815  1.00  0.00    -0.271 OA
ENDBRANCH  24  28
ENDBRANCH  22  23
ENDBRANCH   1  22
TORSDOF 7
ENDMDL
MODEL 9
REMARK VINA RESULT:      -7.5      5.454      8.811
REMARK  7 active torsions:
REMARK  status: ('A' for Active; 'I' for Inactive)
REMARK       I    between atoms: N1_2  and  C2_3 
REMARK    1  A    between atoms: C2_3  and  C3_5 
REMARK    2  A    between atoms: C6_9  and  O2_10 
REMARK    3  A    between atoms: O2_10  and  C7_11 
REMARK    4  A    between atoms: C10_14  and  N3_15 
REMARK    5  A    between atoms: N3_15  and  C11_16 
REMARK    6  A    between atoms: C11_16  and  N4_18 
REMARK    7  A    between atoms: C16_23  and  C17_24 
ROOT
HETATM    1  C7  UNL     1      27.341   5.787  48.525  1.00  0.00     0.075 A 
HETATM    2  C8  UNL     1      27.340   4.441  48.831  1.00  0.00     0.039 A 
HETATM    3  C9  UNL     1      26.431   3.931  49.733  1.00  0.00     0.032 A 
HETATM    4  C10 UNL     1      25.486   4.723  50.369  1.00  0.00     0.029 A 
HETATM    5  C19 UNL     1      25.523   6.061  50.033  1.00  0.00     0.032 A 
HETATM    6  C20 UNL     1      26.422   6.618  49.131  1.00  0.00     0.039 A 
ENDROOT
BRANCH   4   7
HETATM    7  N3  UNL     1      24.535   4.215  51.305  1.00  0.00    -0.369 N 
HETATM    8  H10 UNL     1      24.803   4.336  52.327  1.00  0.00     0.161 HD
BRANCH   7   9
HETATM    9  C11 UNL     1      23.289   3.580  50.906  1.00  0.00     0.175 C 
HETATM   10  C12 UNL     1      22.936   4.095  49.531  1.00  0.00     0.055 C 
BRANCH   9  11
HETATM   11  N4  UNL     1      23.525   2.163  50.933  1.00  0.00    -0.388 N 
HETATM   12  C13 UNL     1      22.465   1.367  50.416  1.00  0.00     0.147 C 
HETATM   13  C14 UNL     1      21.409   1.110  51.448  1.00  0.00     0.013 C 
HETATM   14  C15 UNL     1      21.815   0.926  52.704  1.00  0.00     0.024 C 
HETATM   15 CL1  UNL     1      20.663   0.616  54.006  1.00  0.00    -0.088 Cl
HETATM   16  C16 UNL     1      23.234   0.972  53.077  1.00  0.00     0.155 C 
HETATM   17  C18 UNL     1      24.139   1.658  52.118  1.00  0.00     0.138 C 
BRANCH  16  18
HETATM   18  C17 UNL     1      23.706  -0.442  53.399  1.00  0.00     0.397 C 
HETATM   19  F1  UNL     1      22.838  -1.346  52.774  1.00  0.00    -0.170 F 
HETATM   20  F2  UNL     1      24.950  -0.679  52.857  1.00  0.00    -0.170 F 
HETATM   21  F3  UNL     1      23.663  -0.681  54.759  1.00  0.00    -0.170 F 
ENDBRANCH  16  18
ENDBRANCH   9  11
ENDBRANCH   7   9
ENDBRANCH   4   7
BRANCH   1  22
HETATM   22  O2  UNL     1      28.215   6.405  47.629  1.00  0.00    -0.312 OA
BRANCH  22  23
HETATM   23  C6  UNL     1      29.534   6.740  47.989  1.00  0.00     0.089 A 
HETATM   24  C3  UNL     1      30.136   8.056  47.680  1.00  0.00     0.256 A 
HETATM   25  N2  UNL     1      31.462   7.929  48.230  1.00  0.00    -0.280 NA
HETATM   26  C4  UNL     1      31.541   6.753  48.739  1.00  0.00     0.114 A 
HETATM   27  C5  UNL     1      30.350   5.922  48.630  1.00  0.00     0.054 A 
BRANCH  24  28
HETATM   28  C2  UNL     1      29.430   9.133  48.453  1.00  0.00     0.248 C 
HETATM   29  N1  UNL     1      28.084   9.529  48.163  1.00  0.00    -0.363 N 
HETATM   30  C1  UNL     1      27.419  10.571  48.920  1.00  0.00     0.149 C 
HETATM   31  H4  UNL     1      27.612   9.034  47.390  1.00  0.00     0.162 HD
HETATM   32  O1  UNL     1      30.248   9.552  49.327  1.00  0.00    -0.271 OA
ENDBRANCH  24  28
ENDBRANCH  22  23
ENDBRANCH   1  22
TORSDOF 7
ENDMDL
