MODEL 1
REMARK VINA RESULT:      -8.6      0.000      0.000
REMARK  3 active torsions:
REMARK  status: ('A' for Active; 'I' for Inactive)
REMARK    1  A    between atoms: O1_2  and  C2_3 
REMARK    2  A    between atoms: C10_13  and  N3_14 
REMARK       I    between atoms: N3_14  and  C11_15 
REMARK    3  A    between atoms: C17_22  and  O3_23 
ROOT
HETATM    1  C2  UNL     1      19.508  -0.863  53.218  1.00  0.00     0.103 A 
HETATM    2  C3  UNL     1      20.178  -1.596  54.181  1.00  0.00     0.072 A 
HETATM    3  C4  UNL     1      21.527  -1.331  54.400  1.00  0.00     0.073 A 
HETATM    4  N1  UNL     1      22.240  -2.013  55.314  1.00  0.00    -0.241 NA
HETATM    5  C5  UNL     1      23.554  -1.681  55.441  1.00  0.00     0.234 A 
HETATM    6  N2  UNL     1      24.123  -0.718  54.694  1.00  0.00    -0.240 NA
HETATM    7  C6  UNL     1      23.439  -0.004  53.758  1.00  0.00     0.081 A 
HETATM    8  C7  UNL     1      24.232   0.972  53.070  1.00  0.00    -0.006 A 
HETATM    9  C8  UNL     1      24.012   2.311  52.828  1.00  0.00     0.016 A 
HETATM   10  C9  UNL     1      24.892   3.096  52.117  1.00  0.00     0.030 A 
HETATM   11  C10 UNL     1      26.056   2.576  51.603  1.00  0.00     0.034 A 
HETATM   12  C13 UNL     1      26.325   1.241  51.817  1.00  0.00     0.030 A 
HETATM   13  C14 UNL     1      25.431   0.491  52.526  1.00  0.00     0.016 A 
HETATM   14  C15 UNL     1      22.122  -0.346  53.639  1.00  0.00     0.025 A 
HETATM   15  C16 UNL     1      21.432   0.369  52.683  1.00  0.00     0.055 A 
HETATM   16  C17 UNL     1      20.106   0.137  52.441  1.00  0.00     0.102 A 
ENDROOT
BRANCH  16  17
HETATM   17  O3  UNL     1      19.321   0.799  51.505  1.00  0.00    -0.353 OA
HETATM   18  C18 UNL     1      19.122   2.182  51.671  1.00  0.00     0.210 C 
ENDBRANCH  16  17
BRANCH  11  19
HETATM   19  N3  UNL     1      26.991   3.348  50.865  1.00  0.00    -0.328 N 
HETATM   20  C11 UNL     1      26.506   3.963  49.657  1.00  0.00     0.218 C 
HETATM   21  C12 UNL     1      27.282   4.818  48.709  1.00  0.00     0.117 C 
HETATM   22  O2  UNL     1      25.324   3.860  49.221  1.00  0.00    -0.274 OA
HETATM   23  H8  UNL     1      27.989   3.561  51.036  1.00  0.00     0.169 HD
ENDBRANCH  11  19
BRANCH   1  24
HETATM   24  O1  UNL     1      18.167  -1.134  53.008  1.00  0.00    -0.353 OA
HETATM   25  C1  UNL     1      17.572  -2.319  53.458  1.00  0.00     0.210 C 
ENDBRANCH   1  24
TORSDOF 3
ENDMDL
MODEL 2
REMARK VINA RESULT:      -8.5      2.992      7.293
REMARK  3 active torsions:
REMARK  status: ('A' for Active; 'I' for Inactive)
REMARK    1  A    between atoms: O1_2  and  C2_3 
REMARK    2  A    between atoms: C10_13  and  N3_14 
REMARK       I    between atoms: N3_14  and  C11_15 
REMARK    3  A    between atoms: C17_22  and  O3_23 
ROOT
HETATM    1  C2  UNL     1      27.292   0.252  53.881  1.00  0.00     0.103 A 
HETATM    2  C3  UNL     1      27.632   1.132  52.870  1.00  0.00     0.072 A 
HETATM    3  C4  UNL     1      26.613   1.680  52.095  1.00  0.00     0.073 A 
HETATM    4  N1  UNL     1      26.875   2.535  51.090  1.00  0.00    -0.241 NA
HETATM    5  C5  UNL     1      25.807   3.003  50.389  1.00  0.00     0.234 A 
HETATM    6  N2  UNL     1      24.545   2.636  50.677  1.00  0.00    -0.240 NA
HETATM    7  C6  UNL     1      24.237   1.773  51.685  1.00  0.00     0.081 A 
HETATM    8  C7  UNL     1      22.833   1.512  51.823  1.00  0.00    -0.006 A 
HETATM    9  C8  UNL     1      22.009   1.550  52.927  1.00  0.00     0.016 A 
HETATM   10  C9  UNL     1      20.668   1.239  52.868  1.00  0.00     0.030 A 
HETATM   11  C10 UNL     1      20.073   0.868  51.687  1.00  0.00     0.034 A 
HETATM   12  C13 UNL     1      20.853   0.814  50.551  1.00  0.00     0.030 A 
HETATM   13  C14 UNL     1      22.180   1.128  50.644  1.00  0.00     0.016 A 
HETATM   14  C15 UNL     1      25.316   1.309  52.381  1.00  0.00     0.025 A 
HETATM   15  C16 UNL     1      25.004   0.428  53.393  1.00  0.00     0.055 A 
HETATM   16  C17 UNL     1      25.977  -0.130  54.176  1.00  0.00     0.102 A 
ENDROOT
BRANCH  16  17
HETATM   17  O3  UNL     1      25.771  -1.025  55.219  1.00  0.00    -0.353 OA
HETATM   18  C18 UNL     1      24.446  -1.276  55.621  1.00  0.00     0.210 C 
ENDBRANCH  16  17
BRANCH  11  19
HETATM   19  N3  UNL     1      18.696   0.540  51.581  1.00  0.00    -0.328 N 
HETATM   20  C11 UNL     1      18.224  -0.528  52.422  1.00  0.00     0.218 C 
HETATM   21  C12 UNL     1      16.831  -1.061  52.502  1.00  0.00     0.117 C 
HETATM   22  O2  UNL     1      18.944  -1.179  53.232  1.00  0.00    -0.274 OA
HETATM   23  H8  UNL     1      17.941   0.936  50.995  1.00  0.00     0.169 HD
ENDBRANCH  11  19
BRANCH   1  24
HETATM   24  O1  UNL     1      28.312  -0.287  54.647  1.00  0.00    -0.353 OA
HETATM   25  C1  UNL     1      29.518  -0.715  54.078  1.00  0.00     0.210 C 
ENDBRANCH   1  24
TORSDOF 3
ENDMDL
MODEL 3
REMARK VINA RESULT:      -8.1      2.680      6.595
REMARK  3 active torsions:
REMARK  status: ('A' for Active; 'I' for Inactive)
REMARK    1  A    between atoms: O1_2  and  C2_3 
REMARK    2  A    between atoms: C10_13  and  N3_14 
REMARK       I    between atoms: N3_14  and  C11_15 
REMARK    3  A    between atoms: C17_22  and  O3_23 
ROOT
HETATM    1  C2  UNL     1      27.422   0.741  53.510  1.00  0.00     0.103 A 
HETATM    2  C3  UNL     1      26.942  -0.099  54.498  1.00  0.00     0.072 A 
HETATM    3  C4  UNL     1      25.579  -0.383  54.525  1.00  0.00     0.073 A 
HETATM    4  N1  UNL     1      25.045  -1.184  55.464  1.00  0.00    -0.241 NA
HETATM    5  C5  UNL     1      23.700  -1.388  55.406  1.00  0.00     0.234 A 
HETATM    6  N2  UNL     1      22.932  -0.820  54.458  1.00  0.00    -0.240 NA
HETATM    7  C6  UNL     1      23.432  -0.003  53.490  1.00  0.00     0.081 A 
HETATM    8  C7  UNL     1      22.444   0.500  52.580  1.00  0.00    -0.006 A 
HETATM    9  C8  UNL     1      22.409   0.522  51.203  1.00  0.00     0.016 A 
HETATM   10  C9  UNL     1      21.368   1.078  50.491  1.00  0.00     0.030 A 
HETATM   11  C10 UNL     1      20.294   1.650  51.129  1.00  0.00     0.034 A 
HETATM   12  C13 UNL     1      20.279   1.655  52.507  1.00  0.00     0.030 A 
HETATM   13  C14 UNL     1      21.327   1.095  53.183  1.00  0.00     0.016 A 
HETATM   14  C15 UNL     1      24.782   0.195  53.559  1.00  0.00     0.025 A 
HETATM   15  C16 UNL     1      25.285   1.031  52.586  1.00  0.00     0.055 A 
HETATM   16  C17 UNL     1      26.618   1.332  52.527  1.00  0.00     0.102 A 
ENDROOT
BRANCH  16  17
HETATM   17  O3  UNL     1      27.226   2.159  51.591  1.00  0.00    -0.353 OA
HETATM   18  C18 UNL     1      26.399   2.964  50.786  1.00  0.00     0.210 C 
ENDBRANCH  16  17
BRANCH  11  19
HETATM   19  N3  UNL     1      19.201   2.233  50.436  1.00  0.00    -0.328 N 
HETATM   20  C11 UNL     1      18.112   1.355  50.098  1.00  0.00     0.218 C 
HETATM   21  C12 UNL     1      16.856   1.717  49.376  1.00  0.00     0.117 C 
HETATM   22  O2  UNL     1      18.070   0.122  50.374  1.00  0.00    -0.274 OA
HETATM   23  H8  UNL     1      19.032   3.203  50.116  1.00  0.00     0.169 HD
ENDBRANCH  11  19
BRANCH   1  24
HETATM   24  O1  UNL     1      28.779   1.017  53.492  1.00  0.00    -0.353 OA
HETATM   25  C1  UNL     1      29.741   0.003  53.569  1.00  0.00     0.210 C 
ENDBRANCH   1  24
TORSDOF 3
ENDMDL
MODEL 4
REMARK VINA RESULT:      -8.1      2.857      6.273
REMARK  3 active torsions:
REMARK  status: ('A' for Active; 'I' for Inactive)
REMARK    1  A    between atoms: O1_2  and  C2_3 
REMARK    2  A    between atoms: C10_13  and  N3_14 
REMARK       I    between atoms: N3_14  and  C11_15 
REMARK    3  A    between atoms: C17_22  and  O3_23 
ROOT
HETATM    1  C2  UNL     1      27.413   0.749  53.420  1.00  0.00     0.103 A 
HETATM    2  C3  UNL     1      26.948  -0.123  54.387  1.00  0.00     0.072 A 
HETATM    3  C4  UNL     1      25.581  -0.382  54.445  1.00  0.00     0.073 A 
HETATM    4  N1  UNL     1      25.060  -1.213  55.367  1.00  0.00    -0.241 NA
HETATM    5  C5  UNL     1      23.711  -1.389  55.342  1.00  0.00     0.234 A 
HETATM    6  N2  UNL     1      22.925  -0.767  54.445  1.00  0.00    -0.240 NA
HETATM    7  C6  UNL     1      23.411   0.081  53.496  1.00  0.00     0.081 A 
HETATM    8  C7  UNL     1      22.405   0.640  52.640  1.00  0.00    -0.006 A 
HETATM    9  C8  UNL     1      22.328   0.720  51.266  1.00  0.00     0.016 A 
HETATM   10  C9  UNL     1      21.277   1.325  50.612  1.00  0.00     0.030 A 
HETATM   11  C10 UNL     1      20.235   1.889  51.306  1.00  0.00     0.034 A 
HETATM   12  C13 UNL     1      20.263   1.836  52.683  1.00  0.00     0.030 A 
HETATM   13  C14 UNL     1      21.319   1.229  53.301  1.00  0.00     0.016 A 
HETATM   14  C15 UNL     1      24.765   0.250  53.530  1.00  0.00     0.025 A 
HETATM   15  C16 UNL     1      25.255   1.117  52.577  1.00  0.00     0.055 A 
HETATM   16  C17 UNL     1      26.591   1.396  52.489  1.00  0.00     0.102 A 
ENDROOT
BRANCH  16  17
HETATM   17  O3  UNL     1      27.186   2.250  51.569  1.00  0.00    -0.353 OA
HETATM   18  C18 UNL     1      26.355   2.901  50.638  1.00  0.00     0.210 C 
ENDBRANCH  16  17
BRANCH  11  19
HETATM   19  N3  UNL     1      19.133   2.522  50.673  1.00  0.00    -0.328 N 
HETATM   20  C11 UNL     1      19.232   3.944  50.480  1.00  0.00     0.218 C 
HETATM   21  C12 UNL     1      18.219   4.839  49.844  1.00  0.00     0.117 C 
HETATM   22  O2  UNL     1      20.219   4.651  50.832  1.00  0.00    -0.274 OA
HETATM   23  H8  UNL     1      18.240   2.142  50.311  1.00  0.00     0.169 HD
ENDBRANCH  11  19
BRANCH   1  24
HETATM   24  O1  UNL     1      28.774   1.000  53.370  1.00  0.00    -0.353 OA
HETATM   25  C1  UNL     1      29.717   0.058  53.800  1.00  0.00     0.210 C 
ENDBRANCH   1  24
TORSDOF 3
ENDMDL
MODEL 5
REMARK VINA RESULT:      -7.9      4.034      6.244
REMARK  3 active torsions:
REMARK  status: ('A' for Active; 'I' for Inactive)
REMARK    1  A    between atoms: O1_2  and  C2_3 
REMARK    2  A    between atoms: C10_13  and  N3_14 
REMARK       I    between atoms: N3_14  and  C11_15 
REMARK    3  A    between atoms: C17_22  and  O3_23 
ROOT
HETATM    1  C2  UNL     1      25.323   1.244  53.316  1.00  0.00     0.103 A 
HETATM    2  C3  UNL     1      24.169   1.008  52.590  1.00  0.00     0.072 A 
HETATM    3  C4  UNL     1      23.971   1.714  51.407  1.00  0.00     0.073 A 
HETATM    4  N1  UNL     1      22.867   1.539  50.659  1.00  0.00    -0.241 NA
HETATM    5  C5  UNL     1      22.769   2.287  49.526  1.00  0.00     0.234 A 
HETATM    6  N2  UNL     1      23.724   3.162  49.162  1.00  0.00    -0.240 NA
HETATM    7  C6  UNL     1      24.855   3.370  49.890  1.00  0.00     0.081 A 
HETATM    8  C7  UNL     1      25.743   4.347  49.328  1.00  0.00    -0.006 A 
HETATM    9  C8  UNL     1      27.096   4.299  49.070  1.00  0.00     0.016 A 
HETATM   10  C9  UNL     1      27.792   5.363  48.540  1.00  0.00     0.030 A 
HETATM   11  C10 UNL     1      27.164   6.546  48.237  1.00  0.00     0.034 A 
HETATM   12  C13 UNL     1      25.810   6.647  48.475  1.00  0.00     0.030 A 
HETATM   13  C14 UNL     1      25.149   5.573  49.002  1.00  0.00     0.016 A 
HETATM   14  C15 UNL     1      24.943   2.615  51.024  1.00  0.00     0.025 A 
HETATM   15  C16 UNL     1      26.083   2.833  51.767  1.00  0.00     0.055 A 
HETATM   16  C17 UNL     1      26.313   2.158  52.934  1.00  0.00     0.102 A 
ENDROOT
BRANCH  16  17
HETATM   17  O3  UNL     1      27.425   2.302  53.754  1.00  0.00    -0.353 OA
HETATM   18  C18 UNL     1      28.604   1.624  53.392  1.00  0.00     0.210 C 
ENDBRANCH  16  17
BRANCH  11  19
HETATM   19  N3  UNL     1      27.843   7.667  47.689  1.00  0.00    -0.328 N 
HETATM   20  C11 UNL     1      28.164   8.732  48.602  1.00  0.00     0.218 C 
HETATM   21  C12 UNL     1      28.870  10.009  48.281  1.00  0.00     0.117 C 
HETATM   22  O2  UNL     1      27.886   8.732  49.835  1.00  0.00    -0.274 OA
HETATM   23  H8  UNL     1      28.161   7.871  46.726  1.00  0.00     0.169 HD
ENDBRANCH  11  19
BRANCH   1  24
HETATM   24  O1  UNL     1      25.510   0.536  54.491  1.00  0.00    -0.353 OA
HETATM   25  C1  UNL     1      25.244  -0.835  54.580  1.00  0.00     0.210 C 
ENDBRANCH   1  24
TORSDOF 3
ENDMDL
MODEL 6
REMARK VINA RESULT:      -7.9      2.960      4.558
REMARK  3 active torsions:
REMARK  status: ('A' for Active; 'I' for Inactive)
REMARK    1  A    between atoms: O1_2  and  C2_3 
REMARK    2  A    between atoms: C10_13  and  N3_14 
REMARK       I    between atoms: N3_14  and  C11_15 
REMARK    3  A    between atoms: C17_22  and  O3_23 
ROOT
HETATM    1  C2  UNL     1      20.592   1.696  49.252  1.00  0.00     0.103 A 
HETATM    2  C3  UNL     1      19.727   1.105  50.156  1.00  0.00     0.072 A 
HETATM    3  C4  UNL     1      20.228   0.704  51.391  1.00  0.00     0.073 A 
HETATM    4  N1  UNL     1      19.444   0.115  52.312  1.00  0.00    -0.241 NA
HETATM    5  C5  UNL     1      20.037  -0.247  53.482  1.00  0.00     0.234 A 
HETATM    6  N2  UNL     1      21.344  -0.030  53.718  1.00  0.00    -0.240 NA
HETATM    7  C6  UNL     1      22.172   0.562  52.815  1.00  0.00     0.081 A 
HETATM    8  C7  UNL     1      23.528   0.696  53.262  1.00  0.00    -0.006 A 
HETATM    9  C8  UNL     1      24.374   1.784  53.275  1.00  0.00     0.016 A 
HETATM   10  C9  UNL     1      25.673   1.714  53.730  1.00  0.00     0.030 A 
HETATM   11  C10 UNL     1      26.201   0.536  54.202  1.00  0.00     0.034 A 
HETATM   12  C13 UNL     1      25.396  -0.583  54.210  1.00  0.00     0.030 A 
HETATM   13  C14 UNL     1      24.112  -0.480  53.753  1.00  0.00     0.016 A 
HETATM   14  C15 UNL     1      21.567   0.920  51.644  1.00  0.00     0.025 A 
HETATM   15  C16 UNL     1      22.408   1.510  50.725  1.00  0.00     0.055 A 
HETATM   16  C17 UNL     1      21.952   1.917  49.502  1.00  0.00     0.102 A 
ENDROOT
BRANCH  16  17
HETATM   17  O3  UNL     1      22.713   2.520  48.507  1.00  0.00    -0.353 OA
HETATM   18  C18 UNL     1      23.775   3.354  48.904  1.00  0.00     0.210 C 
ENDBRANCH  16  17
BRANCH  11  19
HETATM   19  N3  UNL     1      27.532   0.419  54.680  1.00  0.00    -0.328 N 
HETATM   20  C11 UNL     1      28.459  -0.287  53.835  1.00  0.00     0.218 C 
HETATM   21  C12 UNL     1      29.905  -0.546  54.105  1.00  0.00     0.117 C 
HETATM   22  O2  UNL     1      28.167  -0.800  52.717  1.00  0.00    -0.274 OA
HETATM   23  H8  UNL     1      27.979   0.757  55.550  1.00  0.00     0.169 HD
ENDBRANCH  11  19
BRANCH   1  24
HETATM   24  O1  UNL     1      20.083   2.091  48.026  1.00  0.00    -0.353 OA
HETATM   25  C1  UNL     1      19.220   3.186  47.901  1.00  0.00     0.210 C 
ENDBRANCH   1  24
TORSDOF 3
ENDMDL
MODEL 7
REMARK VINA RESULT:      -7.7      2.447      4.103
REMARK  3 active torsions:
REMARK  status: ('A' for Active; 'I' for Inactive)
REMARK    1  A    between atoms: O1_2  and  C2_3 
REMARK    2  A    between atoms: C10_13  and  N3_14 
REMARK       I    between atoms: N3_14  and  C11_15 
REMARK    3  A    between atoms: C17_22  and  O3_23 
ROOT
HETATM    1  C2  UNL     1      23.213  -0.296  52.958  1.00  0.00     0.103 A 
HETATM    2  C3  UNL     1      24.508  -0.500  53.399  1.00  0.00     0.072 A 
HETATM    3  C4  UNL     1      25.492   0.404  53.008  1.00  0.00     0.073 A 
HETATM    4  N1  UNL     1      26.774   0.260  53.393  1.00  0.00    -0.241 NA
HETATM    5  C5  UNL     1      27.657   1.193  52.947  1.00  0.00     0.234 A 
HETATM    6  N2  UNL     1      27.280   2.216  52.158  1.00  0.00    -0.240 NA
HETATM    7  C6  UNL     1      25.995   2.398  51.745  1.00  0.00     0.081 A 
HETATM    8  C7  UNL     1      25.806   3.547  50.907  1.00  0.00    -0.006 A 
HETATM    9  C8  UNL     1      24.893   4.577  50.975  1.00  0.00     0.016 A 
HETATM   10  C9  UNL     1      24.849   5.598  50.051  1.00  0.00     0.030 A 
HETATM   11  C10 UNL     1      25.729   5.643  48.997  1.00  0.00     0.034 A 
HETATM   12  C13 UNL     1      26.664   4.637  48.883  1.00  0.00     0.030 A 
HETATM   13  C14 UNL     1      26.680   3.639  49.816  1.00  0.00     0.016 A 
HETATM   14  C15 UNL     1      25.117   1.455  52.198  1.00  0.00     0.025 A 
HETATM   15  C16 UNL     1      23.819   1.634  51.771  1.00  0.00     0.055 A 
HETATM   16  C17 UNL     1      22.825   0.768  52.135  1.00  0.00     0.102 A 
ENDROOT
BRANCH  16  17
HETATM   17  O3  UNL     1      21.489   0.857  51.762  1.00  0.00    -0.353 OA
HETATM   18  C18 UNL     1      21.162   0.607  50.417  1.00  0.00     0.210 C 
ENDBRANCH  16  17
BRANCH  11  19
HETATM   19  N3  UNL     1      25.720   6.676  48.023  1.00  0.00    -0.328 N 
HETATM   20  C11 UNL     1      26.537   7.828  48.301  1.00  0.00     0.218 C 
HETATM   21  C12 UNL     1      26.702   9.041  47.446  1.00  0.00     0.117 C 
HETATM   22  O2  UNL     1      27.247   7.974  49.337  1.00  0.00    -0.274 OA
HETATM   23  H8  UNL     1      25.221   6.762  47.120  1.00  0.00     0.169 HD
ENDBRANCH  11  19
BRANCH   1  24
HETATM   24  O1  UNL     1      22.241  -1.201  53.353  1.00  0.00    -0.353 OA
HETATM   25  C1  UNL     1      21.683  -1.175  54.637  1.00  0.00     0.210 C 
ENDBRANCH   1  24
TORSDOF 3
ENDMDL
MODEL 8
REMARK VINA RESULT:      -7.5      2.825      4.835
REMARK  3 active torsions:
REMARK  status: ('A' for Active; 'I' for Inactive)
REMARK    1  A    between atoms: O1_2  and  C2_3 
REMARK    2  A    between atoms: C10_13  and  N3_14 
REMARK       I    between atoms: N3_14  and  C11_15 
REMARK    3  A    between atoms: C17_22  and  O3_23 
ROOT
HETATM    1  C2  UNL     1      19.125   2.842  51.732  1.00  0.00     0.103 A 
HETATM    2  C3  UNL     1      19.618   4.100  51.439  1.00  0.00     0.072 A 
HETATM    3  C4  UNL     1      20.990   4.316  51.541  1.00  0.00     0.073 A 
HETATM    4  N1  UNL     1      21.535   5.518  51.281  1.00  0.00    -0.241 NA
HETATM    5  C5  UNL     1      22.885   5.623  51.420  1.00  0.00     0.234 A 
HETATM    6  N2  UNL     1      23.648   4.582  51.800  1.00  0.00    -0.240 NA
HETATM    7  C6  UNL     1      23.137   3.350  52.072  1.00  0.00     0.081 A 
HETATM    8  C7  UNL     1      24.120   2.381  52.462  1.00  0.00    -0.006 A 
HETATM    9  C8  UNL     1      24.358   1.100  52.012  1.00  0.00     0.016 A 
HETATM   10  C9  UNL     1      25.351   0.299  52.532  1.00  0.00     0.030 A 
HETATM   11  C10 UNL     1      26.168   0.741  53.544  1.00  0.00     0.034 A 
HETATM   12  C13 UNL     1      25.972   2.016  54.031  1.00  0.00     0.030 A 
HETATM   13  C14 UNL     1      24.979   2.785  53.493  1.00  0.00     0.016 A 
HETATM   14  C15 UNL     1      21.782   3.256  51.930  1.00  0.00     0.025 A 
HETATM   15  C16 UNL     1      21.264   2.012  52.217  1.00  0.00     0.055 A 
HETATM   16  C17 UNL     1      19.922   1.761  52.128  1.00  0.00     0.102 A 
ENDROOT
BRANCH  16  17
HETATM   17  O3  UNL     1      19.300   0.548  52.394  1.00  0.00    -0.353 OA
HETATM   18  C18 UNL     1      19.949  -0.351  53.261  1.00  0.00     0.210 C 
ENDBRANCH  16  17
BRANCH  11  19
HETATM   19  N3  UNL     1      27.202  -0.051  54.108  1.00  0.00    -0.328 N 
HETATM   20  C11 UNL     1      28.531   0.172  53.602  1.00  0.00     0.218 C 
HETATM   21  C12 UNL     1      29.783  -0.523  54.025  1.00  0.00     0.117 C 
HETATM   22  O2  UNL     1      28.828   1.012  52.705  1.00  0.00    -0.274 OA
HETATM   23  H8  UNL     1      27.182  -0.783  54.840  1.00  0.00     0.169 HD
ENDBRANCH  11  19
BRANCH   1  24
HETATM   24  O1  UNL     1      17.759   2.638  51.627  1.00  0.00    -0.353 OA
HETATM   25  C1  UNL     1      17.035   3.035  50.497  1.00  0.00     0.210 C 
ENDBRANCH   1  24
TORSDOF 3
ENDMDL
MODEL 9
REMARK VINA RESULT:      -7.4      2.835      7.513
REMARK  3 active torsions:
REMARK  status: ('A' for Active; 'I' for Inactive)
REMARK    1  A    between atoms: O1_2  and  C2_3 
REMARK    2  A    between atoms: C10_13  and  N3_14 
REMARK       I    between atoms: N3_14  and  C11_15 
REMARK    3  A    between atoms: C17_22  and  O3_23 
ROOT
HETATM    1  C2  UNL     1      23.015   4.175  52.170  1.00  0.00     0.103 A 
HETATM    2  C3  UNL     1      23.868   3.178  52.608  1.00  0.00     0.072 A 
HETATM    3  C4  UNL     1      23.364   1.889  52.756  1.00  0.00     0.073 A 
HETATM    4  N1  UNL     1      24.137   0.876  53.186  1.00  0.00    -0.241 NA
HETATM    5  C5  UNL     1      23.541  -0.343  53.306  1.00  0.00     0.234 A 
HETATM    6  N2  UNL     1      22.243  -0.536  53.010  1.00  0.00    -0.240 NA
HETATM    7  C6  UNL     1      21.426   0.462  52.572  1.00  0.00     0.081 A 
HETATM    8  C7  UNL     1      20.078   0.045  52.317  1.00  0.00    -0.006 A 
HETATM    9  C8  UNL     1      19.264   0.234  51.221  1.00  0.00     0.016 A 
HETATM   10  C9  UNL     1      17.967  -0.227  51.167  1.00  0.00     0.030 A 
HETATM   11  C10 UNL     1      17.408  -0.911  52.220  1.00  0.00     0.034 A 
HETATM   12  C13 UNL     1      18.180  -1.127  53.341  1.00  0.00     0.030 A 
HETATM   13  C14 UNL     1      19.463  -0.657  53.363  1.00  0.00     0.016 A 
HETATM   14  C15 UNL     1      22.034   1.679  52.457  1.00  0.00     0.025 A 
HETATM   15  C16 UNL     1      21.204   2.691  52.025  1.00  0.00     0.055 A 
HETATM   16  C17 UNL     1      21.663   3.969  51.866  1.00  0.00     0.102 A 
ENDROOT
BRANCH  16  17
HETATM   17  O3  UNL     1      20.914   5.058  51.437  1.00  0.00    -0.353 OA
HETATM   18  C18 UNL     1      20.506   5.088  50.090  1.00  0.00     0.210 C 
ENDBRANCH  16  17
BRANCH  11  19
HETATM   19  N3  UNL     1      16.077  -1.404  52.206  1.00  0.00    -0.328 N 
HETATM   20  C11 UNL     1      15.052  -0.501  52.660  1.00  0.00     0.218 C 
HETATM   21  C12 UNL     1      13.586  -0.772  52.742  1.00  0.00     0.117 C 
HETATM   22  O2  UNL     1      15.260   0.679  53.062  1.00  0.00    -0.274 OA
HETATM   23  H8  UNL     1      15.689  -2.320  51.921  1.00  0.00     0.169 HD
ENDBRANCH  11  19
BRANCH   1  24
HETATM   24  O1  UNL     1      23.526   5.454  52.026  1.00  0.00    -0.353 OA
HETATM   25  C1  UNL     1      24.303   5.820  50.920  1.00  0.00     0.210 C 
ENDBRANCH   1  24
TORSDOF 3
ENDMDL
