MODEL 1
REMARK VINA RESULT:      -9.2      0.000      0.000
REMARK  5 active torsions:
REMARK  status: ('A' for Active; 'I' for Inactive)
REMARK    1  A    between atoms: C2_3  and  C3_4 
REMARK    2  A    between atoms: C4_5  and  C5_6 
REMARK       I    between atoms: C5_6  and  N2_8 
REMARK    3  A    between atoms: N2_8  and  C6_9 
REMARK    4  A    between atoms: C19_24  and  C20_25 
REMARK    5  A    between atoms: C21_26  and  O3_27 
ROOT
HETATM    1  C3  UNL     1      25.614   1.994  53.052  1.00  0.00     0.053 C 
HETATM    2  C4  UNL     1      24.945   2.374  51.775  1.00  0.00     0.112 C 
HETATM    3  C12 UNL     1      23.661   3.142  52.119  1.00  0.00     0.190 C 
HETATM    4  O2  UNL     1      22.635   2.241  52.480  1.00  0.00    -0.350 OA
HETATM    5  C13 UNL     1      22.670   1.029  53.112  1.00  0.00     0.075 A 
HETATM    6  C14 UNL     1      21.374   0.615  53.341  1.00  0.00     0.037 A 
HETATM    7  C15 UNL     1      21.186  -0.597  53.976  1.00  0.00     0.003 A 
HETATM    8  C16 UNL     1      22.302  -1.340  54.355  1.00  0.00     0.001 A 
HETATM    9  C17 UNL     1      23.579  -0.892  54.109  1.00  0.00     0.011 A 
HETATM   10  C18 UNL     1      23.799   0.333  53.466  1.00  0.00    -0.016 A 
HETATM   11  C19 UNL     1      25.245   0.534  53.349  1.00  0.00     0.055 C 
ENDROOT
BRANCH   2  12
HETATM   12  C5  UNL     1      25.786   3.151  50.839  1.00  0.00     0.229 C 
HETATM   13  O1  UNL     1      26.789   3.135  50.071  1.00  0.00    -0.273 OA
HETATM   14  N2  UNL     1      25.252   4.480  50.758  1.00  0.00    -0.327 N 
HETATM   15  H7  UNL     1      24.421   4.945  51.227  1.00  0.00     0.169 HD
BRANCH  14  16
HETATM   16  C6  UNL     1      25.668   5.621  50.016  1.00  0.00     0.034 A 
HETATM   17  C7  UNL     1      25.289   6.881  50.457  1.00  0.00     0.031 A 
HETATM   18  C8  UNL     1      25.654   8.038  49.791  1.00  0.00     0.021 A 
HETATM   19  C9  UNL     1      26.412   7.976  48.653  1.00  0.00     0.011 A 
HETATM   20 BR1  UNL     1      26.890   9.585  47.769  1.00  0.00    -0.051 Br
HETATM   21  C10 UNL     1      26.792   6.708  48.208  1.00  0.00     0.021 A 
HETATM   22  C11 UNL     1      26.432   5.552  48.870  1.00  0.00     0.031 A 
ENDBRANCH  14  16
ENDBRANCH   2  12
BRANCH   1  23
HETATM   23  C2  UNL     1      27.089   2.107  53.009  1.00  0.00     0.089 C 
HETATM   24  N1  UNL     1      27.755   2.019  54.086  1.00  0.00    -0.310 NA
HETATM   25  C1  UNL     1      29.167   2.107  54.208  1.00  0.00     0.176 C 
ENDBRANCH   1  23
BRANCH  11  26
HETATM   26  C20 UNL     1      25.905  -0.311  52.332  1.00  0.00     0.007 C 
HETATM   27  C21 UNL     1      26.919  -1.095  52.659  1.00  0.00     0.128 C 
BRANCH  27  28
HETATM   28  O3  UNL     1      27.468  -1.224  53.922  1.00  0.00    -0.373 OA
HETATM   29  H21 UNL     1      26.943  -1.383  54.753  1.00  0.00     0.216 HD
ENDBRANCH  27  28
ENDBRANCH  11  26
TORSDOF 5
ENDMDL
MODEL 2
REMARK VINA RESULT:      -8.7      3.927      7.384
REMARK  5 active torsions:
REMARK  status: ('A' for Active; 'I' for Inactive)
REMARK    1  A    between atoms: C2_3  and  C3_4 
REMARK    2  A    between atoms: C4_5  and  C5_6 
REMARK       I    between atoms: C5_6  and  N2_8 
REMARK    3  A    between atoms: N2_8  and  C6_9 
REMARK    4  A    between atoms: C19_24  and  C20_25 
REMARK    5  A    between atoms: C21_26  and  O3_27 
ROOT
HETATM    1  C3  UNL     1      24.185   2.432  52.603  1.00  0.00     0.053 C 
HETATM    2  C4  UNL     1      23.864   0.994  52.369  1.00  0.00     0.112 C 
HETATM    3  C12 UNL     1      23.855   0.280  53.727  1.00  0.00     0.190 C 
HETATM    4  O2  UNL     1      25.178  -0.002  54.138  1.00  0.00    -0.350 OA
HETATM    5  C13 UNL     1      26.354   0.666  53.938  1.00  0.00     0.075 A 
HETATM    6  C14 UNL     1      27.346   0.036  54.660  1.00  0.00     0.037 A 
HETATM    7  C15 UNL     1      28.622   0.558  54.596  1.00  0.00     0.003 A 
HETATM    8  C16 UNL     1      28.850   1.688  53.812  1.00  0.00     0.001 A 
HETATM    9  C17 UNL     1      27.834   2.288  53.107  1.00  0.00     0.011 A 
HETATM   10  C18 UNL     1      26.529   1.780  53.153  1.00  0.00    -0.016 A 
HETATM   11  C19 UNL     1      25.679   2.623  52.310  1.00  0.00     0.055 C 
ENDROOT
BRANCH   2  12
HETATM   12  C5  UNL     1      22.599   0.750  51.640  1.00  0.00     0.229 C 
HETATM   13  O1  UNL     1      22.022   0.737  50.517  1.00  0.00    -0.273 OA
HETATM   14  N2  UNL     1      21.601   0.367  52.597  1.00  0.00    -0.327 N 
HETATM   15  H7  UNL     1      21.632   0.244  53.651  1.00  0.00     0.169 HD
BRANCH  14  16
HETATM   16  C6  UNL     1      20.229   0.022  52.443  1.00  0.00     0.034 A 
HETATM   17  C7  UNL     1      19.643  -0.827  53.371  1.00  0.00     0.031 A 
HETATM   18  C8  UNL     1      18.315  -1.207  53.291  1.00  0.00     0.021 A 
HETATM   19  C9  UNL     1      17.521  -0.752  52.273  1.00  0.00     0.011 A 
HETATM   20 BR1  UNL     1      15.706  -1.298  52.197  1.00  0.00    -0.051 Br
HETATM   21  C10 UNL     1      18.111   0.102  51.338  1.00  0.00     0.021 A 
HETATM   22  C11 UNL     1      19.434   0.485  51.415  1.00  0.00     0.031 A 
ENDBRANCH  14  16
ENDBRANCH   2  12
BRANCH   1  23
HETATM   23  C2  UNL     1      23.414   3.361  51.748  1.00  0.00     0.089 C 
HETATM   24  N1  UNL     1      23.383   4.597  52.037  1.00  0.00    -0.310 NA
HETATM   25  C1  UNL     1      22.692   5.609  51.319  1.00  0.00     0.176 C 
ENDBRANCH   1  23
BRANCH  11  26
HETATM   26  C20 UNL     1      25.878   2.442  50.857  1.00  0.00     0.007 C 
HETATM   27  C21 UNL     1      26.121   3.480  50.074  1.00  0.00     0.128 C 
BRANCH  27  28
HETATM   28  O3  UNL     1      26.217   4.798  50.483  1.00  0.00    -0.373 OA
HETATM   29  H21 UNL     1      26.000   5.123  51.398  1.00  0.00     0.216 HD
ENDBRANCH  27  28
ENDBRANCH  11  26
TORSDOF 5
ENDMDL
MODEL 3
REMARK VINA RESULT:      -8.3      2.195      4.319
REMARK  5 active torsions:
REMARK  status: ('A' for Active; 'I' for Inactive)
REMARK    1  A    between atoms: C2_3  and  C3_4 
REMARK    2  A    between atoms: C4_5  and  C5_6 
REMARK       I    between atoms: C5_6  and  N2_8 
REMARK    3  A    between atoms: N2_8  and  C6_9 
REMARK    4  A    between atoms: C19_24  and  C20_25 
REMARK    5  A    between atoms: C21_26  and  O3_27 
ROOT
HETATM    1  C3  UNL     1      22.723   1.472  51.022  1.00  0.00     0.053 C 
HETATM    2  C4  UNL     1      23.535   2.379  51.885  1.00  0.00     0.112 C 
HETATM    3  C12 UNL     1      24.824   1.641  52.272  1.00  0.00     0.190 C 
HETATM    4  O2  UNL     1      24.570   0.737  53.328  1.00  0.00    -0.350 OA
HETATM    5  C13 UNL     1      23.464  -0.001  53.646  1.00  0.00     0.075 A 
HETATM    6  C14 UNL     1      23.777  -0.828  54.705  1.00  0.00     0.037 A 
HETATM    7  C15 UNL     1      22.789  -1.664  55.186  1.00  0.00     0.003 A 
HETATM    8  C16 UNL     1      21.532  -1.636  54.585  1.00  0.00     0.001 A 
HETATM    9  C17 UNL     1      21.259  -0.798  53.530  1.00  0.00     0.011 A 
HETATM   10  C18 UNL     1      22.242   0.061  53.023  1.00  0.00    -0.016 A 
HETATM   11  C19 UNL     1      21.658   0.820  51.915  1.00  0.00     0.055 C 
ENDROOT
BRANCH   2  12
HETATM   12  C5  UNL     1      23.844   3.696  51.286  1.00  0.00     0.229 C 
HETATM   13  O1  UNL     1      23.453   4.883  51.104  1.00  0.00    -0.273 OA
HETATM   14  N2  UNL     1      25.119   3.601  50.635  1.00  0.00    -0.327 N 
HETATM   15  H7  UNL     1      25.809   2.801  50.529  1.00  0.00     0.169 HD
BRANCH  14  16
HETATM   16  C6  UNL     1      25.884   4.558  49.911  1.00  0.00     0.034 A 
HETATM   17  C7  UNL     1      27.001   4.130  49.209  1.00  0.00     0.031 A 
HETATM   18  C8  UNL     1      27.795   5.000  48.481  1.00  0.00     0.021 A 
HETATM   19  C9  UNL     1      27.498   6.335  48.429  1.00  0.00     0.011 A 
HETATM   20 BR1  UNL     1      28.611   7.494  47.421  1.00  0.00    -0.051 Br
HETATM   21  C10 UNL     1      26.373   6.766  49.136  1.00  0.00     0.021 A 
HETATM   22  C11 UNL     1      25.579   5.903  49.863  1.00  0.00     0.031 A 
ENDBRANCH  14  16
ENDBRANCH   2  12
BRANCH   1  23
HETATM   23  C2  UNL     1      22.043   2.164  49.906  1.00  0.00     0.089 C 
HETATM   24  N1  UNL     1      22.363   1.885  48.709  1.00  0.00    -0.310 NA
HETATM   25  C1  UNL     1      21.806   2.460  47.536  1.00  0.00     0.176 C 
ENDBRANCH   1  23
BRANCH  11  26
HETATM   26  C20 UNL     1      20.707   1.875  52.322  1.00  0.00     0.007 C 
HETATM   27  C21 UNL     1      19.433   1.807  51.976  1.00  0.00     0.128 C 
BRANCH  27  28
HETATM   28  O3  UNL     1      18.850   0.799  51.229  1.00  0.00    -0.373 OA
HETATM   29  H21 UNL     1      17.914   0.479  51.345  1.00  0.00     0.216 HD
ENDBRANCH  27  28
ENDBRANCH  11  26
TORSDOF 5
ENDMDL
MODEL 4
REMARK VINA RESULT:      -8.3      2.255      4.523
REMARK  5 active torsions:
REMARK  status: ('A' for Active; 'I' for Inactive)
REMARK    1  A    between atoms: C2_3  and  C3_4 
REMARK    2  A    between atoms: C4_5  and  C5_6 
REMARK       I    between atoms: C5_6  and  N2_8 
REMARK    3  A    between atoms: N2_8  and  C6_9 
REMARK    4  A    between atoms: C19_24  and  C20_25 
REMARK    5  A    between atoms: C21_26  and  O3_27 
ROOT
HETATM    1  C3  UNL     1      24.136   2.925  50.012  1.00  0.00     0.053 C 
HETATM    2  C4  UNL     1      25.272   3.616  50.687  1.00  0.00     0.112 C 
HETATM    3  C12 UNL     1      26.492   2.685  50.642  1.00  0.00     0.190 C 
HETATM    4  O2  UNL     1      26.390   1.699  51.650  1.00  0.00    -0.350 OA
HETATM    5  C13 UNL     1      25.308   1.070  52.200  1.00  0.00     0.075 A 
HETATM    6  C14 UNL     1      25.759   0.091  53.061  1.00  0.00     0.037 A 
HETATM    7  C15 UNL     1      24.818  -0.668  53.727  1.00  0.00     0.003 A 
HETATM    8  C16 UNL     1      23.466  -0.416  53.500  1.00  0.00     0.001 A 
HETATM    9  C17 UNL     1      23.056   0.570  52.634  1.00  0.00     0.011 A 
HETATM   10  C18 UNL     1      23.989   1.356  51.946  1.00  0.00    -0.016 A 
HETATM   11  C19 UNL     1      23.256   2.307  51.107  1.00  0.00     0.055 C 
ENDROOT
BRANCH   2  12
HETATM   12  C5  UNL     1      25.608   4.946  50.135  1.00  0.00     0.229 C 
HETATM   13  O1  UNL     1      25.298   6.170  50.087  1.00  0.00    -0.273 OA
HETATM   14  N2  UNL     1      26.769   4.804  49.305  1.00  0.00    -0.327 N 
HETATM   15  H7  UNL     1      27.367   3.965  49.051  1.00  0.00     0.169 HD
BRANCH  14  16
HETATM   16  C6  UNL     1      27.506   5.753  48.541  1.00  0.00     0.034 A 
HETATM   17  C7  UNL     1      28.857   5.529  48.320  1.00  0.00     0.031 A 
HETATM   18  C8  UNL     1      29.642   6.403  47.588  1.00  0.00     0.021 A 
HETATM   19  C9  UNL     1      29.100   7.539  47.049  1.00  0.00     0.011 A 
HETATM   20 BR1  UNL     1      30.208   8.713  46.053  1.00  0.00    -0.051 Br
HETATM   21  C10 UNL     1      27.740   7.765  47.272  1.00  0.00     0.021 A 
HETATM   22  C11 UNL     1      26.954   6.895  48.001  1.00  0.00     0.031 A 
ENDBRANCH  14  16
ENDBRANCH   2  12
BRANCH   1  23
HETATM   23  C2  UNL     1      23.299   3.823  49.186  1.00  0.00     0.089 C 
HETATM   24  N1  UNL     1      22.642   3.344  48.210  1.00  0.00    -0.310 NA
HETATM   25  C1  UNL     1      21.799   4.073  47.329  1.00  0.00     0.176 C 
ENDBRANCH   1  23
BRANCH  11  26
HETATM   26  C20 UNL     1      22.615   3.414  51.846  1.00  0.00     0.007 C 
HETATM   27  C21 UNL     1      21.298   3.509  51.913  1.00  0.00     0.128 C 
BRANCH  27  28
HETATM   28  O3  UNL     1      20.393   2.636  51.336  1.00  0.00    -0.373 OA
HETATM   29  H21 UNL     1      20.432   1.644  51.420  1.00  0.00     0.216 HD
ENDBRANCH  27  28
ENDBRANCH  11  26
TORSDOF 5
ENDMDL
MODEL 5
REMARK VINA RESULT:      -8.2      2.041      4.230
REMARK  5 active torsions:
REMARK  status: ('A' for Active; 'I' for Inactive)
REMARK    1  A    between atoms: C2_3  and  C3_4 
REMARK    2  A    between atoms: C4_5  and  C5_6 
REMARK       I    between atoms: C5_6  and  N2_8 
REMARK    3  A    between atoms: N2_8  and  C6_9 
REMARK    4  A    between atoms: C19_24  and  C20_25 
REMARK    5  A    between atoms: C21_26  and  O3_27 
ROOT
HETATM    1  C3  UNL     1      24.295   2.287  50.519  1.00  0.00     0.053 C 
HETATM    2  C4  UNL     1      25.092   3.444  51.022  1.00  0.00     0.112 C 
HETATM    3  C12 UNL     1      26.561   3.214  50.638  1.00  0.00     0.190 C 
HETATM    4  O2  UNL     1      27.164   2.307  51.538  1.00  0.00    -0.350 OA
HETATM    5  C13 UNL     1      26.660   1.238  52.226  1.00  0.00     0.075 A 
HETATM    6  C14 UNL     1      27.698   0.602  52.873  1.00  0.00     0.037 A 
HETATM    7  C15 UNL     1      27.401  -0.513  53.632  1.00  0.00     0.003 A 
HETATM    8  C16 UNL     1      26.078  -0.943  53.707  1.00  0.00     0.001 A 
HETATM    9  C17 UNL     1      25.070  -0.282  53.047  1.00  0.00     0.011 A 
HETATM   10  C18 UNL     1      25.342   0.852  52.271  1.00  0.00    -0.016 A 
HETATM   11  C19 UNL     1      24.081   1.329  51.699  1.00  0.00     0.055 C 
ENDROOT
BRANCH   2  12
HETATM   12  C5  UNL     1      24.629   4.769  50.554  1.00  0.00     0.229 C 
HETATM   13  O1  UNL     1      23.636   5.527  50.369  1.00  0.00    -0.273 OA
HETATM   14  N2  UNL     1      25.777   5.518  50.131  1.00  0.00    -0.327 N 
HETATM   15  H7  UNL     1      26.813   5.285  50.106  1.00  0.00     0.169 HD
BRANCH  14  16
HETATM   16  C6  UNL     1      25.904   6.833  49.601  1.00  0.00     0.034 A 
HETATM   17  C7  UNL     1      25.933   7.000  48.224  1.00  0.00     0.031 A 
HETATM   18  C8  UNL     1      26.053   8.245  47.633  1.00  0.00     0.021 A 
HETATM   19  C9  UNL     1      26.151   9.374  48.402  1.00  0.00     0.011 A 
HETATM   20 BR1  UNL     1      26.315  11.062  47.553  1.00  0.00    -0.051 Br
HETATM   21  C10 UNL     1      26.123   9.206  49.788  1.00  0.00     0.021 A 
HETATM   22  C11 UNL     1      26.002   7.966  50.381  1.00  0.00     0.031 A 
ENDBRANCH  14  16
ENDBRANCH   2  12
BRANCH   1  23
HETATM   23  C2  UNL     1      22.973   2.667  49.975  1.00  0.00     0.089 C 
HETATM   24  N1  UNL     1      22.284   1.806  49.346  1.00  0.00    -0.310 NA
HETATM   25  C1  UNL     1      21.005   2.015  48.768  1.00  0.00     0.176 C 
ENDBRANCH   1  23
BRANCH  11  26
HETATM   26  C20 UNL     1      23.180   1.996  52.661  1.00  0.00     0.007 C 
HETATM   27  C21 UNL     1      21.952   1.547  52.860  1.00  0.00     0.128 C 
BRANCH  27  28
HETATM   28  O3  UNL     1      21.377   0.456  52.233  1.00  0.00    -0.373 OA
HETATM   29  H21 UNL     1      21.732  -0.474  52.277  1.00  0.00     0.216 HD
ENDBRANCH  27  28
ENDBRANCH  11  26
TORSDOF 5
ENDMDL
MODEL 6
REMARK VINA RESULT:      -7.9      3.882      7.193
REMARK  5 active torsions:
REMARK  status: ('A' for Active; 'I' for Inactive)
REMARK    1  A    between atoms: C2_3  and  C3_4 
REMARK    2  A    between atoms: C4_5  and  C5_6 
REMARK       I    between atoms: C5_6  and  N2_8 
REMARK    3  A    between atoms: N2_8  and  C6_9 
REMARK    4  A    between atoms: C19_24  and  C20_25 
REMARK    5  A    between atoms: C21_26  and  O3_27 
ROOT
HETATM    1  C3  UNL     1      22.360   3.805  50.919  1.00  0.00     0.053 C 
HETATM    2  C4  UNL     1      23.841   3.977  50.956  1.00  0.00     0.112 C 
HETATM    3  C12 UNL     1      24.145   5.480  51.021  1.00  0.00     0.190 C 
HETATM    4  O2  UNL     1      24.032   6.056  49.736  1.00  0.00    -0.350 OA
HETATM    5  C13 UNL     1      23.221   5.762  48.676  1.00  0.00     0.075 A 
HETATM    6  C14 UNL     1      23.417   6.711  47.694  1.00  0.00     0.037 A 
HETATM    7  C15 UNL     1      22.687   6.596  46.528  1.00  0.00     0.003 A 
HETATM    8  C16 UNL     1      21.791   5.536  46.396  1.00  0.00     0.001 A 
HETATM    9  C17 UNL     1      21.624   4.609  47.398  1.00  0.00     0.011 A 
HETATM   10  C18 UNL     1      22.352   4.702  48.591  1.00  0.00    -0.016 A 
HETATM   11  C19 UNL     1      21.959   3.585  49.454  1.00  0.00     0.055 C 
ENDROOT
BRANCH   2  12
HETATM   12  C5  UNL     1      24.524   3.256  52.053  1.00  0.00     0.229 C 
HETATM   13  O1  UNL     1      24.528   2.985  53.286  1.00  0.00    -0.273 OA
HETATM   14  N2  UNL     1      25.658   2.575  51.499  1.00  0.00    -0.327 N 
HETATM   15  H7  UNL     1      26.045   2.516  50.512  1.00  0.00     0.169 HD
BRANCH  14  16
HETATM   16  C6  UNL     1      26.647   1.745  52.099  1.00  0.00     0.034 A 
HETATM   17  C7  UNL     1      26.489   0.368  52.043  1.00  0.00     0.031 A 
HETATM   18  C8  UNL     1      27.406  -0.505  52.602  1.00  0.00     0.021 A 
HETATM   19  C9  UNL     1      28.520  -0.029  53.240  1.00  0.00     0.011 A 
HETATM   20 BR1  UNL     1      29.753  -1.258  53.994  1.00  0.00    -0.051 Br
HETATM   21  C10 UNL     1      28.679   1.357  53.297  1.00  0.00     0.021 A 
HETATM   22  C11 UNL     1      27.767   2.231  52.740  1.00  0.00     0.031 A 
ENDBRANCH  14  16
ENDBRANCH   2  12
BRANCH   1  23
HETATM   23  C2  UNL     1      21.874   2.658  51.717  1.00  0.00     0.089 C 
HETATM   24  N1  UNL     1      20.625   2.489  51.874  1.00  0.00    -0.310 NA
HETATM   25  C1  UNL     1      20.006   1.444  52.609  1.00  0.00     0.176 C 
ENDBRANCH   1  23
BRANCH  11  26
HETATM   26  C20 UNL     1      22.485   2.269  49.037  1.00  0.00     0.007 C 
HETATM   27  C21 UNL     1      21.664   1.274  48.747  1.00  0.00     0.128 C 
BRANCH  27  28
HETATM   28  O3  UNL     1      20.282   1.325  48.791  1.00  0.00    -0.373 OA
HETATM   29  H21 UNL     1      19.702   1.594  48.027  1.00  0.00     0.216 HD
ENDBRANCH  27  28
ENDBRANCH  11  26
TORSDOF 5
ENDMDL
MODEL 7
REMARK VINA RESULT:      -7.8      2.625      5.196
REMARK  5 active torsions:
REMARK  status: ('A' for Active; 'I' for Inactive)
REMARK    1  A    between atoms: C2_3  and  C3_4 
REMARK    2  A    between atoms: C4_5  and  C5_6 
REMARK       I    between atoms: C5_6  and  N2_8 
REMARK    3  A    between atoms: N2_8  and  C6_9 
REMARK    4  A    between atoms: C19_24  and  C20_25 
REMARK    5  A    between atoms: C21_26  and  O3_27 
ROOT
HETATM    1  C3  UNL     1      24.329   4.045  49.344  1.00  0.00     0.053 C 
HETATM    2  C4  UNL     1      25.576   4.781  49.702  1.00  0.00     0.112 C 
HETATM    3  C12 UNL     1      26.774   3.877  49.378  1.00  0.00     0.190 C 
HETATM    4  O2  UNL     1      26.952   2.919  50.402  1.00  0.00    -0.350 OA
HETATM    5  C13 UNL     1      26.058   2.283  51.217  1.00  0.00     0.075 A 
HETATM    6  C14 UNL     1      26.735   1.340  51.962  1.00  0.00     0.037 A 
HETATM    7  C15 UNL     1      26.009   0.580  52.857  1.00  0.00     0.003 A 
HETATM    8  C16 UNL     1      24.637   0.795  52.966  1.00  0.00     0.001 A 
HETATM    9  C17 UNL     1      23.997   1.745  52.205  1.00  0.00     0.011 A 
HETATM   10  C18 UNL     1      24.709   2.531  51.290  1.00  0.00    -0.016 A 
HETATM   11  C19 UNL     1      23.765   3.440  50.637  1.00  0.00     0.055 C 
ENDROOT
BRANCH   2  12
HETATM   12  C5  UNL     1      25.727   6.102  49.053  1.00  0.00     0.229 C 
HETATM   13  O1  UNL     1      25.171   6.998  48.356  1.00  0.00    -0.273 OA
HETATM   14  N2  UNL     1      27.054   6.580  49.317  1.00  0.00    -0.327 N 
HETATM   15  H7  UNL     1      27.867   6.165  49.858  1.00  0.00     0.169 HD
BRANCH  14  16
HETATM   16  C6  UNL     1      27.719   7.779  48.937  1.00  0.00     0.034 A 
HETATM   17  C7  UNL     1      28.460   7.789  47.763  1.00  0.00     0.031 A 
HETATM   18  C8  UNL     1      29.135   8.916  47.325  1.00  0.00     0.021 A 
HETATM   19  C9  UNL     1      29.094  10.077  48.049  1.00  0.00     0.011 A 
HETATM   20 BR1  UNL     1      30.033  11.598  47.415  1.00  0.00    -0.051 Br
HETATM   21  C10 UNL     1      28.349  10.066  49.231  1.00  0.00     0.021 A 
HETATM   22  C11 UNL     1      27.674   8.946  49.670  1.00  0.00     0.031 A 
ENDBRANCH  14  16
ENDBRANCH   2  12
BRANCH   1  23
HETATM   23  C2  UNL     1      23.289   4.900  48.730  1.00  0.00     0.089 C 
HETATM   24  N1  UNL     1      22.492   4.400  47.877  1.00  0.00    -0.310 NA
HETATM   25  C1  UNL     1      21.447   5.087  47.203  1.00  0.00     0.176 C 
ENDBRANCH   1  23
BRANCH  11  26
HETATM   26  C20 UNL     1      23.294   4.555  51.485  1.00  0.00     0.007 C 
HETATM   27  C21 UNL     1      22.036   4.612  51.888  1.00  0.00     0.128 C 
BRANCH  27  28
HETATM   28  O3  UNL     1      21.047   3.692  51.590  1.00  0.00    -0.373 OA
HETATM   29  H21 UNL     1      20.071   3.855  51.701  1.00  0.00     0.216 HD
ENDBRANCH  27  28
ENDBRANCH  11  26
TORSDOF 5
ENDMDL
MODEL 8
REMARK VINA RESULT:      -7.7      5.896      9.508
REMARK  5 active torsions:
REMARK  status: ('A' for Active; 'I' for Inactive)
REMARK    1  A    between atoms: C2_3  and  C3_4 
REMARK    2  A    between atoms: C4_5  and  C5_6 
REMARK       I    between atoms: C5_6  and  N2_8 
REMARK    3  A    between atoms: N2_8  and  C6_9 
REMARK    4  A    between atoms: C19_24  and  C20_25 
REMARK    5  A    between atoms: C21_26  and  O3_27 
ROOT
HETATM    1  C3  UNL     1      20.200   1.496  52.207  1.00  0.00     0.053 C 
HETATM    2  C4  UNL     1      19.786   0.065  52.136  1.00  0.00     0.112 C 
HETATM    3  C12 UNL     1      19.860  -0.524  53.551  1.00  0.00     0.190 C 
HETATM    4  O2  UNL     1      21.197  -0.845  53.877  1.00  0.00    -0.350 OA
HETATM    5  C13 UNL     1      22.384  -0.268  53.520  1.00  0.00     0.075 A 
HETATM    6  C14 UNL     1      23.401  -0.888  54.214  1.00  0.00     0.037 A 
HETATM    7  C15 UNL     1      24.693  -0.451  53.996  1.00  0.00     0.003 A 
HETATM    8  C16 UNL     1      24.908   0.590  53.094  1.00  0.00     0.001 A 
HETATM    9  C17 UNL     1      23.866   1.183  52.421  1.00  0.00     0.011 A 
HETATM   10  C18 UNL     1      22.547   0.759  52.622  1.00  0.00    -0.016 A 
HETATM   11  C19 UNL     1      21.671   1.572  51.776  1.00  0.00     0.055 C 
ENDROOT
BRANCH   2  12
HETATM   12  C5  UNL     1      18.453  -0.168  51.540  1.00  0.00     0.229 C 
HETATM   13  O1  UNL     1      17.762  -0.164  50.482  1.00  0.00    -0.273 OA
HETATM   14  N2  UNL     1      17.559  -0.567  52.589  1.00  0.00    -0.327 N 
HETATM   15  H7  UNL     1      17.699  -0.707  53.632  1.00  0.00     0.169 HD
BRANCH  14  16
HETATM   16  C6  UNL     1      16.178  -0.910  52.574  1.00  0.00     0.034 A 
HETATM   17  C7  UNL     1      15.240   0.079  52.836  1.00  0.00     0.031 A 
HETATM   18  C8  UNL     1      13.879  -0.175  52.839  1.00  0.00     0.021 A 
HETATM   19  C9  UNL     1      13.406  -1.434  52.580  1.00  0.00     0.011 A 
HETATM   20 BR1  UNL     1      11.534  -1.740  52.595  1.00  0.00    -0.051 Br
HETATM   21  C10 UNL     1      14.350  -2.428  52.317  1.00  0.00     0.021 A 
HETATM   22  C11 UNL     1      15.707  -2.180  52.312  1.00  0.00     0.031 A 
ENDBRANCH  14  16
ENDBRANCH   2  12
BRANCH   1  23
HETATM   23  C2  UNL     1      19.406   2.390  51.335  1.00  0.00     0.089 C 
HETATM   24  N1  UNL     1      18.624   3.242  51.858  1.00  0.00    -0.310 NA
HETATM   25  C1  UNL     1      17.800   4.164  51.159  1.00  0.00     0.176 C 
ENDBRANCH   1  23
BRANCH  11  26
HETATM   26  C20 UNL     1      21.733   1.252  50.335  1.00  0.00     0.007 C 
HETATM   27  C21 UNL     1      22.274   2.099  49.477  1.00  0.00     0.128 C 
BRANCH  27  28
HETATM   28  O3  UNL     1      22.824   3.329  49.791  1.00  0.00    -0.373 OA
HETATM   29  H21 UNL     1      23.465   3.488  50.536  1.00  0.00     0.216 HD
ENDBRANCH  27  28
ENDBRANCH  11  26
TORSDOF 5
ENDMDL
MODEL 9
REMARK VINA RESULT:      -7.7      5.753     10.457
REMARK  5 active torsions:
REMARK  status: ('A' for Active; 'I' for Inactive)
REMARK    1  A    between atoms: C2_3  and  C3_4 
REMARK    2  A    between atoms: C4_5  and  C5_6 
REMARK       I    between atoms: C5_6  and  N2_8 
REMARK    3  A    between atoms: N2_8  and  C6_9 
REMARK    4  A    between atoms: C19_24  and  C20_25 
REMARK    5  A    between atoms: C21_26  and  O3_27 
ROOT
HETATM    1  C3  UNL     1      30.843   8.296  48.799  1.00  0.00     0.053 C 
HETATM    2  C4  UNL     1      30.527   6.980  48.171  1.00  0.00     0.112 C 
HETATM    3  C12 UNL     1      30.984   5.872  49.129  1.00  0.00     0.190 C 
HETATM    4  O2  UNL     1      32.380   5.677  49.019  1.00  0.00    -0.350 OA
HETATM    5  C13 UNL     1      33.400   6.545  48.745  1.00  0.00     0.075 A 
HETATM    6  C14 UNL     1      34.597   5.875  48.882  1.00  0.00     0.037 A 
HETATM    7  C15 UNL     1      35.762   6.577  48.647  1.00  0.00     0.003 A 
HETATM    8  C16 UNL     1      35.677   7.921  48.286  1.00  0.00     0.001 A 
HETATM    9  C17 UNL     1      34.464   8.554  48.159  1.00  0.00     0.011 A 
HETATM   10  C18 UNL     1      33.266   7.866  48.391  1.00  0.00    -0.016 A 
HETATM   11  C19 UNL     1      32.155   8.797  48.181  1.00  0.00     0.055 C 
ENDROOT
BRANCH   2  12
HETATM   12  C5  UNL     1      29.108   6.795  47.795  1.00  0.00     0.229 C 
HETATM   13  O1  UNL     1      28.202   7.066  46.958  1.00  0.00    -0.273 OA
HETATM   14  N2  UNL     1      28.490   5.961  48.785  1.00  0.00    -0.327 N 
HETATM   15  H7  UNL     1      28.863   5.500  49.665  1.00  0.00     0.169 HD
BRANCH  14  16
HETATM   16  C6  UNL     1      27.158   5.474  48.912  1.00  0.00     0.034 A 
HETATM   17  C7  UNL     1      26.962   4.137  49.226  1.00  0.00     0.031 A 
HETATM   18  C8  UNL     1      25.699   3.589  49.367  1.00  0.00     0.021 A 
HETATM   19  C9  UNL     1      24.581   4.362  49.197  1.00  0.00     0.011 A 
HETATM   20 BR1  UNL     1      22.869   3.572  49.398  1.00  0.00    -0.051 Br
HETATM   21  C10 UNL     1      24.780   5.708  48.881  1.00  0.00     0.021 A 
HETATM   22  C11 UNL     1      26.037   6.258  48.740  1.00  0.00     0.031 A 
ENDBRANCH  14  16
ENDBRANCH   2  12
BRANCH   1  23
HETATM   23  C2  UNL     1      29.800   9.323  48.586  1.00  0.00     0.089 C 
HETATM   24  N1  UNL     1      29.963  10.489  49.062  1.00  0.00    -0.310 NA
HETATM   25  C1  UNL     1      29.058  11.577  48.944  1.00  0.00     0.176 C 
ENDBRANCH   1  23
BRANCH  11  26
HETATM   26  C20 UNL     1      31.888   9.129  46.767  1.00  0.00     0.007 C 
HETATM   27  C21 UNL     1      32.021  10.368  46.326  1.00  0.00     0.128 C 
BRANCH  27  28
HETATM   28  O3  UNL     1      32.407  11.460  47.083  1.00  0.00    -0.373 OA
HETATM   29  H21 UNL     1      32.461  11.467  48.078  1.00  0.00     0.216 HD
ENDBRANCH  27  28
ENDBRANCH  11  26
TORSDOF 5
ENDMDL
