MODEL 1
REMARK VINA RESULT:      -9.5      0.000      0.000
REMARK  0 active torsions:
REMARK  status: ('A' for Active; 'I' for Inactive)
ROOT
HETATM    1  C1  UNL     1      22.254   3.453  51.549  1.00  0.00     0.151 C 
HETATM    2  N1  UNL     1      21.822   2.108  51.798  1.00  0.00    -0.367 N 
HETATM    3  C2  UNL     1      20.483   1.935  51.289  1.00  0.00     0.106 C 
HETATM    4  C3  UNL     1      19.522   1.012  51.339  1.00  0.00     0.026 C 
HETATM    5 BR1  UNL     1      18.215   1.078  49.956  1.00  0.00    -0.050 Br
HETATM    6  C4  UNL     1      19.246  -0.096  52.280  1.00  0.00     0.023 C 
HETATM    7  C5  UNL     1      19.842  -0.524  53.382  1.00  0.00     0.033 C 
HETATM    8  C6  UNL     1      21.106  -0.159  54.014  1.00  0.00     0.058 C 
HETATM    9  C7  UNL     1      22.021   0.788  53.746  1.00  0.00     0.052 C 
HETATM   10  C8  UNL     1      22.704   1.164  52.472  1.00  0.00     0.233 C 
HETATM   11  N2  UNL     1      23.973   1.708  52.653  1.00  0.00    -0.268 NA
HETATM   12  C9  UNL     1      25.074   1.099  52.836  1.00  0.00     0.023 C 
HETATM   13  C10 UNL     1      25.883   2.393  52.929  1.00  0.00     0.090 C 
HETATM   14  C11 UNL     1      27.335   2.020  53.120  1.00  0.00    -0.059 C 
HETATM   15  C12 UNL     1      28.385   2.252  53.900  1.00  0.00    -0.023 C 
HETATM   16  C13 UNL     1      28.787   1.143  54.546  1.00  0.00     0.013 C 
HETATM   17  C14 UNL     1      28.303  -0.219  54.163  1.00  0.00     0.004 C 
HETATM   18  C15 UNL     1      27.482  -0.220  53.088  1.00  0.00    -0.075 C 
HETATM   19  C16 UNL     1      27.821   0.942  52.140  1.00  0.00     0.069 C 
HETATM   20  C17 UNL     1      26.344  -1.103  52.815  1.00  0.00     0.050 C 
HETATM   21  C18 UNL     1      25.020  -0.381  52.862  1.00  0.00     0.078 C 
HETATM   22  C19 UNL     1      24.382  -0.779  54.146  1.00  0.00     0.101 C 
HETATM   23  N3  UNL     1      23.202  -1.239  54.082  1.00  0.00    -0.257 NA
HETATM   24  C20 UNL     1      22.506  -1.648  55.251  1.00  0.00     0.232 C 
HETATM   25  N4  UNL     1      21.371  -1.006  55.125  1.00  0.00    -0.242 NA
ENDROOT
TORSDOF 0
ENDMDL
MODEL 2
REMARK VINA RESULT:      -9.0      1.951      4.223
REMARK  0 active torsions:
REMARK  status: ('A' for Active; 'I' for Inactive)
ROOT
HETATM    1  C1  UNL     1      22.320  -0.341  52.329  1.00  0.00     0.151 C 
HETATM    2  N1  UNL     1      22.586   1.026  51.992  1.00  0.00    -0.367 N 
HETATM    3  C2  UNL     1      21.338   1.714  51.764  1.00  0.00     0.106 C 
HETATM    4  C3  UNL     1      20.935   2.898  51.300  1.00  0.00     0.026 C 
HETATM    5 BR1  UNL     1      19.194   3.462  51.824  1.00  0.00    -0.050 Br
HETATM    6  C4  UNL     1      21.582   3.904  50.429  1.00  0.00     0.023 C 
HETATM    7  C5  UNL     1      22.753   3.957  49.814  1.00  0.00     0.033 C 
HETATM    8  C6  UNL     1      23.934   3.101  49.884  1.00  0.00     0.058 C 
HETATM    9  C7  UNL     1      24.183   1.939  50.510  1.00  0.00     0.052 C 
HETATM   10  C8  UNL     1      23.957   1.514  51.925  1.00  0.00     0.233 C 
HETATM   11  N2  UNL     1      24.854   0.548  52.372  1.00  0.00    -0.268 NA
HETATM   12  C9  UNL     1      26.035   0.711  52.814  1.00  0.00     0.023 C 
HETATM   13  C10 UNL     1      26.253  -0.783  53.052  1.00  0.00     0.090 C 
HETATM   14  C11 UNL     1      27.630  -0.962  53.649  1.00  0.00    -0.059 C 
HETATM   15  C12 UNL     1      28.763  -1.638  53.492  1.00  0.00    -0.023 C 
HETATM   16  C13 UNL     1      29.801  -0.828  53.218  1.00  0.00     0.013 C 
HETATM   17  C14 UNL     1      29.720   0.655  53.399  1.00  0.00     0.004 C 
HETATM   18  C15 UNL     1      28.539   1.076  53.908  1.00  0.00    -0.075 C 
HETATM   19  C16 UNL     1      27.919  -0.003  54.813  1.00  0.00     0.069 C 
HETATM   20  C17 UNL     1      27.823   2.323  53.630  1.00  0.00     0.050 C 
HETATM   21  C18 UNL     1      26.539   2.103  52.868  1.00  0.00     0.078 C 
HETATM   22  C19 UNL     1      26.813   2.531  51.471  1.00  0.00     0.101 C 
HETATM   23  N3  UNL     1      26.015   3.373  50.961  1.00  0.00    -0.257 NA
HETATM   24  C20 UNL     1      26.190   3.846  49.633  1.00  0.00     0.232 C 
HETATM   25  N4  UNL     1      24.998   3.657  49.122  1.00  0.00    -0.242 NA
ENDROOT
TORSDOF 0
ENDMDL
MODEL 3
REMARK VINA RESULT:      -8.5      3.570      6.029
REMARK  0 active torsions:
REMARK  status: ('A' for Active; 'I' for Inactive)
ROOT
HETATM    1  C1  UNL     1      25.639   1.126  52.029  1.00  0.00     0.151 C 
HETATM    2  N1  UNL     1      24.215   1.290  52.013  1.00  0.00    -0.367 N 
HETATM    3  C2  UNL     1      23.609   0.288  52.856  1.00  0.00     0.106 C 
HETATM    4  C3  UNL     1      22.382  -0.159  53.130  1.00  0.00     0.026 C 
HETATM    5 BR1  UNL     1      22.166  -1.069  54.788  1.00  0.00    -0.050 Br
HETATM    6  C4  UNL     1      21.105  -0.094  52.386  1.00  0.00     0.023 C 
HETATM    7  C5  UNL     1      20.760   0.407  51.210  1.00  0.00     0.033 C 
HETATM    8  C6  UNL     1      21.484   1.235  50.251  1.00  0.00     0.058 C 
HETATM    9  C7  UNL     1      22.754   1.672  50.197  1.00  0.00     0.052 C 
HETATM   10  C8  UNL     1      23.605   2.350  51.221  1.00  0.00     0.233 C 
HETATM   11  N2  UNL     1      24.575   3.190  50.679  1.00  0.00    -0.268 NA
HETATM   12  C9  UNL     1      24.445   4.388  50.276  1.00  0.00     0.023 C 
HETATM   13  C10 UNL     1      25.914   4.511  49.872  1.00  0.00     0.090 C 
HETATM   14  C11 UNL     1      26.137   5.913  49.353  1.00  0.00    -0.059 C 
HETATM   15  C12 UNL     1      26.627   6.583  48.315  1.00  0.00    -0.023 C 
HETATM   16  C13 UNL     1      25.680   7.300  47.685  1.00  0.00     0.013 C 
HETATM   17  C14 UNL     1      24.336   7.548  48.292  1.00  0.00     0.004 C 
HETATM   18  C15 UNL     1      24.199   7.033  49.537  1.00  0.00    -0.075 C 
HETATM   19  C16 UNL     1      25.553   7.002  50.265  1.00  0.00     0.069 C 
HETATM   20  C17 UNL     1      22.997   6.475  50.162  1.00  0.00     0.050 C 
HETATM   21  C18 UNL     1      23.094   4.987  50.390  1.00  0.00     0.078 C 
HETATM   22  C19 UNL     1      22.240   4.356  49.348  1.00  0.00     0.101 C 
HETATM   23  N3  UNL     1      21.360   3.536  49.746  1.00  0.00    -0.257 NA
HETATM   24  C20 UNL     1      20.493   2.881  48.831  1.00  0.00     0.232 C 
HETATM   25  N4  UNL     1      20.628   1.626  49.185  1.00  0.00    -0.242 NA
ENDROOT
TORSDOF 0
ENDMDL
MODEL 4
REMARK VINA RESULT:      -8.3      2.120      4.404
REMARK  0 active torsions:
REMARK  status: ('A' for Active; 'I' for Inactive)
ROOT
HETATM    1  C1  UNL     1      19.360  -0.158  52.779  1.00  0.00     0.151 C 
HETATM    2  N1  UNL     1      19.426   0.966  51.891  1.00  0.00    -0.367 N 
HETATM    3  C2  UNL     1      18.096   1.484  51.678  1.00  0.00     0.106 C 
HETATM    4  C3  UNL     1      17.503   2.378  50.886  1.00  0.00     0.026 C 
HETATM    5 BR1  UNL     1      15.840   3.076  51.497  1.00  0.00    -0.050 Br
HETATM    6  C4  UNL     1      17.879   2.964  49.580  1.00  0.00     0.023 C 
HETATM    7  C5  UNL     1      18.907   2.786  48.765  1.00  0.00     0.033 C 
HETATM    8  C6  UNL     1      20.158   2.050  48.916  1.00  0.00     0.058 C 
HETATM    9  C7  UNL     1      20.629   1.238  49.877  1.00  0.00     0.052 C 
HETATM   10  C8  UNL     1      20.708   1.409  51.359  1.00  0.00     0.233 C 
HETATM   11  N2  UNL     1      21.761   0.717  51.951  1.00  0.00    -0.268 NA
HETATM   12  C9  UNL     1      22.981   1.062  52.041  1.00  0.00     0.023 C 
HETATM   13  C10 UNL     1      23.383  -0.209  52.789  1.00  0.00     0.090 C 
HETATM   14  C11 UNL     1      24.857  -0.112  53.110  1.00  0.00    -0.059 C 
HETATM   15  C12 UNL     1      26.003  -0.776  52.998  1.00  0.00    -0.023 C 
HETATM   16  C13 UNL     1      26.889  -0.125  52.223  1.00  0.00     0.013 C 
HETATM   17  C14 UNL     1      26.699   1.305  51.829  1.00  0.00     0.004 C 
HETATM   18  C15 UNL     1      25.595   1.875  52.367  1.00  0.00    -0.075 C 
HETATM   19  C16 UNL     1      25.259   1.236  53.725  1.00  0.00     0.069 C 
HETATM   20  C17 UNL     1      24.722   2.896  51.781  1.00  0.00     0.050 C 
HETATM   21  C18 UNL     1      23.349   2.368  51.447  1.00  0.00     0.078 C 
HETATM   22  C19 UNL     1      23.320   2.208  49.969  1.00  0.00     0.101 C 
HETATM   23  N3  UNL     1      22.364   2.764  49.349  1.00  0.00    -0.257 NA
HETATM   24  C20 UNL     1      22.247   2.670  47.936  1.00  0.00     0.232 C 
HETATM   25  N4  UNL     1      21.006   2.273  47.797  1.00  0.00    -0.242 NA
ENDROOT
TORSDOF 0
ENDMDL
MODEL 5
REMARK VINA RESULT:      -8.2      2.561      4.131
REMARK  0 active torsions:
REMARK  status: ('A' for Active; 'I' for Inactive)
ROOT
HETATM    1  C1  UNL     1      25.469   4.745  49.426  1.00  0.00     0.151 C 
HETATM    2  N1  UNL     1      24.104   4.308  49.432  1.00  0.00    -0.367 N 
HETATM    3  C2  UNL     1      23.398   4.930  48.338  1.00  0.00     0.106 C 
HETATM    4  C3  UNL     1      22.138   5.040  47.914  1.00  0.00     0.026 C 
HETATM    5 BR1  UNL     1      21.900   5.454  46.071  1.00  0.00    -0.050 Br
HETATM    6  C4  UNL     1      20.835   4.905  48.602  1.00  0.00     0.023 C 
HETATM    7  C5  UNL     1      20.489   4.649  49.855  1.00  0.00     0.033 C 
HETATM    8  C6  UNL     1      21.269   4.244  51.020  1.00  0.00     0.058 C 
HETATM    9  C7  UNL     1      22.588   4.097  51.230  1.00  0.00     0.052 C 
HETATM   10  C8  UNL     1      23.635   3.374  50.447  1.00  0.00     0.233 C 
HETATM   11  N2  UNL     1      24.693   2.905  51.222  1.00  0.00    -0.268 NA
HETATM   12  C9  UNL     1      24.753   1.841  51.915  1.00  0.00     0.023 C 
HETATM   13  C10 UNL     1      26.179   2.118  52.389  1.00  0.00     0.090 C 
HETATM   14  C11 UNL     1      26.612   0.961  53.259  1.00  0.00    -0.059 C 
HETATM   15  C12 UNL     1      27.126   0.678  54.451  1.00  0.00    -0.023 C 
HETATM   16  C13 UNL     1      26.277  -0.038  55.210  1.00  0.00     0.013 C 
HETATM   17  C14 UNL     1      25.060  -0.691  54.638  1.00  0.00     0.004 C 
HETATM   18  C15 UNL     1      24.938  -0.536  53.300  1.00  0.00    -0.075 C 
HETATM   19  C16 UNL     1      26.320  -0.412  52.637  1.00  0.00     0.069 C 
HETATM   20  C17 UNL     1      23.712  -0.401  52.509  1.00  0.00     0.050 C 
HETATM   21  C18 UNL     1      23.551   0.975  51.909  1.00  0.00     0.078 C 
HETATM   22  C19 UNL     1      22.509   1.656  52.722  1.00  0.00     0.101 C 
HETATM   23  N3  UNL     1      21.530   2.160  52.095  1.00  0.00    -0.257 NA
HETATM   24  C20 UNL     1      20.481   2.832  52.779  1.00  0.00     0.232 C 
HETATM   25  N4  UNL     1      20.412   3.962  52.119  1.00  0.00    -0.242 NA
ENDROOT
TORSDOF 0
ENDMDL
MODEL 6
REMARK VINA RESULT:      -8.1      2.644      7.769
REMARK  0 active torsions:
REMARK  status: ('A' for Active; 'I' for Inactive)
ROOT
HETATM    1  C1  UNL     1      22.083  -1.610  54.356  1.00  0.00     0.151 C 
HETATM    2  N1  UNL     1      22.594  -0.662  53.409  1.00  0.00    -0.367 N 
HETATM    3  C2  UNL     1      24.034  -0.741  53.383  1.00  0.00     0.106 C 
HETATM    4  C3  UNL     1      25.049  -0.059  52.851  1.00  0.00     0.026 C 
HETATM    5 BR1  UNL     1      26.688  -1.006  52.647  1.00  0.00    -0.050 Br
HETATM    6  C4  UNL     1      25.174   1.334  52.367  1.00  0.00     0.023 C 
HETATM    7  C5  UNL     1      24.338   2.359  52.318  1.00  0.00     0.033 C 
HETATM    8  C6  UNL     1      22.907   2.466  52.582  1.00  0.00     0.058 C 
HETATM    9  C7  UNL     1      21.998   1.596  53.053  1.00  0.00     0.052 C 
HETATM   10  C8  UNL     1      21.682   0.190  52.656  1.00  0.00     0.233 C 
HETATM   11  N2  UNL     1      20.357  -0.174  52.881  1.00  0.00    -0.268 NA
HETATM   12  C9  UNL     1      19.342   0.054  52.151  1.00  0.00     0.023 C 
HETATM   13  C10 UNL     1      18.380  -0.655  53.105  1.00  0.00     0.090 C 
HETATM   14  C11 UNL     1      16.999  -0.606  52.493  1.00  0.00    -0.059 C 
HETATM   15  C12 UNL     1      15.743  -0.264  52.760  1.00  0.00    -0.023 C 
HETATM   16  C13 UNL     1      15.315   0.740  51.976  1.00  0.00     0.013 C 
HETATM   17  C14 UNL     1      16.065   1.169  50.755  1.00  0.00     0.004 C 
HETATM   18  C15 UNL     1      17.163   0.420  50.501  1.00  0.00    -0.075 C 
HETATM   19  C16 UNL     1      16.972  -1.018  51.014  1.00  0.00     0.069 C 
HETATM   20  C17 UNL     1      18.436   0.843  49.911  1.00  0.00     0.050 C 
HETATM   21  C18 UNL     1      19.579   0.802  50.895  1.00  0.00     0.078 C 
HETATM   22  C19 UNL     1      19.851   2.217  51.265  1.00  0.00     0.101 C 
HETATM   23  N3  UNL     1      21.046   2.623  51.141  1.00  0.00    -0.257 NA
HETATM   24  C20 UNL     1      21.409   3.957  51.468  1.00  0.00     0.232 C 
HETATM   25  N4  UNL     1      22.436   3.768  52.260  1.00  0.00    -0.242 NA
ENDROOT
TORSDOF 0
ENDMDL
MODEL 7
REMARK VINA RESULT:      -8.1      2.725      7.362
REMARK  0 active torsions:
REMARK  status: ('A' for Active; 'I' for Inactive)
ROOT
HETATM    1  C1  UNL     1      23.159  -0.672  54.220  1.00  0.00     0.151 C 
HETATM    2  N1  UNL     1      23.957  -0.158  53.146  1.00  0.00    -0.367 N 
HETATM    3  C2  UNL     1      25.315  -0.621  53.295  1.00  0.00     0.106 C 
HETATM    4  C3  UNL     1      26.504  -0.387  52.736  1.00  0.00     0.026 C 
HETATM    5 BR1  UNL     1      27.812  -1.756  52.929  1.00  0.00    -0.050 Br
HETATM    6  C4  UNL     1      27.039   0.758  51.967  1.00  0.00     0.023 C 
HETATM    7  C5  UNL     1      26.532   1.924  51.598  1.00  0.00     0.033 C 
HETATM    8  C6  UNL     1      25.181   2.470  51.675  1.00  0.00     0.058 C 
HETATM    9  C7  UNL     1      24.043   2.017  52.228  1.00  0.00     0.052 C 
HETATM   10  C8  UNL     1      23.358   0.693  52.126  1.00  0.00     0.233 C 
HETATM   11  N2  UNL     1      21.976   0.762  52.282  1.00  0.00    -0.268 NA
HETATM   12  C9  UNL     1      21.098   1.065  51.414  1.00  0.00     0.023 C 
HETATM   13  C10 UNL     1      19.936   0.895  52.392  1.00  0.00     0.090 C 
HETATM   14  C11 UNL     1      18.652   1.158  51.639  1.00  0.00    -0.059 C 
HETATM   15  C12 UNL     1      17.535   1.876  51.685  1.00  0.00    -0.023 C 
HETATM   16  C13 UNL     1      17.444   2.733  50.653  1.00  0.00     0.013 C 
HETATM   17  C14 UNL     1      18.335   2.632  49.456  1.00  0.00     0.004 C 
HETATM   18  C15 UNL     1      19.183   1.579  49.497  1.00  0.00    -0.075 C 
HETATM   19  C16 UNL     1      18.570   0.416  50.296  1.00  0.00     0.069 C 
HETATM   20  C17 UNL     1      20.547   1.489  48.968  1.00  0.00     0.050 C 
HETATM   21  C18 UNL     1      21.590   1.389  50.054  1.00  0.00     0.078 C 
HETATM   22  C19 UNL     1      22.238   2.726  50.124  1.00  0.00     0.101 C 
HETATM   23  N3  UNL     1      23.502   2.756  50.042  1.00  0.00    -0.257 NA
HETATM   24  C20 UNL     1      24.216   3.983  50.097  1.00  0.00     0.232 C 
HETATM   25  N4  UNL     1      25.114   3.729  51.018  1.00  0.00    -0.242 NA
ENDROOT
TORSDOF 0
ENDMDL
MODEL 8
REMARK VINA RESULT:      -8.0      3.695      5.445
REMARK  0 active torsions:
REMARK  status: ('A' for Active; 'I' for Inactive)
ROOT
HETATM    1  C1  UNL     1      21.517   4.471  52.384  1.00  0.00     0.151 C 
HETATM    2  N1  UNL     1      22.295   3.282  52.193  1.00  0.00    -0.367 N 
HETATM    3  C2  UNL     1      21.518   2.134  52.593  1.00  0.00     0.106 C 
HETATM    4  C3  UNL     1      21.715   0.829  52.785  1.00  0.00     0.026 C 
HETATM    5 BR1  UNL     1      20.170  -0.279  52.704  1.00  0.00    -0.050 Br
HETATM    6  C4  UNL     1      22.931   0.031  53.060  1.00  0.00     0.023 C 
HETATM    7  C5  UNL     1      24.207   0.342  53.222  1.00  0.00     0.033 C 
HETATM    8  C6  UNL     1      24.939   1.591  53.035  1.00  0.00     0.058 C 
HETATM    9  C7  UNL     1      24.550   2.843  52.740  1.00  0.00     0.052 C 
HETATM   10  C8  UNL     1      23.651   3.366  51.667  1.00  0.00     0.233 C 
HETATM   11  N2  UNL     1      23.952   4.665  51.266  1.00  0.00    -0.268 NA
HETATM   12  C9  UNL     1      24.839   5.051  50.441  1.00  0.00     0.023 C 
HETATM   13  C10 UNL     1      24.482   6.529  50.603  1.00  0.00     0.090 C 
HETATM   14  C11 UNL     1      25.372   7.326  49.679  1.00  0.00    -0.059 C 
HETATM   15  C12 UNL     1      26.210   8.357  49.658  1.00  0.00    -0.023 C 
HETATM   16  C13 UNL     1      27.460   7.985  49.329  1.00  0.00     0.013 C 
HETATM   17  C14 UNL     1      27.761   6.640  48.750  1.00  0.00     0.004 C 
HETATM   18  C15 UNL     1      26.662   5.878  48.545  1.00  0.00    -0.075 C 
HETATM   19  C16 UNL     1      25.435   6.758  48.253  1.00  0.00     0.069 C 
HETATM   20  C17 UNL     1      26.533   4.422  48.653  1.00  0.00     0.050 C 
HETATM   21  C18 UNL     1      25.669   3.997  49.815  1.00  0.00     0.078 C 
HETATM   22  C19 UNL     1      26.604   3.491  50.856  1.00  0.00     0.101 C 
HETATM   23  N3  UNL     1      26.377   2.333  51.318  1.00  0.00    -0.257 NA
HETATM   24  C20 UNL     1      27.211   1.759  52.315  1.00  0.00     0.232 C 
HETATM   25  N4  UNL     1      26.335   1.382  53.213  1.00  0.00    -0.242 NA
ENDROOT
TORSDOF 0
ENDMDL
MODEL 9
REMARK VINA RESULT:      -7.8      3.047      4.694
REMARK  0 active torsions:
REMARK  status: ('A' for Active; 'I' for Inactive)
ROOT
HETATM    1  C1  UNL     1      18.077   3.849  51.265  1.00  0.00     0.151 C 
HETATM    2  N1  UNL     1      18.728   2.579  51.400  1.00  0.00    -0.367 N 
HETATM    3  C2  UNL     1      17.733   1.546  51.553  1.00  0.00     0.106 C 
HETATM    4  C3  UNL     1      17.699   0.246  51.852  1.00  0.00     0.026 C 
HETATM    5 BR1  UNL     1      16.154  -0.711  51.287  1.00  0.00    -0.050 Br
HETATM    6  C4  UNL     1      18.648  -0.642  52.559  1.00  0.00     0.023 C 
HETATM    7  C5  UNL     1      19.822  -0.445  53.138  1.00  0.00     0.033 C 
HETATM    8  C6  UNL     1      20.715   0.709  53.166  1.00  0.00     0.058 C 
HETATM    9  C7  UNL     1      20.598   1.967  52.706  1.00  0.00     0.052 C 
HETATM   10  C8  UNL     1      20.182   2.491  51.370  1.00  0.00     0.233 C 
HETATM   11  N2  UNL     1      20.751   3.720  51.047  1.00  0.00    -0.268 NA
HETATM   12  C9  UNL     1      21.903   3.954  50.563  1.00  0.00     0.023 C 
HETATM   13  C10 UNL     1      21.687   5.468  50.535  1.00  0.00     0.090 C 
HETATM   14  C11 UNL     1      22.925   6.102  49.943  1.00  0.00    -0.059 C 
HETATM   15  C12 UNL     1      23.835   7.042  50.171  1.00  0.00    -0.023 C 
HETATM   16  C13 UNL     1      25.070   6.527  50.308  1.00  0.00     0.013 C 
HETATM   17  C14 UNL     1      25.389   5.119  49.920  1.00  0.00     0.004 C 
HETATM   18  C15 UNL     1      24.343   4.453  49.380  1.00  0.00    -0.075 C 
HETATM   19  C16 UNL     1      23.398   5.423  48.649  1.00  0.00     0.069 C 
HETATM   20  C17 UNL     1      24.015   3.029  49.493  1.00  0.00     0.050 C 
HETATM   21  C18 UNL     1      22.766   2.779  50.303  1.00  0.00     0.078 C 
HETATM   22  C19 UNL     1      23.229   2.267  51.620  1.00  0.00     0.101 C 
HETATM   23  N3  UNL     1      22.724   1.175  52.021  1.00  0.00    -0.257 NA
HETATM   24  C20 UNL     1      23.100   0.601  53.265  1.00  0.00     0.232 C 
HETATM   25  N4  UNL     1      21.934   0.380  53.821  1.00  0.00    -0.242 NA
ENDROOT
TORSDOF 0
ENDMDL
