MODEL 1
REMARK VINA RESULT:      -8.8      0.000      0.000
REMARK  5 active torsions:
REMARK  status: ('A' for Active; 'I' for Inactive)
REMARK    1  A    between atoms: N1_1  and  N2_2 
REMARK    2  A    between atoms: C3_5  and  N3_6 
REMARK    3  A    between atoms: N3_6  and  C4_7 
REMARK    4  A    between atoms: C8_14  and  N7_15 
REMARK    5  A    between atoms: N7_15  and  C9_16 
ROOT
HETATM    1  C4  UNL     1      22.767   0.507  52.507  1.00  0.00     0.062 A 
HETATM    2  C5  UNL     1      21.411   0.206  52.611  1.00  0.00     0.051 A 
HETATM    3  C6  UNL     1      21.156  -0.600  53.702  1.00  0.00     0.121 A 
HETATM    4  N4  UNL     1      22.339  -0.819  54.298  1.00  0.00    -0.238 N 
HETATM    5  N5  UNL     1      22.669  -1.511  55.370  1.00  0.00    -0.161 NA
HETATM    6  C7  UNL     1      23.962  -1.569  55.770  1.00  0.00     0.258 A 
HETATM    7  N6  UNL     1      24.937  -0.922  55.082  1.00  0.00    -0.220 NA
HETATM    8  C8  UNL     1      24.590  -0.217  53.988  1.00  0.00     0.160 A 
HETATM    9  C15 UNL     1      23.276  -0.167  53.593  1.00  0.00     0.130 A 
ENDROOT
BRANCH   1  10
HETATM   10  N3  UNL     1      23.431   1.273  51.531  1.00  0.00    -0.383 N 
HETATM   11  H8  UNL     1      24.002   0.741  50.835  1.00  0.00     0.160 HD
BRANCH  10  12
HETATM   12  C3  UNL     1      23.346   2.693  51.464  1.00  0.00     0.084 C 
HETATM   13  C2  UNL     1      24.121   3.323  50.373  1.00  0.00     0.041 C 
HETATM   14  C1  UNL     1      24.854   4.582  50.772  1.00  0.00     0.109 C 
HETATM   15  N2  UNL     1      23.910   5.409  51.504  1.00  0.00    -0.254 NA
HETATM   16  C17 UNL     1      23.464   4.809  52.737  1.00  0.00     0.109 C 
HETATM   17  C16 UNL     1      23.670   3.338  52.815  1.00  0.00     0.041 C 
BRANCH  15  18
HETATM   18  N1  UNL     1      24.383   6.707  51.674  1.00  0.00    -0.269 NA
HETATM   19  H1  UNL     1      23.735   7.183  52.368  1.00  0.00     0.137 HD
HETATM   20  H2  UNL     1      25.350   6.635  52.103  1.00  0.00     0.137 HD
ENDBRANCH  15  18
ENDBRANCH  10  12
ENDBRANCH   1  10
BRANCH   8  21
HETATM   21  N7  UNL     1      25.741   0.398  53.431  1.00  0.00    -0.339 N 
HETATM   22  H12 UNL     1      25.857   1.392  53.171  1.00  0.00     0.167 HD
BRANCH  21  23
HETATM   23  C9  UNL     1      26.824  -0.530  53.243  1.00  0.00     0.036 A 
HETATM   24  C10 UNL     1      26.706  -1.779  52.703  1.00  0.00     0.029 A 
HETATM   25  C11 UNL     1      27.799  -2.619  52.591  1.00  0.00     0.005 A 
HETATM   26  C12 UNL     1      29.071  -2.221  53.028  1.00  0.00     0.042 A 
HETATM   27  C13 UNL     1      29.191  -0.961  53.573  1.00  0.00     0.118 A 
HETATM   28  F1  UNL     1      30.435  -0.576  54.000  1.00  0.00    -0.206 F 
HETATM   29  C14 UNL     1      28.095  -0.126  53.681  1.00  0.00     0.071 A 
ENDBRANCH  21  23
ENDBRANCH   8  21
TORSDOF 5
ENDMDL
MODEL 2
REMARK VINA RESULT:      -8.6      2.644      5.632
REMARK  5 active torsions:
REMARK  status: ('A' for Active; 'I' for Inactive)
REMARK    1  A    between atoms: N1_1  and  N2_2 
REMARK    2  A    between atoms: C3_5  and  N3_6 
REMARK    3  A    between atoms: N3_6  and  C4_7 
REMARK    4  A    between atoms: C8_14  and  N7_15 
REMARK    5  A    between atoms: N7_15  and  C9_16 
ROOT
HETATM    1  C4  UNL     1      23.786  -0.346  53.587  1.00  0.00     0.062 A 
HETATM    2  C5  UNL     1      23.536  -1.085  54.740  1.00  0.00     0.051 A 
HETATM    3  C6  UNL     1      22.182  -1.214  54.973  1.00  0.00     0.121 A 
HETATM    4  N4  UNL     1      21.561  -0.562  53.977  1.00  0.00    -0.238 N 
HETATM    5  N5  UNL     1      20.284  -0.374  53.711  1.00  0.00    -0.161 NA
HETATM    6  C7  UNL     1      19.916   0.335  52.616  1.00  0.00     0.258 A 
HETATM    7  N6  UNL     1      20.844   0.859  51.777  1.00  0.00    -0.220 NA
HETATM    8  C8  UNL     1      22.147   0.661  52.057  1.00  0.00     0.160 A 
HETATM    9  C15 UNL     1      22.507  -0.057  53.170  1.00  0.00     0.130 A 
ENDROOT
BRANCH   1  10
HETATM   10  N3  UNL     1      25.021   0.027  53.024  1.00  0.00    -0.383 N 
HETATM   11  H8  UNL     1      25.133  -0.144  51.999  1.00  0.00     0.160 HD
BRANCH  10  12
HETATM   12  C3  UNL     1      26.077   0.612  53.781  1.00  0.00     0.084 C 
HETATM   13  C2  UNL     1      26.387   2.019  53.449  1.00  0.00     0.041 C 
HETATM   14  C1  UNL     1      27.863   2.337  53.390  1.00  0.00     0.109 C 
HETATM   15  N2  UNL     1      28.468   1.766  54.581  1.00  0.00    -0.254 NA
HETATM   16  C17 UNL     1      28.380   0.329  54.633  1.00  0.00     0.109 C 
HETATM   17  C16 UNL     1      27.338  -0.255  53.746  1.00  0.00     0.041 C 
BRANCH  15  18
HETATM   18  N1  UNL     1      29.764   2.237  54.780  1.00  0.00    -0.269 NA
HETATM   19  H1  UNL     1      29.679   3.232  55.140  1.00  0.00     0.137 HD
HETATM   20  H2  UNL     1      30.203   1.636  55.534  1.00  0.00     0.137 HD
ENDBRANCH  15  18
ENDBRANCH  10  12
ENDBRANCH   1  10
BRANCH   8  21
HETATM   21  N7  UNL     1      22.949   1.265  51.054  1.00  0.00    -0.339 N 
HETATM   22  H12 UNL     1      23.474   0.790  50.302  1.00  0.00     0.167 HD
BRANCH  21  23
HETATM   23  C9  UNL     1      22.977   2.700  51.163  1.00  0.00     0.036 A 
HETATM   24  C10 UNL     1      22.696   3.572  50.151  1.00  0.00     0.029 A 
HETATM   25  C11 UNL     1      22.782   4.939  50.337  1.00  0.00     0.005 A 
HETATM   26  C12 UNL     1      23.159   5.484  51.572  1.00  0.00     0.042 A 
HETATM   27  C13 UNL     1      23.443   4.604  52.595  1.00  0.00     0.118 A 
HETATM   28  F1  UNL     1      23.814   5.140  53.801  1.00  0.00    -0.206 F 
HETATM   29  C14 UNL     1      23.355   3.239  52.403  1.00  0.00     0.071 A 
ENDBRANCH  21  23
ENDBRANCH   8  21
TORSDOF 5
ENDMDL
MODEL 3
REMARK VINA RESULT:      -8.2      2.745      6.110
REMARK  5 active torsions:
REMARK  status: ('A' for Active; 'I' for Inactive)
REMARK    1  A    between atoms: N1_1  and  N2_2 
REMARK    2  A    between atoms: C3_5  and  N3_6 
REMARK    3  A    between atoms: N3_6  and  C4_7 
REMARK    4  A    between atoms: C8_14  and  N7_15 
REMARK    5  A    between atoms: N7_15  and  C9_16 
ROOT
HETATM    1  C4  UNL     1      23.531   1.006  52.951  1.00  0.00     0.062 A 
HETATM    2  C5  UNL     1      22.754  -0.149  52.944  1.00  0.00     0.051 A 
HETATM    3  C6  UNL     1      21.539   0.063  52.326  1.00  0.00     0.121 A 
HETATM    4  N4  UNL     1      21.530   1.348  51.936  1.00  0.00    -0.238 N 
HETATM    5  N5  UNL     1      20.625   2.069  51.304  1.00  0.00    -0.161 NA
HETATM    6  C7  UNL     1      20.871   3.371  51.021  1.00  0.00     0.258 A 
HETATM    7  N6  UNL     1      22.043   3.955  51.378  1.00  0.00    -0.220 NA
HETATM    8  C8  UNL     1      22.962   3.211  52.023  1.00  0.00     0.160 A 
HETATM    9  C15 UNL     1      22.700   1.892  52.305  1.00  0.00     0.130 A 
ENDROOT
BRANCH   1  10
HETATM   10  N3  UNL     1      24.811   1.210  53.500  1.00  0.00    -0.383 N 
HETATM   11  H8  UNL     1      25.047   2.192  53.771  1.00  0.00     0.160 HD
BRANCH  10  12
HETATM   12  C3  UNL     1      25.751   0.158  53.695  1.00  0.00     0.084 C 
HETATM   13  C2  UNL     1      26.834   0.449  54.659  1.00  0.00     0.041 C 
HETATM   14  C1  UNL     1      28.201  -0.024  54.225  1.00  0.00     0.109 C 
HETATM   15  N2  UNL     1      28.050  -1.392  53.761  1.00  0.00    -0.254 NA
HETATM   16  C17 UNL     1      27.208  -1.509  52.597  1.00  0.00     0.109 C 
HETATM   17  C16 UNL     1      26.317  -0.341  52.363  1.00  0.00     0.041 C 
BRANCH  15  18
HETATM   18  N1  UNL     1      29.280  -2.025  53.605  1.00  0.00    -0.269 NA
HETATM   19  H1  UNL     1      29.080  -3.061  53.482  1.00  0.00     0.137 HD
HETATM   20  H2  UNL     1      29.714  -1.652  52.713  1.00  0.00     0.137 HD
ENDBRANCH  15  18
ENDBRANCH  10  12
ENDBRANCH   1  10
BRANCH   8  21
HETATM   21  N7  UNL     1      24.115   3.994  52.285  1.00  0.00    -0.339 N 
HETATM   22  H12 UNL     1      24.363   4.469  53.169  1.00  0.00     0.167 HD
BRANCH  21  23
HETATM   23  C9  UNL     1      24.989   4.085  51.145  1.00  0.00     0.036 A 
HETATM   24  C10 UNL     1      25.789   3.080  50.685  1.00  0.00     0.029 A 
HETATM   25  C11 UNL     1      26.625   3.267  49.599  1.00  0.00     0.005 A 
HETATM   26  C12 UNL     1      26.681   4.497  48.928  1.00  0.00     0.042 A 
HETATM   27  C13 UNL     1      25.873   5.513  49.391  1.00  0.00     0.118 A 
HETATM   28  F1  UNL     1      25.932   6.714  48.734  1.00  0.00    -0.206 F 
HETATM   29  C14 UNL     1      25.040   5.318  50.476  1.00  0.00     0.071 A 
ENDBRANCH  21  23
ENDBRANCH   8  21
TORSDOF 5
ENDMDL
MODEL 4
REMARK VINA RESULT:      -8.0      1.912      5.118
REMARK  5 active torsions:
REMARK  status: ('A' for Active; 'I' for Inactive)
REMARK    1  A    between atoms: N1_1  and  N2_2 
REMARK    2  A    between atoms: C3_5  and  N3_6 
REMARK    3  A    between atoms: N3_6  and  C4_7 
REMARK    4  A    between atoms: C8_14  and  N7_15 
REMARK    5  A    between atoms: N7_15  and  C9_16 
ROOT
HETATM    1  C4  UNL     1      23.242   2.934  51.186  1.00  0.00     0.062 A 
HETATM    2  C5  UNL     1      22.495   3.265  50.058  1.00  0.00     0.051 A 
HETATM    3  C6  UNL     1      23.306   3.664  49.016  1.00  0.00     0.121 A 
HETATM    4  N4  UNL     1      24.568   3.592  49.466  1.00  0.00    -0.238 N 
HETATM    5  N5  UNL     1      25.724   3.853  48.889  1.00  0.00    -0.161 NA
HETATM    6  C7  UNL     1      26.879   3.691  49.579  1.00  0.00     0.258 A 
HETATM    7  N6  UNL     1      26.872   3.259  50.865  1.00  0.00    -0.220 NA
HETATM    8  C8  UNL     1      25.686   2.993  51.446  1.00  0.00     0.160 A 
HETATM    9  C15 UNL     1      24.522   3.163  50.737  1.00  0.00     0.130 A 
ENDROOT
BRANCH   1  10
HETATM   10  N3  UNL     1      22.795   2.508  52.451  1.00  0.00    -0.383 N 
HETATM   11  H8  UNL     1      22.945   3.174  53.243  1.00  0.00     0.160 HD
BRANCH  10  12
HETATM   12  C3  UNL     1      22.165   1.250  52.672  1.00  0.00     0.084 C 
HETATM   13  C2  UNL     1      20.799   1.318  53.236  1.00  0.00     0.041 C 
HETATM   14  C1  UNL     1      20.517   0.298  54.314  1.00  0.00     0.109 C 
HETATM   15  N2  UNL     1      20.989  -0.984  53.819  1.00  0.00    -0.254 NA
HETATM   16  C17 UNL     1      22.414  -1.024  53.608  1.00  0.00     0.109 C 
HETATM   17  C16 UNL     1      23.056   0.313  53.492  1.00  0.00     0.041 C 
BRANCH  15  18
HETATM   18  N1  UNL     1      20.528  -2.042  54.600  1.00  0.00    -0.269 NA
HETATM   19  H1  UNL     1      21.377  -2.467  55.075  1.00  0.00     0.137 HD
HETATM   20  H2  UNL     1      19.892  -1.630  55.341  1.00  0.00     0.137 HD
ENDBRANCH  15  18
ENDBRANCH  10  12
ENDBRANCH   1  10
BRANCH   8  21
HETATM   21  N7  UNL     1      25.895   2.536  52.773  1.00  0.00    -0.339 N 
HETATM   22  H12 UNL     1      25.620   3.010  53.649  1.00  0.00     0.167 HD
BRANCH  21  23
HETATM   23  C9  UNL     1      26.563   1.262  52.817  1.00  0.00     0.036 A 
HETATM   24  C10 UNL     1      26.191   0.153  52.113  1.00  0.00     0.029 A 
HETATM   25  C11 UNL     1      26.875  -1.042  52.243  1.00  0.00     0.005 A 
HETATM   26  C12 UNL     1      27.976  -1.161  53.102  1.00  0.00     0.042 A 
HETATM   27  C13 UNL     1      28.352  -0.042  53.814  1.00  0.00     0.118 A 
HETATM   28  F1  UNL     1      29.428  -0.163  54.655  1.00  0.00    -0.206 F 
HETATM   29  C14 UNL     1      27.666   1.149  53.679  1.00  0.00     0.071 A 
ENDBRANCH  21  23
ENDBRANCH   8  21
TORSDOF 5
ENDMDL
MODEL 5
REMARK VINA RESULT:      -7.8      2.808      6.757
REMARK  5 active torsions:
REMARK  status: ('A' for Active; 'I' for Inactive)
REMARK    1  A    between atoms: N1_1  and  N2_2 
REMARK    2  A    between atoms: C3_5  and  N3_6 
REMARK    3  A    between atoms: N3_6  and  C4_7 
REMARK    4  A    between atoms: C8_14  and  N7_15 
REMARK    5  A    between atoms: N7_15  and  C9_16 
ROOT
HETATM    1  C4  UNL     1      25.755   2.838  51.683  1.00  0.00     0.062 A 
HETATM    2  C5  UNL     1      26.791   2.900  50.754  1.00  0.00     0.051 A 
HETATM    3  C6  UNL     1      26.352   3.386  49.540  1.00  0.00     0.121 A 
HETATM    4  N4  UNL     1      25.041   3.637  49.682  1.00  0.00    -0.238 N 
HETATM    5  N5  UNL     1      24.140   4.110  48.844  1.00  0.00    -0.161 NA
HETATM    6  C7  UNL     1      22.857   4.274  49.248  1.00  0.00     0.258 A 
HETATM    7  N6  UNL     1      22.475   3.959  50.512  1.00  0.00    -0.220 NA
HETATM    8  C8  UNL     1      23.403   3.476  51.361  1.00  0.00     0.160 A 
HETATM    9  C15 UNL     1      24.700   3.313  50.939  1.00  0.00     0.130 A 
ENDROOT
BRANCH   1  10
HETATM   10  N3  UNL     1      25.784   2.381  53.014  1.00  0.00    -0.383 N 
HETATM   11  H8  UNL     1      25.390   3.028  53.734  1.00  0.00     0.160 HD
BRANCH  10  12
HETATM   12  C3  UNL     1      26.307   1.111  53.389  1.00  0.00     0.084 C 
HETATM   13  C2  UNL     1      27.697   1.125  53.897  1.00  0.00     0.041 C 
HETATM   14  C1  UNL     1      28.559  -0.007  53.389  1.00  0.00     0.109 C 
HETATM   15  N2  UNL     1      27.789  -1.229  53.542  1.00  0.00    -0.254 NA
HETATM   16  C17 UNL     1      26.596  -1.255  52.734  1.00  0.00     0.109 C 
HETATM   17  C16 UNL     1      26.140   0.082  52.268  1.00  0.00     0.041 C 
BRANCH  15  18
HETATM   18  N1  UNL     1      28.580  -2.363  53.377  1.00  0.00    -0.269 NA
HETATM   19  H1  UNL     1      29.546  -2.122  53.746  1.00  0.00     0.137 HD
HETATM   20  H2  UNL     1      28.163  -3.127  53.982  1.00  0.00     0.137 HD
ENDBRANCH  15  18
ENDBRANCH  10  12
ENDBRANCH   1  10
BRANCH   8  21
HETATM   21  N7  UNL     1      22.811   3.233  52.628  1.00  0.00    -0.339 N 
HETATM   22  H12 UNL     1      22.927   3.790  53.490  1.00  0.00     0.167 HD
BRANCH  21  23
HETATM   23  C9  UNL     1      21.968   2.067  52.626  1.00  0.00     0.036 A 
HETATM   24  C10 UNL     1      20.604   2.083  52.583  1.00  0.00     0.029 A 
HETATM   25  C11 UNL     1      19.871   0.910  52.619  1.00  0.00     0.005 A 
HETATM   26  C12 UNL     1      20.500  -0.339  52.701  1.00  0.00     0.042 A 
HETATM   27  C13 UNL     1      21.878  -0.357  52.744  1.00  0.00     0.118 A 
HETATM   28  F1  UNL     1      22.490  -1.580  52.827  1.00  0.00    -0.206 F 
HETATM   29  C14 UNL     1      22.604   0.818  52.707  1.00  0.00     0.071 A 
ENDBRANCH  21  23
ENDBRANCH   8  21
TORSDOF 5
ENDMDL
MODEL 6
REMARK VINA RESULT:      -7.6      2.000      2.682
REMARK  5 active torsions:
REMARK  status: ('A' for Active; 'I' for Inactive)
REMARK    1  A    between atoms: N1_1  and  N2_2 
REMARK    2  A    between atoms: C3_5  and  N3_6 
REMARK    3  A    between atoms: N3_6  and  C4_7 
REMARK    4  A    between atoms: C8_14  and  N7_15 
REMARK    5  A    between atoms: N7_15  and  C9_16 
ROOT
HETATM    1  C4  UNL     1      23.002   0.894  52.259  1.00  0.00     0.062 A 
HETATM    2  C5  UNL     1      21.710   1.067  52.752  1.00  0.00     0.051 A 
HETATM    3  C6  UNL     1      21.540   0.420  53.958  1.00  0.00     0.121 A 
HETATM    4  N4  UNL     1      22.712  -0.167  54.245  1.00  0.00    -0.238 N 
HETATM    5  N5  UNL     1      23.102  -0.903  55.267  1.00  0.00    -0.161 NA
HETATM    6  C7  UNL     1      24.368  -1.381  55.316  1.00  0.00     0.258 A 
HETATM    7  N6  UNL     1      25.256  -1.116  54.325  1.00  0.00    -0.220 NA
HETATM    8  C8  UNL     1      24.850  -0.362  53.284  1.00  0.00     0.160 A 
HETATM    9  C15 UNL     1      23.563   0.116  53.245  1.00  0.00     0.130 A 
ENDROOT
BRANCH   1  10
HETATM   10  N3  UNL     1      23.563   1.368  51.059  1.00  0.00    -0.383 N 
HETATM   11  H8  UNL     1      24.525   1.027  50.832  1.00  0.00     0.160 HD
BRANCH  10  12
HETATM   12  C3  UNL     1      22.882   2.257  50.179  1.00  0.00     0.084 C 
HETATM   13  C2  UNL     1      22.062   1.607  49.134  1.00  0.00     0.041 C 
HETATM   14  C1  UNL     1      22.166   2.247  47.770  1.00  0.00     0.109 C 
HETATM   15  N2  UNL     1      22.019   3.680  47.960  1.00  0.00    -0.254 NA
HETATM   16  C17 UNL     1      23.078   4.262  48.745  1.00  0.00     0.109 C 
HETATM   17  C16 UNL     1      23.840   3.285  49.569  1.00  0.00     0.041 C 
BRANCH  15  18
HETATM   18  N1  UNL     1      21.813   4.344  46.753  1.00  0.00    -0.269 NA
HETATM   19  H1  UNL     1      22.313   5.277  46.826  1.00  0.00     0.137 HD
HETATM   20  H2  UNL     1      22.275   3.766  45.995  1.00  0.00     0.137 HD
ENDBRANCH  15  18
ENDBRANCH  10  12
ENDBRANCH   1  10
BRANCH   8  21
HETATM   21  N7  UNL     1      25.924  -0.183  52.375  1.00  0.00    -0.339 N 
HETATM   22  H12 UNL     1      25.952  -0.453  51.378  1.00  0.00     0.167 HD
BRANCH  21  23
HETATM   23  C9  UNL     1      27.060   0.457  52.985  1.00  0.00     0.036 A 
HETATM   24  C10 UNL     1      27.116   1.769  53.359  1.00  0.00     0.029 A 
HETATM   25  C11 UNL     1      28.265   2.309  53.909  1.00  0.00     0.005 A 
HETATM   26  C12 UNL     1      29.414   1.531  54.104  1.00  0.00     0.042 A 
HETATM   27  C13 UNL     1      29.358   0.206  53.726  1.00  0.00     0.118 A 
HETATM   28  F1  UNL     1      30.484  -0.551  53.916  1.00  0.00    -0.206 F 
HETATM   29  C14 UNL     1      28.208  -0.327  53.178  1.00  0.00     0.071 A 
ENDBRANCH  21  23
ENDBRANCH   8  21
TORSDOF 5
ENDMDL
MODEL 7
REMARK VINA RESULT:      -7.6      2.469      5.496
REMARK  5 active torsions:
REMARK  status: ('A' for Active; 'I' for Inactive)
REMARK    1  A    between atoms: N1_1  and  N2_2 
REMARK    2  A    between atoms: C3_5  and  N3_6 
REMARK    3  A    between atoms: N3_6  and  C4_7 
REMARK    4  A    between atoms: C8_14  and  N7_15 
REMARK    5  A    between atoms: N7_15  and  C9_16 
ROOT
HETATM    1  C4  UNL     1      24.010   4.403  51.592  1.00  0.00     0.062 A 
HETATM    2  C5  UNL     1      23.685   5.748  51.428  1.00  0.00     0.051 A 
HETATM    3  C6  UNL     1      24.532   6.365  50.531  1.00  0.00     0.121 A 
HETATM    4  N4  UNL     1      25.399   5.427  50.118  1.00  0.00    -0.238 N 
HETATM    5  N5  UNL     1      26.407   5.473  49.269  1.00  0.00    -0.161 NA
HETATM    6  C7  UNL     1      27.137   4.359  49.022  1.00  0.00     0.258 A 
HETATM    7  N6  UNL     1      26.850   3.183  49.635  1.00  0.00    -0.220 NA
HETATM    8  C8  UNL     1      25.818   3.145  50.500  1.00  0.00     0.160 A 
HETATM    9  C15 UNL     1      25.086   4.282  50.744  1.00  0.00     0.130 A 
ENDROOT
BRANCH   1  10
HETATM   10  N3  UNL     1      23.410   3.443  52.428  1.00  0.00    -0.383 N 
HETATM   11  H8  UNL     1      23.751   3.412  53.415  1.00  0.00     0.160 HD
BRANCH  10  12
HETATM   12  C3  UNL     1      22.390   2.553  51.984  1.00  0.00     0.084 C 
HETATM   13  C2  UNL     1      21.007   3.057  52.127  1.00  0.00     0.041 C 
HETATM   14  C1  UNL     1      20.017   2.032  52.629  1.00  0.00     0.109 C 
HETATM   15  N2  UNL     1      20.227   0.823  51.852  1.00  0.00    -0.254 NA
HETATM   16  C17 UNL     1      21.529   0.237  52.049  1.00  0.00     0.109 C 
HETATM   17  C16 UNL     1      22.541   1.167  52.617  1.00  0.00     0.041 C 
BRANCH  15  18
HETATM   18  N1  UNL     1      19.190  -0.091  52.026  1.00  0.00    -0.269 NA
HETATM   19  H1  UNL     1      19.049  -0.201  53.073  1.00  0.00     0.137 HD
HETATM   20  H2  UNL     1      18.318   0.341  51.607  1.00  0.00     0.137 HD
ENDBRANCH  15  18
ENDBRANCH  10  12
ENDBRANCH   1  10
BRANCH   8  21
HETATM   21  N7  UNL     1      25.670   1.830  51.012  1.00  0.00    -0.339 N 
HETATM   22  H12 UNL     1      24.943   1.139  50.763  1.00  0.00     0.167 HD
BRANCH  21  23
HETATM   23  C9  UNL     1      26.687   1.497  51.974  1.00  0.00     0.036 A 
HETATM   24  C10 UNL     1      27.417   2.400  52.692  1.00  0.00     0.029 A 
HETATM   25  C11 UNL     1      28.401   1.989  53.574  1.00  0.00     0.005 A 
HETATM   26  C12 UNL     1      28.685   0.629  53.764  1.00  0.00     0.042 A 
HETATM   27  C13 UNL     1      27.949  -0.283  53.039  1.00  0.00     0.118 A 
HETATM   28  F1  UNL     1      28.232  -1.611  53.226  1.00  0.00    -0.206 F 
HETATM   29  C14 UNL     1      26.967   0.134  52.161  1.00  0.00     0.071 A 
ENDBRANCH  21  23
ENDBRANCH   8  21
TORSDOF 5
ENDMDL
MODEL 8
REMARK VINA RESULT:      -7.5      3.210      6.806
REMARK  5 active torsions:
REMARK  status: ('A' for Active; 'I' for Inactive)
REMARK    1  A    between atoms: N1_1  and  N2_2 
REMARK    2  A    between atoms: C3_5  and  N3_6 
REMARK    3  A    between atoms: N3_6  and  C4_7 
REMARK    4  A    between atoms: C8_14  and  N7_15 
REMARK    5  A    between atoms: N7_15  and  C9_16 
ROOT
HETATM    1  C4  UNL     1      25.951   3.009  50.349  1.00  0.00     0.062 A 
HETATM    2  C5  UNL     1      26.654   3.788  49.432  1.00  0.00     0.051 A 
HETATM    3  C6  UNL     1      26.162   5.076  49.383  1.00  0.00     0.121 A 
HETATM    4  N4  UNL     1      25.147   5.130  50.260  1.00  0.00    -0.238 N 
HETATM    5  N5  UNL     1      24.338   6.110  50.611  1.00  0.00    -0.161 NA
HETATM    6  C7  UNL     1      23.380   5.898  51.544  1.00  0.00     0.258 A 
HETATM    7  N6  UNL     1      23.233   4.685  52.134  1.00  0.00    -0.220 NA
HETATM    8  C8  UNL     1      24.064   3.689  51.770  1.00  0.00     0.160 A 
HETATM    9  C15 UNL     1      25.031   3.917  50.821  1.00  0.00     0.130 A 
ENDROOT
BRANCH   1  10
HETATM   10  N3  UNL     1      26.124   1.651  50.674  1.00  0.00    -0.383 N 
HETATM   11  H8  UNL     1      25.556   0.968  50.124  1.00  0.00     0.160 HD
BRANCH  10  12
HETATM   12  C3  UNL     1      27.021   1.201  51.684  1.00  0.00     0.084 C 
HETATM   13  C2  UNL     1      26.575   0.011  52.442  1.00  0.00     0.041 C 
HETATM   14  C1  UNL     1      26.829   0.085  53.929  1.00  0.00     0.109 C 
HETATM   15  N2  UNL     1      28.201   0.530  54.103  1.00  0.00    -0.254 NA
HETATM   16  C17 UNL     1      28.437   1.860  53.601  1.00  0.00     0.109 C 
HETATM   17  C16 UNL     1      27.418   2.339  52.629  1.00  0.00     0.041 C 
BRANCH  15  18
HETATM   18  N1  UNL     1      28.637   0.362  55.415  1.00  0.00    -0.269 NA
HETATM   19  H1  UNL     1      27.786   0.094  55.991  1.00  0.00     0.137 HD
HETATM   20  H2  UNL     1      29.320  -0.448  55.417  1.00  0.00     0.137 HD
ENDBRANCH  15  18
ENDBRANCH  10  12
ENDBRANCH   1  10
BRANCH   8  21
HETATM   21  N7  UNL     1      23.763   2.519  52.513  1.00  0.00    -0.339 N 
HETATM   22  H12 UNL     1      24.237   2.179  53.366  1.00  0.00     0.167 HD
BRANCH  21  23
HETATM   23  C9  UNL     1      22.661   1.781  51.954  1.00  0.00     0.036 A 
HETATM   24  C10 UNL     1      22.490   1.505  50.629  1.00  0.00     0.029 A 
HETATM   25  C11 UNL     1      21.379   0.816  50.176  1.00  0.00     0.005 A 
HETATM   26  C12 UNL     1      20.386   0.376  51.061  1.00  0.00     0.042 A 
HETATM   27  C13 UNL     1      20.557   0.654  52.401  1.00  0.00     0.118 A 
HETATM   28  F1  UNL     1      19.583   0.224  53.263  1.00  0.00    -0.206 F 
HETATM   29  C14 UNL     1      21.670   1.342  52.846  1.00  0.00     0.071 A 
ENDBRANCH  21  23
ENDBRANCH   8  21
TORSDOF 5
ENDMDL
MODEL 9
REMARK VINA RESULT:      -7.5      2.923      5.210
REMARK  5 active torsions:
REMARK  status: ('A' for Active; 'I' for Inactive)
REMARK    1  A    between atoms: N1_1  and  N2_2 
REMARK    2  A    between atoms: C3_5  and  N3_6 
REMARK    3  A    between atoms: N3_6  and  C4_7 
REMARK    4  A    between atoms: C8_14  and  N7_15 
REMARK    5  A    between atoms: N7_15  and  C9_16 
ROOT
HETATM    1  C4  UNL     1      22.751  -0.585  53.469  1.00  0.00     0.062 A 
HETATM    2  C5  UNL     1      22.336  -1.277  54.605  1.00  0.00     0.051 A 
HETATM    3  C6  UNL     1      23.367  -1.423  55.511  1.00  0.00     0.121 A 
HETATM    4  N4  UNL     1      24.440  -0.830  54.965  1.00  0.00    -0.238 N 
HETATM    5  N5  UNL     1      25.676  -0.675  55.398  1.00  0.00    -0.161 NA
HETATM    6  C7  UNL     1      26.585  -0.020  54.637  1.00  0.00     0.258 A 
HETATM    7  N6  UNL     1      26.248   0.487  53.425  1.00  0.00    -0.220 NA
HETATM    8  C8  UNL     1      24.983   0.325  52.990  1.00  0.00     0.160 A 
HETATM    9  C15 UNL     1      24.071  -0.342  53.770  1.00  0.00     0.130 A 
ENDROOT
BRANCH   1  10
HETATM   10  N3  UNL     1      22.016  -0.256  52.315  1.00  0.00    -0.383 N 
HETATM   11  H8  UNL     1      22.311  -0.723  51.429  1.00  0.00     0.160 HD
BRANCH  10  12
HETATM   12  C3  UNL     1      20.921   0.655  52.324  1.00  0.00     0.084 C 
HETATM   13  C2  UNL     1      19.583   0.034  52.438  1.00  0.00     0.041 C 
HETATM   14  C1  UNL     1      18.532   0.645  51.540  1.00  0.00     0.109 C 
HETATM   15  N2  UNL     1      18.631   2.086  51.690  1.00  0.00    -0.254 NA
HETATM   16  C17 UNL     1      19.890   2.622  51.237  1.00  0.00     0.109 C 
HETATM   17  C16 UNL     1      20.983   1.618  51.135  1.00  0.00     0.041 C 
BRANCH  15  18
HETATM   18  N1  UNL     1      17.533   2.741  51.136  1.00  0.00    -0.269 NA
HETATM   19  H1  UNL     1      17.334   2.273  50.204  1.00  0.00     0.137 HD
HETATM   20  H2  UNL     1      16.711   2.577  51.784  1.00  0.00     0.137 HD
ENDBRANCH  15  18
ENDBRANCH  10  12
ENDBRANCH   1  10
BRANCH   8  21
HETATM   21  N7  UNL     1      24.830   0.943  51.722  1.00  0.00    -0.339 N 
HETATM   22  H12 UNL     1      24.955   0.506  50.794  1.00  0.00     0.167 HD
BRANCH  21  23
HETATM   23  C9  UNL     1      24.453   2.328  51.827  1.00  0.00     0.036 A 
HETATM   24  C10 UNL     1      23.997   2.936  52.961  1.00  0.00     0.029 A 
HETATM   25  C11 UNL     1      23.625   4.267  52.961  1.00  0.00     0.005 A 
HETATM   26  C12 UNL     1      23.701   5.045  51.796  1.00  0.00     0.042 A 
HETATM   27  C13 UNL     1      24.161   4.432  50.651  1.00  0.00     0.118 A 
HETATM   28  F1  UNL     1      24.232   5.194  49.514  1.00  0.00    -0.206 F 
HETATM   29  C14 UNL     1      24.532   3.101  50.658  1.00  0.00     0.071 A 
ENDBRANCH  21  23
ENDBRANCH   8  21
TORSDOF 5
ENDMDL
