MODEL 1
REMARK VINA RESULT:      -6.8      0.000      0.000
REMARK  4 active torsions:
REMARK  status: ('A' for Active; 'I' for Inactive)
REMARK    1  A    between atoms: C2_2  and  N1_3 
REMARK    2  A    between atoms: C2_2  and  N2_4 
REMARK    3  A    between atoms: N2_4  and  C3_5 
REMARK    4  A    between atoms: C6_8  and  C7_9 
ROOT
HETATM    1  C3  UNL     1      24.478   1.569  52.716  1.00  0.00     0.270 C 
HETATM    2  C4  UNL     1      24.381   2.969  53.217  1.00  0.00     0.011 C 
HETATM    3  C5  UNL     1      24.154   4.044  52.439  1.00  0.00     0.014 C 
HETATM    4  C6  UNL     1      23.985   3.846  50.988  1.00  0.00     0.121 C 
HETATM    5  N3  UNL     1      22.811   4.565  50.474  1.00  0.00    -0.362 N 
HETATM    6  C13 UNL     1      22.608   3.905  49.205  1.00  0.00     0.204 C 
HETATM    7  N4  UNL     1      23.095   2.690  49.257  1.00  0.00    -0.246 NA
HETATM    8  C14 UNL     1      23.648   2.485  50.574  1.00  0.00     0.071 C 
HETATM    9  C15 UNL     1      23.875   1.434  51.371  1.00  0.00     0.043 C 
HETATM   10  H15 UNL     1      22.140   5.325  50.703  1.00  0.00     0.162 HD
ENDROOT
BRANCH   1  11
HETATM   11  N2  UNL     1      25.825   1.089  52.745  1.00  0.00     0.128 N 
HETATM   12  H7  UNL     1      25.827   0.069  52.923  1.00  0.00     0.319 HD
BRANCH  11  13
HETATM   13  C2  UNL     1      26.521   1.767  53.846  1.00  0.00     0.446 C 
HETATM   14  C1  UNL     1      27.875   2.281  53.391  1.00  0.00     0.076 C 
BRANCH  13  15
HETATM   15  N1  UNL     1      26.621   0.864  54.951  1.00  0.00     0.111 N 
HETATM   16  H5  UNL     1      26.825   1.283  55.869  1.00  0.00     0.315 HD
HETATM   17  H6  UNL     1      25.810   0.197  54.992  1.00  0.00     0.315 HD
ENDBRANCH  13  15
ENDBRANCH  11  13
ENDBRANCH   1  11
BRANCH   4  18
HETATM   18  C7  UNL     1      25.145   4.352  50.208  1.00  0.00    -0.020 A 
HETATM   19  C8  UNL     1      26.207   3.673  49.648  1.00  0.00     0.012 A 
HETATM   20  C9  UNL     1      27.166   4.389  48.962  1.00  0.00     0.020 A 
HETATM   21  C10 UNL     1      27.102   5.759  48.814  1.00  0.00     0.011 A 
HETATM   22 BR1  UNL     1      28.491   6.661  47.837  1.00  0.00    -0.051 Br
HETATM   23  C11 UNL     1      26.044   6.448  49.369  1.00  0.00     0.020 A 
HETATM   24  C12 UNL     1      25.071   5.743  50.062  1.00  0.00     0.012 A 
ENDBRANCH   4  18
TORSDOF 4
ENDMDL
MODEL 2
REMARK VINA RESULT:      -6.8      3.547      6.393
REMARK  4 active torsions:
REMARK  status: ('A' for Active; 'I' for Inactive)
REMARK    1  A    between atoms: C2_2  and  N1_3 
REMARK    2  A    between atoms: C2_2  and  N2_4 
REMARK    3  A    between atoms: N2_4  and  C3_5 
REMARK    4  A    between atoms: C6_8  and  C7_9 
ROOT
HETATM    1  C3  UNL     1      26.918   2.511  51.945  1.00  0.00     0.270 C 
HETATM    2  C4  UNL     1      26.940   2.468  53.434  1.00  0.00     0.011 C 
HETATM    3  C5  UNL     1      26.603   1.394  54.172  1.00  0.00     0.014 C 
HETATM    4  C6  UNL     1      26.180   0.164  53.479  1.00  0.00     0.121 C 
HETATM    5  N3  UNL     1      26.862  -1.024  54.015  1.00  0.00    -0.362 N 
HETATM    6  C13 UNL     1      26.636  -1.981  52.957  1.00  0.00     0.204 C 
HETATM    7  N4  UNL     1      26.465  -1.350  51.821  1.00  0.00    -0.246 NA
HETATM    8  C14 UNL     1      26.571   0.066  52.074  1.00  0.00     0.071 C 
HETATM    9  C15 UNL     1      26.912   1.149  51.366  1.00  0.00     0.043 C 
HETATM   10  H15 UNL     1      27.403  -1.368  54.832  1.00  0.00     0.162 HD
ENDROOT
BRANCH   1  11
HETATM   11  N2  UNL     1      25.832   3.302  51.455  1.00  0.00     0.128 N 
HETATM   12  H7  UNL     1      24.941   2.947  51.843  1.00  0.00     0.319 HD
BRANCH  11  13
HETATM   13  C2  UNL     1      25.802   3.168  49.993  1.00  0.00     0.446 C 
HETATM   14  C1  UNL     1      26.714   4.192  49.341  1.00  0.00     0.076 C 
BRANCH  13  15
HETATM   15  N1  UNL     1      24.447   3.281  49.549  1.00  0.00     0.111 N 
HETATM   16  H5  UNL     1      24.292   3.806  48.678  1.00  0.00     0.315 HD
HETATM   17  H6  UNL     1      23.953   2.353  49.547  1.00  0.00     0.315 HD
ENDBRANCH  13  15
ENDBRANCH  11  13
ENDBRANCH   1  11
BRANCH   4  18
HETATM   18  C7  UNL     1      24.725  -0.101  53.632  1.00  0.00    -0.020 A 
HETATM   19  C8  UNL     1      24.054  -0.881  54.551  1.00  0.00     0.012 A 
HETATM   20  C9  UNL     1      22.678  -0.960  54.476  1.00  0.00     0.020 A 
HETATM   21  C10 UNL     1      21.950  -0.289  53.516  1.00  0.00     0.011 A 
HETATM   22 BR1  UNL     1      20.035  -0.468  53.500  1.00  0.00    -0.051 Br
HETATM   23  C11 UNL     1      22.611   0.493  52.593  1.00  0.00     0.020 A 
HETATM   24  C12 UNL     1      23.994   0.584  52.654  1.00  0.00     0.012 A 
ENDBRANCH   4  18
TORSDOF 4
ENDMDL
MODEL 3
REMARK VINA RESULT:      -6.5      3.987      5.609
REMARK  4 active torsions:
REMARK  status: ('A' for Active; 'I' for Inactive)
REMARK    1  A    between atoms: C2_2  and  N1_3 
REMARK    2  A    between atoms: C2_2  and  N2_4 
REMARK    3  A    between atoms: N2_4  and  C3_5 
REMARK    4  A    between atoms: C6_8  and  C7_9 
ROOT
HETATM    1  C3  UNL     1      27.179   1.075  53.227  1.00  0.00     0.270 C 
HETATM    2  C4  UNL     1      26.729   0.646  51.873  1.00  0.00     0.011 C 
HETATM    3  C5  UNL     1      25.536   0.956  51.331  1.00  0.00     0.014 C 
HETATM    4  C6  UNL     1      24.594   1.776  52.114  1.00  0.00     0.121 C 
HETATM    5  N3  UNL     1      24.035   2.875  51.314  1.00  0.00    -0.362 N 
HETATM    6  C13 UNL     1      23.520   3.743  52.347  1.00  0.00     0.204 C 
HETATM    7  N4  UNL     1      24.188   3.551  53.458  1.00  0.00    -0.246 NA
HETATM    8  C14 UNL     1      25.186   2.539  53.211  1.00  0.00     0.071 C 
HETATM    9  C15 UNL     1      26.379   2.216  53.725  1.00  0.00     0.043 C 
HETATM   10  H15 UNL     1      23.901   3.201  50.337  1.00  0.00     0.162 HD
ENDROOT
BRANCH   1  11
HETATM   11  N2  UNL     1      27.184  -0.015  54.153  1.00  0.00     0.128 N 
HETATM   12  H7  UNL     1      26.883   0.320  55.085  1.00  0.00     0.319 HD
BRANCH  11  13
HETATM   13  C2  UNL     1      28.560  -0.518  54.248  1.00  0.00     0.446 C 
HETATM   14  C1  UNL     1      29.554   0.552  53.832  1.00  0.00     0.076 C 
BRANCH  13  15
HETATM   15  N1  UNL     1      28.671  -1.705  53.458  1.00  0.00     0.111 N 
HETATM   16  H5  UNL     1      27.979  -2.445  53.642  1.00  0.00     0.315 HD
HETATM   17  H6  UNL     1      28.760  -1.491  52.433  1.00  0.00     0.315 HD
ENDBRANCH  13  15
ENDBRANCH  11  13
ENDBRANCH   1  11
BRANCH   4  18
HETATM   18  C7  UNL     1      23.427   0.992  52.598  1.00  0.00    -0.020 A 
HETATM   19  C8  UNL     1      23.253   0.286  53.770  1.00  0.00     0.012 A 
HETATM   20  C9  UNL     1      22.054  -0.364  53.982  1.00  0.00     0.020 A 
HETATM   21  C10 UNL     1      21.024  -0.335  53.064  1.00  0.00     0.011 A 
HETATM   22 BR1  UNL     1      19.394  -1.276  53.457  1.00  0.00    -0.051 Br
HETATM   23  C11 UNL     1      21.188   0.368  51.890  1.00  0.00     0.020 A 
HETATM   24  C12 UNL     1      22.387   1.028  51.661  1.00  0.00     0.012 A 
ENDBRANCH   4  18
TORSDOF 4
ENDMDL
MODEL 4
REMARK VINA RESULT:      -6.4      3.117      4.602
REMARK  4 active torsions:
REMARK  status: ('A' for Active; 'I' for Inactive)
REMARK    1  A    between atoms: C2_2  and  N1_3 
REMARK    2  A    between atoms: C2_2  and  N2_4 
REMARK    3  A    between atoms: N2_4  and  C3_5 
REMARK    4  A    between atoms: C6_8  and  C7_9 
ROOT
HETATM    1  C3  UNL     1      21.841   1.643  51.374  1.00  0.00     0.270 C 
HETATM    2  C4  UNL     1      22.210   2.378  52.616  1.00  0.00     0.011 C 
HETATM    3  C5  UNL     1      23.410   2.944  52.842  1.00  0.00     0.014 C 
HETATM    4  C6  UNL     1      24.448   2.841  51.799  1.00  0.00     0.121 C 
HETATM    5  N3  UNL     1      25.085   4.140  51.537  1.00  0.00    -0.362 N 
HETATM    6  C13 UNL     1      25.709   3.896  50.258  1.00  0.00     0.204 C 
HETATM    7  N4  UNL     1      25.058   2.953  49.622  1.00  0.00    -0.246 NA
HETATM    8  C14 UNL     1      23.962   2.524  50.457  1.00  0.00     0.071 C 
HETATM    9  C15 UNL     1      22.759   1.971  50.261  1.00  0.00     0.043 C 
HETATM   10  H15 UNL     1      25.222   5.089  51.936  1.00  0.00     0.162 HD
ENDROOT
BRANCH   1  11
HETATM   11  N2  UNL     1      21.759   0.233  51.597  1.00  0.00     0.128 N 
HETATM   12  H7  UNL     1      20.971  -0.160  51.053  1.00  0.00     0.319 HD
BRANCH  11  13
HETATM   13  C2  UNL     1      21.506   0.018  53.027  1.00  0.00     0.446 C 
HETATM   14  C1  UNL     1      22.555  -0.900  53.628  1.00  0.00     0.076 C 
BRANCH  13  15
HETATM   15  N1  UNL     1      20.178  -0.489  53.187  1.00  0.00     0.111 N 
HETATM   16  H5  UNL     1      19.956  -0.914  54.098  1.00  0.00     0.315 HD
HETATM   17  H6  UNL     1      19.450   0.205  52.885  1.00  0.00     0.315 HD
ENDBRANCH  13  15
ENDBRANCH  11  13
ENDBRANCH   1  11
BRANCH   4  18
HETATM   18  C7  UNL     1      25.549   1.919  52.184  1.00  0.00    -0.020 A 
HETATM   19  C8  UNL     1      25.778   0.607  51.825  1.00  0.00     0.012 A 
HETATM   20  C9  UNL     1      26.892  -0.034  52.326  1.00  0.00     0.020 A 
HETATM   21  C10 UNL     1      27.785   0.589  53.174  1.00  0.00     0.011 A 
HETATM   22 BR1  UNL     1      29.307  -0.396  53.816  1.00  0.00    -0.051 Br
HETATM   23  C11 UNL     1      27.566   1.900  53.538  1.00  0.00     0.020 A 
HETATM   24  C12 UNL     1      26.451   2.559  53.042  1.00  0.00     0.012 A 
ENDBRANCH   4  18
TORSDOF 4
ENDMDL
MODEL 5
REMARK VINA RESULT:      -6.4      2.779      5.067
REMARK  4 active torsions:
REMARK  status: ('A' for Active; 'I' for Inactive)
REMARK    1  A    between atoms: C2_2  and  N1_3 
REMARK    2  A    between atoms: C2_2  and  N2_4 
REMARK    3  A    between atoms: N2_4  and  C3_5 
REMARK    4  A    between atoms: C6_8  and  C7_9 
ROOT
HETATM    1  C3  UNL     1      24.590   4.990  50.224  1.00  0.00     0.270 C 
HETATM    2  C4  UNL     1      24.578   3.811  49.312  1.00  0.00     0.011 C 
HETATM    3  C5  UNL     1      24.391   2.539  49.711  1.00  0.00     0.014 C 
HETATM    4  C6  UNL     1      24.183   2.271  51.146  1.00  0.00     0.121 C 
HETATM    5  N3  UNL     1      23.037   1.376  51.371  1.00  0.00    -0.362 N 
HETATM    6  C13 UNL     1      22.774   1.601  52.772  1.00  0.00     0.204 C 
HETATM    7  N4  UNL     1      23.197   2.792  53.116  1.00  0.00    -0.246 NA
HETATM    8  C14 UNL     1      23.765   3.420  51.947  1.00  0.00     0.071 C 
HETATM    9  C15 UNL     1      23.953   4.675  51.522  1.00  0.00     0.043 C 
HETATM   10  H15 UNL     1      22.413   0.697  50.894  1.00  0.00     0.162 HD
ENDROOT
BRANCH   1  11
HETATM   11  N2  UNL     1      25.910   5.514  50.393  1.00  0.00     0.128 N 
HETATM   12  H7  UNL     1      26.074   5.725  51.393  1.00  0.00     0.319 HD
BRANCH  11  13
HETATM   13  C2  UNL     1      26.002   6.760  49.622  1.00  0.00     0.446 C 
HETATM   14  C1  UNL     1      26.938   6.592  48.439  1.00  0.00     0.076 C 
BRANCH  13  15
HETATM   15  N1  UNL     1      26.410   7.814  50.499  1.00  0.00     0.111 N 
HETATM   16  H5  UNL     1      25.799   8.001  51.306  1.00  0.00     0.315 HD
HETATM   17  H6  UNL     1      27.420   7.729  50.776  1.00  0.00     0.315 HD
ENDBRANCH  13  15
ENDBRANCH  11  13
ENDBRANCH   1  11
BRANCH   4  18
HETATM   18  C7  UNL     1      25.351   1.598  51.773  1.00  0.00    -0.020 A 
HETATM   19  C8  UNL     1      25.542   0.274  52.107  1.00  0.00     0.012 A 
HETATM   20  C9  UNL     1      26.737  -0.099  52.687  1.00  0.00     0.020 A 
HETATM   21  C10 UNL     1      27.748   0.804  52.945  1.00  0.00     0.011 A 
HETATM   22 BR1  UNL     1      29.375   0.180  53.757  1.00  0.00    -0.051 Br
HETATM   23  C11 UNL     1      27.567   2.130  52.614  1.00  0.00     0.020 A 
HETATM   24  C12 UNL     1      26.371   2.521  52.031  1.00  0.00     0.012 A 
ENDBRANCH   4  18
TORSDOF 4
ENDMDL
MODEL 6
REMARK VINA RESULT:      -6.3      6.069      8.481
REMARK  4 active torsions:
REMARK  status: ('A' for Active; 'I' for Inactive)
REMARK    1  A    between atoms: C2_2  and  N1_3 
REMARK    2  A    between atoms: C2_2  and  N2_4 
REMARK    3  A    between atoms: N2_4  and  C3_5 
REMARK    4  A    between atoms: C6_8  and  C7_9 
ROOT
HETATM    1  C3  UNL     1      33.138   5.922  46.646  1.00  0.00     0.270 C 
HETATM    2  C4  UNL     1      32.261   6.639  45.679  1.00  0.00     0.011 C 
HETATM    3  C5  UNL     1      31.221   7.422  46.024  1.00  0.00     0.014 C 
HETATM    4  C6  UNL     1      30.911   7.595  47.455  1.00  0.00     0.121 C 
HETATM    5  N3  UNL     1      30.704   9.010  47.798  1.00  0.00    -0.362 N 
HETATM    6  C13 UNL     1      30.845   8.976  49.235  1.00  0.00     0.204 C 
HETATM    7  N4  UNL     1      31.599   7.961  49.580  1.00  0.00    -0.246 NA
HETATM    8  C14 UNL     1      31.996   7.269  48.378  1.00  0.00     0.071 C 
HETATM    9  C15 UNL     1      33.024   6.497  48.006  1.00  0.00     0.043 C 
HETATM   10  H15 UNL     1      30.506   9.941  47.382  1.00  0.00     0.162 HD
ENDROOT
BRANCH   1  11
HETATM   11  N2  UNL     1      32.890   4.514  46.643  1.00  0.00     0.128 N 
HETATM   12  H7  UNL     1      32.063   4.305  47.229  1.00  0.00     0.319 HD
BRANCH  11  13
HETATM   13  C2  UNL     1      34.064   3.848  47.220  1.00  0.00     0.446 C 
HETATM   14  C1  UNL     1      34.987   3.342  46.127  1.00  0.00     0.076 C 
BRANCH  13  15
HETATM   15  N1  UNL     1      33.618   2.803  48.089  1.00  0.00     0.111 N 
HETATM   16  H5  UNL     1      33.586   3.024  49.094  1.00  0.00     0.315 HD
HETATM   17  H6  UNL     1      32.727   2.361  47.751  1.00  0.00     0.315 HD
ENDBRANCH  13  15
ENDBRANCH  11  13
ENDBRANCH   1  11
BRANCH   4  18
HETATM   18  C7  UNL     1      29.663   6.894  47.854  1.00  0.00    -0.020 A 
HETATM   19  C8  UNL     1      29.467   5.596  48.277  1.00  0.00     0.012 A 
HETATM   20  C9  UNL     1      28.187   5.186  48.593  1.00  0.00     0.020 A 
HETATM   21  C10 UNL     1      27.097   6.027  48.501  1.00  0.00     0.011 A 
HETATM   22 BR1  UNL     1      25.357   5.355  48.966  1.00  0.00    -0.051 Br
HETATM   23  C11 UNL     1      27.282   7.327  48.080  1.00  0.00     0.020 A 
HETATM   24  C12 UNL     1      28.562   7.754  47.758  1.00  0.00     0.012 A 
ENDBRANCH   4  18
TORSDOF 4
ENDMDL
MODEL 7
REMARK VINA RESULT:      -6.3      3.642      5.554
REMARK  4 active torsions:
REMARK  status: ('A' for Active; 'I' for Inactive)
REMARK    1  A    between atoms: C2_2  and  N1_3 
REMARK    2  A    between atoms: C2_2  and  N2_4 
REMARK    3  A    between atoms: N2_4  and  C3_5 
REMARK    4  A    between atoms: C6_8  and  C7_9 
ROOT
HETATM    1  C3  UNL     1      22.597   5.236  49.586  1.00  0.00     0.270 C 
HETATM    2  C4  UNL     1      22.801   3.898  48.964  1.00  0.00     0.011 C 
HETATM    3  C5  UNL     1      22.613   2.725  49.596  1.00  0.00     0.014 C 
HETATM    4  C6  UNL     1      22.175   2.742  51.004  1.00  0.00     0.121 C 
HETATM    5  N3  UNL     1      21.055   1.817  51.235  1.00  0.00    -0.362 N 
HETATM    6  C13 UNL     1      20.543   2.303  52.495  1.00  0.00     0.204 C 
HETATM    7  N4  UNL     1      20.840   3.572  52.632  1.00  0.00    -0.246 NA
HETATM    8  C14 UNL     1      21.568   3.991  51.459  1.00  0.00     0.071 C 
HETATM    9  C15 UNL     1      21.762   5.143  50.805  1.00  0.00     0.043 C 
HETATM   10  H15 UNL     1      20.557   1.003  50.826  1.00  0.00     0.162 HD
ENDROOT
BRANCH   1  11
HETATM   11  N2  UNL     1      23.839   5.896  49.842  1.00  0.00     0.128 N 
HETATM   12  H7  UNL     1      24.478   5.252  50.340  1.00  0.00     0.319 HD
BRANCH  11  13
HETATM   13  C2  UNL     1      23.565   7.054  50.701  1.00  0.00     0.446 C 
HETATM   14  C1  UNL     1      23.649   8.345  49.906  1.00  0.00     0.076 C 
BRANCH  13  15
HETATM   15  N1  UNL     1      24.474   7.032  51.806  1.00  0.00     0.111 N 
HETATM   16  H5  UNL     1      24.168   7.518  52.661  1.00  0.00     0.315 HD
HETATM   17  H6  UNL     1      24.830   6.064  52.006  1.00  0.00     0.315 HD
ENDBRANCH  13  15
ENDBRANCH  11  13
ENDBRANCH   1  11
BRANCH   4  18
HETATM   18  C7  UNL     1      23.250   2.317  51.938  1.00  0.00    -0.020 A 
HETATM   19  C8  UNL     1      24.138   3.072  52.677  1.00  0.00     0.012 A 
HETATM   20  C9  UNL     1      25.053   2.424  53.481  1.00  0.00     0.020 A 
HETATM   21  C10 UNL     1      25.112   1.049  53.573  1.00  0.00     0.011 A 
HETATM   22 BR1  UNL     1      26.426   0.245  54.725  1.00  0.00    -0.051 Br
HETATM   23  C11 UNL     1      24.229   0.285  52.840  1.00  0.00     0.020 A 
HETATM   24  C12 UNL     1      23.304   0.921  52.027  1.00  0.00     0.012 A 
ENDBRANCH   4  18
TORSDOF 4
ENDMDL
MODEL 8
REMARK VINA RESULT:      -6.3      4.740      6.485
REMARK  4 active torsions:
REMARK  status: ('A' for Active; 'I' for Inactive)
REMARK    1  A    between atoms: C2_2  and  N1_3 
REMARK    2  A    between atoms: C2_2  and  N2_4 
REMARK    3  A    between atoms: N2_4  and  C3_5 
REMARK    4  A    between atoms: C6_8  and  C7_9 
ROOT
HETATM    1  C3  UNL     1      23.758   2.670  51.681  1.00  0.00     0.270 C 
HETATM    2  C4  UNL     1      23.277   1.959  50.463  1.00  0.00     0.011 C 
HETATM    3  C5  UNL     1      21.983   1.731  50.172  1.00  0.00     0.014 C 
HETATM    4  C6  UNL     1      20.951   2.208  51.112  1.00  0.00     0.121 C 
HETATM    5  N3  UNL     1      19.869   2.919  50.415  1.00  0.00    -0.362 N 
HETATM    6  C13 UNL     1      19.249   3.630  51.508  1.00  0.00     0.204 C 
HETATM    7  N4  UNL     1      20.126   3.828  52.461  1.00  0.00    -0.246 NA
HETATM    8  C14 UNL     1      21.381   3.252  52.040  1.00  0.00     0.071 C 
HETATM    9  C15 UNL     1      22.676   3.466  52.303  1.00  0.00     0.043 C 
HETATM   10  H15 UNL     1      19.443   3.062  49.479  1.00  0.00     0.162 HD
ENDROOT
BRANCH   1  11
HETATM   11  N2  UNL     1      24.360   1.770  52.615  1.00  0.00     0.128 N 
HETATM   12  H7  UNL     1      24.005   1.969  53.567  1.00  0.00     0.319 HD
BRANCH  11  13
HETATM   13  C2  UNL     1      25.810   1.998  52.589  1.00  0.00     0.446 C 
HETATM   14  C1  UNL     1      26.546   0.734  52.182  1.00  0.00     0.076 C 
BRANCH  13  15
HETATM   15  N1  UNL     1      26.222   2.484  53.870  1.00  0.00     0.111 N 
HETATM   16  H5  UNL     1      27.214   2.352  54.113  1.00  0.00     0.315 HD
HETATM   17  H6  UNL     1      25.899   3.468  54.042  1.00  0.00     0.315 HD
ENDBRANCH  13  15
ENDBRANCH  11  13
ENDBRANCH   1  11
BRANCH   4  18
HETATM   18  C7  UNL     1      20.297   1.096  51.849  1.00  0.00    -0.020 A 
HETATM   19  C8  UNL     1      20.627   0.511  53.055  1.00  0.00     0.012 A 
HETATM   20  C9  UNL     1      19.843  -0.522  53.528  1.00  0.00     0.020 A 
HETATM   21  C10 UNL     1      18.743  -0.991  52.840  1.00  0.00     0.011 A 
HETATM   22 BR1  UNL     1      17.719  -2.436  53.589  1.00  0.00    -0.051 Br
HETATM   23  C11 UNL     1      18.405  -0.413  51.635  1.00  0.00     0.020 A 
HETATM   24  C12 UNL     1      19.182   0.626  51.145  1.00  0.00     0.012 A 
ENDBRANCH   4  18
TORSDOF 4
ENDMDL
MODEL 9
REMARK VINA RESULT:      -6.2      3.665      5.185
REMARK  4 active torsions:
REMARK  status: ('A' for Active; 'I' for Inactive)
REMARK    1  A    between atoms: C2_2  and  N1_3 
REMARK    2  A    between atoms: C2_2  and  N2_4 
REMARK    3  A    between atoms: N2_4  and  C3_5 
REMARK    4  A    between atoms: C6_8  and  C7_9 
ROOT
HETATM    1  C3  UNL     1      20.315   0.731  51.594  1.00  0.00     0.270 C 
HETATM    2  C4  UNL     1      20.310   1.879  52.543  1.00  0.00     0.011 C 
HETATM    3  C5  UNL     1      21.288   2.800  52.635  1.00  0.00     0.014 C 
HETATM    4  C6  UNL     1      22.455   2.683  51.743  1.00  0.00     0.121 C 
HETATM    5  N3  UNL     1      22.781   3.966  51.103  1.00  0.00    -0.362 N 
HETATM    6  C13 UNL     1      23.621   3.533  50.011  1.00  0.00     0.204 C 
HETATM    7  N4  UNL     1      23.322   2.299  49.687  1.00  0.00    -0.246 NA
HETATM    8  C14 UNL     1      22.260   1.853  50.556  1.00  0.00     0.071 C 
HETATM    9  C15 UNL     1      21.272   0.952  50.486  1.00  0.00     0.043 C 
HETATM   10  H15 UNL     1      22.619   4.990  51.174  1.00  0.00     0.162 HD
ENDROOT
BRANCH   1  11
HETATM   11  N2  UNL     1      20.556  -0.509  52.264  1.00  0.00     0.128 N 
HETATM   12  H7  UNL     1      20.012  -1.262  51.807  1.00  0.00     0.319 HD
BRANCH  11  13
HETATM   13  C2  UNL     1      20.099  -0.366  53.652  1.00  0.00     0.446 C 
HETATM   14  C1  UNL     1      21.180  -0.807  54.622  1.00  0.00     0.076 C 
BRANCH  13  15
HETATM   15  N1  UNL     1      18.884  -1.104  53.814  1.00  0.00     0.111 N 
HETATM   16  H5  UNL     1      18.189  -0.707  54.462  1.00  0.00     0.315 HD
HETATM   17  H6  UNL     1      18.458  -1.372  52.891  1.00  0.00     0.315 HD
ENDBRANCH  13  15
ENDBRANCH  11  13
ENDBRANCH   1  11
BRANCH   4  18
HETATM   18  C7  UNL     1      23.685   2.269  52.468  1.00  0.00    -0.020 A 
HETATM   19  C8  UNL     1      24.642   3.031  53.106  1.00  0.00     0.012 A 
HETATM   20  C9  UNL     1      25.703   2.392  53.714  1.00  0.00     0.020 A 
HETATM   21  C10 UNL     1      25.841   1.020  53.709  1.00  0.00     0.011 A 
HETATM   22 BR1  UNL     1      27.358   0.230  54.588  1.00  0.00    -0.051 Br
HETATM   23  C11 UNL     1      24.890   0.249  53.075  1.00  0.00     0.020 A 
HETATM   24  C12 UNL     1      23.818   0.875  52.458  1.00  0.00     0.012 A 
ENDBRANCH   4  18
TORSDOF 4
ENDMDL
