MODEL 1
REMARK VINA RESULT:      -7.3      0.000      0.000
REMARK  2 active torsions:
REMARK  status: ('A' for Active; 'I' for Inactive)
REMARK    1  A    between atoms: C2_2  and  C3_3 
REMARK    2  A    between atoms: N1_4  and  C4_5 
ROOT
HETATM    1  C4  UNL     1      24.628   5.458  50.543  1.00  0.00     0.068 C 
HETATM    2  C5  UNL     1      24.463   4.307  51.183  1.00  0.00     0.088 C 
HETATM    3  O1  UNL     1      23.184   4.042  51.923  1.00  0.00    -0.295 OA
HETATM    4  C6  UNL     1      22.339   2.908  51.549  1.00  0.00     0.165 C 
HETATM    5  N2  UNL     1      22.045   2.628  50.272  1.00  0.00    -0.264 NA
HETATM    6  C7  UNL     1      22.917   2.528  49.068  1.00  0.00     0.185 C 
HETATM    7  C8  UNL     1      24.206   3.342  49.278  1.00  0.00    -0.058 C 
HETATM    8  C9  UNL     1      25.496   2.925  49.600  1.00  0.00    -0.010 C 
HETATM    9  C10 UNL     1      25.667   3.309  51.081  1.00  0.00     0.070 C 
HETATM   10  C11 UNL     1      25.205   2.060  51.756  1.00  0.00     0.052 C 
HETATM   11  C12 UNL     1      25.963   1.062  52.446  1.00  0.00     0.153 C 
HETATM   12  O2  UNL     1      26.646   0.122  51.684  1.00  0.00    -0.381 OA
HETATM   13  C13 UNL     1      26.605  -1.070  52.410  1.00  0.00     0.173 C 
HETATM   14  C14 UNL     1      25.862  -0.736  53.694  1.00  0.00     0.065 C 
HETATM   15  C15 UNL     1      24.875   0.242  53.143  1.00  0.00    -0.027 C 
HETATM   16  C16 UNL     1      23.530   0.271  53.290  1.00  0.00     0.140 C 
HETATM   17  O3  UNL     1      22.649   1.057  52.859  1.00  0.00    -0.355 OA
HETATM   18  C17 UNL     1      21.642   1.849  52.437  1.00  0.00     0.260 C 
HETATM   19  C18 UNL     1      24.239   4.885  49.192  1.00  0.00     0.097 C 
ENDROOT
BRANCH   1  20
HETATM   20  N1  UNL     1      24.925   6.837  50.352  1.00  0.00    -0.266 NA
HETATM   21  C3  UNL     1      24.131   7.818  50.565  1.00  0.00     0.095 C 
BRANCH  21  22
HETATM   22  C2  UNL     1      25.243   8.598  50.128  1.00  0.00     0.035 C 
HETATM   23  C1  UNL     1      26.505   8.870  50.063  1.00  0.00     0.011 C 
ENDBRANCH  21  22
ENDBRANCH   1  20
TORSDOF 2
ENDMDL
MODEL 2
REMARK VINA RESULT:      -7.2      2.198      2.628
REMARK  2 active torsions:
REMARK  status: ('A' for Active; 'I' for Inactive)
REMARK    1  A    between atoms: C2_2  and  C3_3 
REMARK    2  A    between atoms: N1_4  and  C4_5 
ROOT
HETATM    1  C4  UNL     1      21.772   4.383  51.108  1.00  0.00     0.068 C 
HETATM    2  C5  UNL     1      22.058   3.272  51.775  1.00  0.00     0.088 C 
HETATM    3  O1  UNL     1      20.974   2.550  52.522  1.00  0.00    -0.295 OA
HETATM    4  C6  UNL     1      20.634   1.171  52.175  1.00  0.00     0.165 C 
HETATM    5  N2  UNL     1      20.480   0.772  50.905  1.00  0.00    -0.264 NA
HETATM    6  C7  UNL     1      21.332   0.990  49.702  1.00  0.00     0.185 C 
HETATM    7  C8  UNL     1      22.206   2.243  49.892  1.00  0.00    -0.058 C 
HETATM    8  C9  UNL     1      23.555   2.361  50.221  1.00  0.00    -0.010 C 
HETATM    9  C10 UNL     1      23.554   2.812  51.693  1.00  0.00     0.070 C 
HETATM   10  C11 UNL     1      23.604   1.496  52.396  1.00  0.00     0.052 C 
HETATM   11  C12 UNL     1      24.683   0.882  53.107  1.00  0.00     0.153 C 
HETATM   12  O2  UNL     1      25.680   0.261  52.366  1.00  0.00    -0.381 OA
HETATM   13  C13 UNL     1      26.097  -0.838  53.118  1.00  0.00     0.173 C 
HETATM   14  C14 UNL     1      25.273  -0.789  54.395  1.00  0.00     0.065 C 
HETATM   15  C15 UNL     1      23.989  -0.279  53.824  1.00  0.00    -0.027 C 
HETATM   16  C16 UNL     1      22.736  -0.767  53.972  1.00  0.00     0.140 C 
HETATM   17  O3  UNL     1      21.624  -0.390  53.525  1.00  0.00    -0.355 OA
HETATM   18  C17 UNL     1      20.392  -0.056  53.087  1.00  0.00     0.260 C 
HETATM   19  C18 UNL     1      21.644   3.677  49.771  1.00  0.00     0.097 C 
ENDROOT
BRANCH   1  20
HETATM   20  N1  UNL     1      21.516   5.766  50.887  1.00  0.00    -0.266 NA
HETATM   21  C3  UNL     1      22.394   6.694  50.807  1.00  0.00     0.095 C 
BRANCH  21  22
HETATM   22  C2  UNL     1      21.253   7.529  50.609  1.00  0.00     0.035 C 
HETATM   23  C1  UNL     1      20.462   8.243  49.879  1.00  0.00     0.011 C 
ENDBRANCH  21  22
ENDBRANCH   1  20
TORSDOF 2
ENDMDL
MODEL 3
REMARK VINA RESULT:      -6.9      2.517      5.594
REMARK  2 active torsions:
REMARK  status: ('A' for Active; 'I' for Inactive)
REMARK    1  A    between atoms: C2_2  and  C3_3 
REMARK    2  A    between atoms: N1_4  and  C4_5 
ROOT
HETATM    1  C4  UNL     1      20.628   1.221  50.958  1.00  0.00     0.068 C 
HETATM    2  C5  UNL     1      21.952   1.305  51.005  1.00  0.00     0.088 C 
HETATM    3  O1  UNL     1      22.698   1.961  49.880  1.00  0.00    -0.295 OA
HETATM    4  C6  UNL     1      23.524   3.141  50.134  1.00  0.00     0.165 C 
HETATM    5  N2  UNL     1      23.095   4.163  50.886  1.00  0.00    -0.264 NA
HETATM    6  C7  UNL     1      22.441   4.186  52.225  1.00  0.00     0.185 C 
HETATM    7  C8  UNL     1      21.750   2.838  52.499  1.00  0.00    -0.058 C 
HETATM    8  C9  UNL     1      22.148   1.764  53.293  1.00  0.00    -0.010 C 
HETATM    9  C10 UNL     1      22.613   0.695  52.288  1.00  0.00     0.070 C 
HETATM   10  C11 UNL     1      24.066   1.017  52.178  1.00  0.00     0.052 C 
HETATM   11  C12 UNL     1      25.200   0.311  52.691  1.00  0.00     0.153 C 
HETATM   12  O2  UNL     1      25.506   0.462  54.037  1.00  0.00    -0.381 OA
HETATM   13  C13 UNL     1      26.898   0.412  54.128  1.00  0.00     0.173 C 
HETATM   14  C14 UNL     1      27.386   0.180  52.706  1.00  0.00     0.065 C 
HETATM   15  C15 UNL     1      26.368   0.993  51.975  1.00  0.00    -0.027 C 
HETATM   16  C16 UNL     1      26.554   1.954  51.040  1.00  0.00     0.140 C 
HETATM   17  O3  UNL     1      25.749   2.669  50.391  1.00  0.00    -0.355 OA
HETATM   18  C17 UNL     1      24.958   3.476  49.655  1.00  0.00     0.260 C 
HETATM   19  C18 UNL     1      20.413   2.439  51.837  1.00  0.00     0.097 C 
ENDROOT
BRANCH   1  20
HETATM   20  N1  UNL     1      19.345   0.719  50.602  1.00  0.00    -0.266 NA
HETATM   21  C3  UNL     1      18.605  -0.043  51.316  1.00  0.00     0.095 C 
BRANCH  21  22
HETATM   22  C2  UNL     1      17.716   0.053  50.204  1.00  0.00     0.035 C 
HETATM   23  C1  UNL     1      16.644  -0.264  49.556  1.00  0.00     0.011 C 
ENDBRANCH  21  22
ENDBRANCH   1  20
TORSDOF 2
ENDMDL
MODEL 4
REMARK VINA RESULT:      -6.8      1.851      2.329
REMARK  2 active torsions:
REMARK  status: ('A' for Active; 'I' for Inactive)
REMARK    1  A    between atoms: C2_2  and  C3_3 
REMARK    2  A    between atoms: N1_4  and  C4_5 
ROOT
HETATM    1  C4  UNL     1      24.256   5.524  50.530  1.00  0.00     0.068 C 
HETATM    2  C5  UNL     1      23.461   4.656  51.145  1.00  0.00     0.088 C 
HETATM    3  O1  UNL     1      22.051   5.045  51.484  1.00  0.00    -0.295 OA
HETATM    4  C6  UNL     1      20.927   4.292  50.928  1.00  0.00     0.165 C 
HETATM    5  N2  UNL     1      20.872   3.941  49.636  1.00  0.00    -0.264 NA
HETATM    6  C7  UNL     1      21.888   3.306  48.751  1.00  0.00     0.185 C 
HETATM    7  C8  UNL     1      23.303   3.568  49.297  1.00  0.00    -0.058 C 
HETATM    8  C9  UNL     1      24.167   2.735  50.006  1.00  0.00    -0.010 C 
HETATM    9  C10 UNL     1      24.108   3.262  51.451  1.00  0.00     0.070 C 
HETATM   10  C11 UNL     1      23.006   2.428  52.016  1.00  0.00     0.052 C 
HETATM   11  C12 UNL     1      23.068   1.342  52.946  1.00  0.00     0.153 C 
HETATM   12  O2  UNL     1      23.451   0.096  52.465  1.00  0.00    -0.381 OA
HETATM   13  C13 UNL     1      22.726  -0.843  53.201  1.00  0.00     0.173 C 
HETATM   14  C14 UNL     1      21.902  -0.033  54.190  1.00  0.00     0.065 C 
HETATM   15  C15 UNL     1      21.598   1.148  53.326  1.00  0.00    -0.027 C 
HETATM   16  C16 UNL     1      20.404   1.729  53.065  1.00  0.00     0.140 C 
HETATM   17  O3  UNL     1      20.081   2.715  52.356  1.00  0.00    -0.355 OA
HETATM   18  C17 UNL     1      19.648   3.758  51.618  1.00  0.00     0.260 C 
HETATM   19  C18 UNL     1      24.011   4.934  49.153  1.00  0.00     0.097 C 
ENDROOT
BRANCH   1  20
HETATM   20  N1  UNL     1      25.149   6.621  50.372  1.00  0.00    -0.266 NA
HETATM   21  C3  UNL     1      26.023   6.757  49.448  1.00  0.00     0.095 C 
BRANCH  21  22
HETATM   22  C2  UNL     1      26.305   7.983  50.122  1.00  0.00     0.035 C 
HETATM   23  C1  UNL     1      26.894   9.127  50.233  1.00  0.00     0.011 C 
ENDBRANCH  21  22
ENDBRANCH   1  20
TORSDOF 2
ENDMDL
MODEL 5
REMARK VINA RESULT:      -6.7      2.174      4.614
REMARK  2 active torsions:
REMARK  status: ('A' for Active; 'I' for Inactive)
REMARK    1  A    between atoms: C2_2  and  C3_3 
REMARK    2  A    between atoms: N1_4  and  C4_5 
ROOT
HETATM    1  C4  UNL     1      21.399   3.091  49.581  1.00  0.00     0.068 C 
HETATM    2  C5  UNL     1      22.577   2.668  50.023  1.00  0.00     0.088 C 
HETATM    3  O1  UNL     1      23.833   3.081  49.313  1.00  0.00    -0.295 OA
HETATM    4  C6  UNL     1      24.863   3.841  50.020  1.00  0.00     0.165 C 
HETATM    5  N2  UNL     1      24.567   4.888  50.801  1.00  0.00    -0.264 NA
HETATM    6  C7  UNL     1      23.543   5.051  51.872  1.00  0.00     0.185 C 
HETATM    7  C8  UNL     1      22.397   4.045  51.666  1.00  0.00    -0.058 C 
HETATM    8  C9  UNL     1      22.124   2.842  52.315  1.00  0.00    -0.010 C 
HETATM    9  C10 UNL     1      22.522   1.757  51.298  1.00  0.00     0.070 C 
HETATM   10  C11 UNL     1      23.946   1.518  51.677  1.00  0.00     0.052 C 
HETATM   11  C12 UNL     1      24.538   0.400  52.346  1.00  0.00     0.153 C 
HETATM   12  O2  UNL     1      24.400   0.322  53.726  1.00  0.00    -0.381 OA
HETATM   13  C13 UNL     1      25.579  -0.254  54.202  1.00  0.00     0.173 C 
HETATM   14  C14 UNL     1      26.416  -0.542  52.965  1.00  0.00     0.065 C 
HETATM   15  C15 UNL     1      26.035   0.648  52.145  1.00  0.00    -0.027 C 
HETATM   16  C16 UNL     1      26.833   1.538  51.510  1.00  0.00     0.140 C 
HETATM   17  O3  UNL     1      26.581   2.550  50.810  1.00  0.00    -0.355 OA
HETATM   18  C17 UNL     1      26.399   3.650  50.050  1.00  0.00     0.260 C 
HETATM   19  C18 UNL     1      21.313   4.229  50.581  1.00  0.00     0.097 C 
ENDROOT
BRANCH   1  20
HETATM   20  N1  UNL     1      20.225   3.137  48.779  1.00  0.00    -0.266 NA
HETATM   21  C3  UNL     1      20.169   2.981  47.510  1.00  0.00     0.095 C 
BRANCH  21  22
HETATM   22  C2  UNL     1      18.771   3.185  47.712  1.00  0.00     0.035 C 
HETATM   23  C1  UNL     1      17.671   3.045  48.375  1.00  0.00     0.011 C 
ENDBRANCH  21  22
ENDBRANCH   1  20
TORSDOF 2
ENDMDL
MODEL 6
REMARK VINA RESULT:      -6.6      3.128      6.858
REMARK  2 active torsions:
REMARK  status: ('A' for Active; 'I' for Inactive)
REMARK    1  A    between atoms: C2_2  and  C3_3 
REMARK    2  A    between atoms: N1_4  and  C4_5 
ROOT
HETATM    1  C4  UNL     1      21.819   0.725  52.565  1.00  0.00     0.068 C 
HETATM    2  C5  UNL     1      22.109   1.687  51.698  1.00  0.00     0.088 C 
HETATM    3  O1  UNL     1      22.691   1.335  50.360  1.00  0.00    -0.295 OA
HETATM    4  C6  UNL     1      21.983   1.693  49.131  1.00  0.00     0.165 C 
HETATM    5  N2  UNL     1      20.667   1.490  48.982  1.00  0.00    -0.264 NA
HETATM    6  C7  UNL     1      19.520   1.810  49.877  1.00  0.00     0.185 C 
HETATM    7  C8  UNL     1      20.002   1.924  51.335  1.00  0.00    -0.058 C 
HETATM    8  C9  UNL     1      20.250   3.048  52.119  1.00  0.00    -0.010 C 
HETATM    9  C10 UNL     1      21.785   3.141  52.184  1.00  0.00     0.070 C 
HETATM   10  C11 UNL     1      22.069   4.023  51.013  1.00  0.00     0.052 C 
HETATM   11  C12 UNL     1      22.487   5.391  50.981  1.00  0.00     0.153 C 
HETATM   12  O2  UNL     1      21.525   6.370  51.191  1.00  0.00    -0.381 OA
HETATM   13  C13 UNL     1      21.890   7.453  50.389  1.00  0.00     0.173 C 
HETATM   14  C14 UNL     1      23.185   7.033  49.709  1.00  0.00     0.065 C 
HETATM   15  C15 UNL     1      22.884   5.582  49.515  1.00  0.00    -0.027 C 
HETATM   16  C16 UNL     1      22.976   4.835  48.390  1.00  0.00     0.140 C 
HETATM   17  O3  UNL     1      22.742   3.621  48.160  1.00  0.00    -0.355 OA
HETATM   18  C17 UNL     1      22.513   2.334  47.826  1.00  0.00     0.260 C 
HETATM   19  C18 UNL     1      20.347   0.688  52.195  1.00  0.00     0.097 C 
ENDROOT
BRANCH   1  20
HETATM   20  N1  UNL     1      22.029  -0.254  53.577  1.00  0.00    -0.266 NA
HETATM   21  C3  UNL     1      21.132  -0.990  54.117  1.00  0.00     0.095 C 
BRANCH  21  22
HETATM   22  C2  UNL     1      22.235  -1.506  54.860  1.00  0.00     0.035 C 
HETATM   23  C1  UNL     1      23.324  -1.378  55.543  1.00  0.00     0.011 C 
ENDBRANCH  21  22
ENDBRANCH   1  20
TORSDOF 2
ENDMDL
MODEL 7
REMARK VINA RESULT:      -6.6      2.941      6.198
REMARK  2 active torsions:
REMARK  status: ('A' for Active; 'I' for Inactive)
REMARK    1  A    between atoms: C2_2  and  C3_3 
REMARK    2  A    between atoms: N1_4  and  C4_5 
ROOT
HETATM    1  C4  UNL     1      23.983   1.238  51.886  1.00  0.00     0.068 C 
HETATM    2  C5  UNL     1      23.192   1.611  50.887  1.00  0.00     0.088 C 
HETATM    3  O1  UNL     1      21.899   0.886  50.648  1.00  0.00    -0.295 OA
HETATM    4  C6  UNL     1      20.628   1.607  50.717  1.00  0.00     0.165 C 
HETATM    5  N2  UNL     1      20.347   2.464  51.708  1.00  0.00    -0.264 NA
HETATM    6  C7  UNL     1      21.146   3.577  52.294  1.00  0.00     0.185 C 
HETATM    7  C8  UNL     1      22.646   3.345  52.036  1.00  0.00    -0.058 C 
HETATM    8  C9  UNL     1      23.502   3.923  51.101  1.00  0.00    -0.010 C 
HETATM    9  C10 UNL     1      23.713   2.824  50.043  1.00  0.00     0.070 C 
HETATM   10  C11 UNL     1      22.617   3.138  49.080  1.00  0.00     0.052 C 
HETATM   11  C12 UNL     1      22.688   3.712  47.772  1.00  0.00     0.153 C 
HETATM   12  O2  UNL     1      22.853   5.088  47.673  1.00  0.00    -0.381 OA
HETATM   13  C13 UNL     1      22.140   5.486  46.541  1.00  0.00     0.173 C 
HETATM   14  C14 UNL     1      21.565   4.205  45.956  1.00  0.00     0.065 C 
HETATM   15  C15 UNL     1      21.276   3.478  47.230  1.00  0.00    -0.027 C 
HETATM   16  C16 UNL     1      20.130   2.876  47.627  1.00  0.00     0.140 C 
HETATM   17  O3  UNL     1      19.823   2.252  48.674  1.00  0.00    -0.355 OA
HETATM   18  C17 UNL     1      19.410   1.572  49.763  1.00  0.00     0.260 C 
HETATM   19  C18 UNL     1      23.476   2.312  52.831  1.00  0.00     0.097 C 
ENDROOT
BRANCH   1  20
HETATM   20  N1  UNL     1      24.963   0.480  52.587  1.00  0.00    -0.266 NA
HETATM   21  C3  UNL     1      24.769  -0.214  53.645  1.00  0.00     0.095 C 
BRANCH  21  22
HETATM   22  C2  UNL     1      26.162  -0.496  53.517  1.00  0.00     0.035 C 
HETATM   23  C1  UNL     1      27.225  -0.758  52.833  1.00  0.00     0.011 C 
ENDBRANCH  21  22
ENDBRANCH   1  20
TORSDOF 2
ENDMDL
MODEL 8
REMARK VINA RESULT:      -6.6      6.876      9.485
REMARK  2 active torsions:
REMARK  status: ('A' for Active; 'I' for Inactive)
REMARK    1  A    between atoms: C2_2  and  C3_3 
REMARK    2  A    between atoms: N1_4  and  C4_5 
ROOT
HETATM    1  C4  UNL     1      29.134   7.880  48.582  1.00  0.00     0.068 C 
HETATM    2  C5  UNL     1      30.014   7.232  47.829  1.00  0.00     0.088 C 
HETATM    3  O1  UNL     1      30.037   7.459  46.346  1.00  0.00    -0.295 OA
HETATM    4  C6  UNL     1      31.240   7.983  45.700  1.00  0.00     0.165 C 
HETATM    5  N2  UNL     1      31.925   9.019  46.202  1.00  0.00    -0.264 NA
HETATM    6  C7  UNL     1      32.403   9.297  47.586  1.00  0.00     0.185 C 
HETATM    7  C8  UNL     1      31.551   8.521  48.606  1.00  0.00    -0.058 C 
HETATM    8  C9  UNL     1      31.826   7.349  49.309  1.00  0.00    -0.010 C 
HETATM    9  C10 UNL     1      30.978   6.272  48.608  1.00  0.00     0.070 C 
HETATM   10  C11 UNL     1      31.943   5.765  47.588  1.00  0.00     0.052 C 
HETATM   11  C12 UNL     1      32.653   4.524  47.541  1.00  0.00     0.153 C 
HETATM   12  O2  UNL     1      33.782   4.390  48.338  1.00  0.00    -0.381 OA
HETATM   13  C13 UNL     1      34.672   3.590  47.619  1.00  0.00     0.173 C 
HETATM   14  C14 UNL     1      33.945   3.232  46.332  1.00  0.00     0.065 C 
HETATM   15  C15 UNL     1      33.211   4.516  46.116  1.00  0.00    -0.027 C 
HETATM   16  C16 UNL     1      33.151   5.287  45.005  1.00  0.00     0.140 C 
HETATM   17  O3  UNL     1      32.558   6.367  44.757  1.00  0.00    -0.355 OA
HETATM   18  C17 UNL     1      31.958   7.524  44.408  1.00  0.00     0.260 C 
HETATM   19  C18 UNL     1      30.121   8.956  48.998  1.00  0.00     0.097 C 
ENDROOT
BRANCH   1  20
HETATM   20  N1  UNL     1      27.890   8.178  49.206  1.00  0.00    -0.266 NA
HETATM   21  C3  UNL     1      27.614   9.232  49.878  1.00  0.00     0.095 C 
BRANCH  21  22
HETATM   22  C2  UNL     1      26.337   8.609  50.017  1.00  0.00     0.035 C 
HETATM   23  C1  UNL     1      25.569   7.599  50.260  1.00  0.00     0.011 C 
ENDBRANCH  21  22
ENDBRANCH   1  20
TORSDOF 2
ENDMDL
MODEL 9
REMARK VINA RESULT:      -6.5      2.153      6.264
REMARK  2 active torsions:
REMARK  status: ('A' for Active; 'I' for Inactive)
REMARK    1  A    between atoms: C2_2  and  C3_3 
REMARK    2  A    between atoms: N1_4  and  C4_5 
ROOT
HETATM    1  C4  UNL     1      24.257   1.596  51.800  1.00  0.00     0.068 C 
HETATM    2  C5  UNL     1      23.941   2.471  50.853  1.00  0.00     0.088 C 
HETATM    3  O1  UNL     1      23.036   2.059  49.728  1.00  0.00    -0.295 OA
HETATM    4  C6  UNL     1      21.763   2.748  49.518  1.00  0.00     0.165 C 
HETATM    5  N2  UNL     1      20.928   3.029  50.527  1.00  0.00    -0.264 NA
HETATM    6  C7  UNL     1      21.178   3.646  51.860  1.00  0.00     0.185 C 
HETATM    7  C8  UNL     1      22.651   3.455  52.265  1.00  0.00    -0.058 C 
HETATM    8  C9  UNL     1      23.719   4.349  52.234  1.00  0.00    -0.010 C 
HETATM    9  C10 UNL     1      24.565   3.898  51.030  1.00  0.00     0.070 C 
HETATM   10  C11 UNL     1      23.974   4.727  49.938  1.00  0.00     0.052 C 
HETATM   11  C12 UNL     1      24.518   5.862  49.257  1.00  0.00     0.153 C 
HETATM   12  O2  UNL     1      24.469   7.092  49.902  1.00  0.00    -0.381 OA
HETATM   13  C13 UNL     1      24.276   8.047  48.902  1.00  0.00     0.173 C 
HETATM   14  C14 UNL     1      24.252   7.267  47.597  1.00  0.00     0.065 C 
HETATM   15  C15 UNL     1      23.558   6.033  48.078  1.00  0.00    -0.027 C 
HETATM   16  C16 UNL     1      22.479   5.404  47.557  1.00  0.00     0.140 C 
HETATM   17  O3  UNL     1      21.851   4.372  47.907  1.00  0.00    -0.355 OA
HETATM   18  C17 UNL     1      21.122   3.280  48.213  1.00  0.00     0.260 C 
HETATM   19  C18 UNL     1      23.207   2.105  52.770  1.00  0.00     0.097 C 
ENDROOT
BRANCH   1  20
HETATM   20  N1  UNL     1      24.939   0.520  52.434  1.00  0.00    -0.266 NA
HETATM   21  C3  UNL     1      24.515  -0.161  53.432  1.00  0.00     0.095 C 
BRANCH  21  22
HETATM   22  C2  UNL     1      25.755  -0.850  53.278  1.00  0.00     0.035 C 
HETATM   23  C1  UNL     1      26.843  -1.134  52.643  1.00  0.00     0.011 C 
ENDBRANCH  21  22
ENDBRANCH   1  20
TORSDOF 2
ENDMDL
