MODEL 1
REMARK VINA RESULT:      -8.5      0.000      0.000
REMARK  4 active torsions:
REMARK  status: ('A' for Active; 'I' for Inactive)
REMARK    1  A    between atoms: N2_7  and  C6_8 
REMARK    2  A    between atoms: C6_8  and  C7_9 
REMARK    3  A    between atoms: C7_9  and  C8_11 
REMARK    4  A    between atoms: C8_11  and  C9_12 
ROOT
HETATM    1  C9  UNL     1      23.155   1.227  52.849  1.00  0.00    -0.070 C 
HETATM    2  C10 UNL     1      23.887   2.362  52.803  1.00  0.00     0.005 C 
HETATM    3  C11 UNL     1      23.422   3.764  52.934  1.00  0.00     0.237 C 
HETATM    4  O2  UNL     1      23.700   4.492  51.773  1.00  0.00    -0.237 OA
HETATM    5  O3  UNL     1      22.669   5.101  51.300  1.00  0.00    -0.236 OA
HETATM    6  C12 UNL     1      21.484   4.383  51.241  1.00  0.00     0.249 C 
HETATM    7  C13 UNL     1      21.559   3.143  50.420  1.00  0.00    -0.025 A 
HETATM    8  C14 UNL     1      21.938   3.552  49.135  1.00  0.00     0.010 A 
HETATM    9  C15 UNL     1      22.124   2.717  48.026  1.00  0.00     0.001 A 
HETATM   10  C16 UNL     1      21.917   1.363  48.208  1.00  0.00     0.001 A 
HETATM   11  C17 UNL     1      21.543   0.981  49.491  1.00  0.00     0.007 A 
HETATM   12  C18 UNL     1      21.351   1.796  50.614  1.00  0.00    -0.049 A 
HETATM   13  C19 UNL     1      20.958   0.980  51.801  1.00  0.00     0.048 C 
HETATM   14  C20 UNL     1      21.685   1.318  53.051  1.00  0.00     0.015 C 
HETATM   15  C21 UNL     1      21.172   0.511  54.207  1.00  0.00     0.015 C 
ENDROOT
BRANCH   1  16
HETATM   16  C8  UNL     1      23.623  -0.203  52.718  1.00  0.00     0.114 C 
BRANCH  16  17
HETATM   17  C7  UNL     1      25.017  -0.386  53.192  1.00  0.00     0.148 C 
HETATM   18  O1  UNL     1      25.343  -0.529  54.365  1.00  0.00    -0.296 OA
BRANCH  17  19
HETATM   19  C6  UNL     1      26.278  -0.444  52.413  1.00  0.00     0.201 C 
BRANCH  19  20
HETATM   20  N2  UNL     1      27.352   0.335  52.992  1.00  0.00    -0.375 N 
HETATM   21  C2  UNL     1      28.532  -0.300  53.458  1.00  0.00     0.026 C 
HETATM   22  C1  UNL     1      28.654  -1.591  53.260  1.00  0.00     0.039 C 
HETATM   23  C3  UNL     1      29.626   0.471  54.130  1.00  0.00     0.325 C 
HETATM   24  N1  UNL     1      29.101   1.748  54.593  1.00  0.00     0.090 N 
HETATM   25  C4  UNL     1      28.477   2.411  53.458  1.00  0.00     0.289 C 
HETATM   26  H5  UNL     1      28.451   1.645  55.399  1.00  0.00     0.316 HD
HETATM   27  C5  UNL     1      27.190   1.750  53.040  1.00  0.00     0.153 C 
ENDBRANCH  19  20
ENDBRANCH  17  19
ENDBRANCH  16  17
ENDBRANCH   1  16
TORSDOF 4
ENDMDL
MODEL 2
REMARK VINA RESULT:      -8.5      2.273      3.254
REMARK  4 active torsions:
REMARK  status: ('A' for Active; 'I' for Inactive)
REMARK    1  A    between atoms: N2_7  and  C6_8 
REMARK    2  A    between atoms: C6_8  and  C7_9 
REMARK    3  A    between atoms: C7_9  and  C8_11 
REMARK    4  A    between atoms: C8_11  and  C9_12 
ROOT
HETATM    1  C9  UNL     1      23.058   2.790  51.701  1.00  0.00    -0.070 C 
HETATM    2  C10 UNL     1      22.769   3.997  52.237  1.00  0.00     0.005 C 
HETATM    3  C11 UNL     1      21.958   5.093  51.656  1.00  0.00     0.237 C 
HETATM    4  O2  UNL     1      22.728   6.249  51.489  1.00  0.00    -0.237 OA
HETATM    5  O3  UNL     1      22.665   6.730  50.296  1.00  0.00    -0.236 OA
HETATM    6  C12 UNL     1      22.773   5.829  49.247  1.00  0.00     0.249 C 
HETATM    7  C13 UNL     1      24.039   5.046  49.237  1.00  0.00    -0.025 A 
HETATM    8  C14 UNL     1      25.075   5.986  49.171  1.00  0.00     0.010 A 
HETATM    9  C15 UNL     1      26.446   5.700  49.132  1.00  0.00     0.001 A 
HETATM   10  C16 UNL     1      26.818   4.371  49.162  1.00  0.00     0.001 A 
HETATM   11  C17 UNL     1      25.774   3.457  49.228  1.00  0.00     0.007 A 
HETATM   12  C18 UNL     1      24.398   3.718  49.269  1.00  0.00    -0.049 A 
HETATM   13  C19 UNL     1      23.618   2.446  49.344  1.00  0.00     0.048 C 
HETATM   14  C20 UNL     1      22.529   2.449  50.354  1.00  0.00     0.015 C 
HETATM   15  C21 UNL     1      21.747   1.170  50.306  1.00  0.00     0.015 C 
ENDROOT
BRANCH   1  16
HETATM   16  C8  UNL     1      23.881   1.670  52.288  1.00  0.00     0.114 C 
BRANCH  16  17
HETATM   17  C7  UNL     1      25.192   2.141  52.800  1.00  0.00     0.148 C 
HETATM   18  O1  UNL     1      25.363   2.696  53.880  1.00  0.00    -0.296 OA
BRANCH  17  19
HETATM   19  C6  UNL     1      26.534   2.058  52.174  1.00  0.00     0.201 C 
BRANCH  19  20
HETATM   20  N2  UNL     1      27.341   0.966  52.675  1.00  0.00    -0.375 N 
HETATM   21  C2  UNL     1      28.514   1.224  53.428  1.00  0.00     0.026 C 
HETATM   22  C1  UNL     1      28.786   2.471  53.734  1.00  0.00     0.039 C 
HETATM   23  C3  UNL     1      29.409   0.117  53.893  1.00  0.00     0.325 C 
HETATM   24  N1  UNL     1      29.142  -1.080  53.107  1.00  0.00     0.090 N 
HETATM   25  C4  UNL     1      27.715  -1.356  53.187  1.00  0.00     0.289 C 
HETATM   26  H5  UNL     1      29.477  -0.997  52.126  1.00  0.00     0.316 HD
HETATM   27  C5  UNL     1      26.892  -0.361  52.411  1.00  0.00     0.153 C 
ENDBRANCH  19  20
ENDBRANCH  17  19
ENDBRANCH  16  17
ENDBRANCH   1  16
TORSDOF 4
ENDMDL
MODEL 3
REMARK VINA RESULT:      -8.2      2.096      3.689
REMARK  4 active torsions:
REMARK  status: ('A' for Active; 'I' for Inactive)
REMARK    1  A    between atoms: N2_7  and  C6_8 
REMARK    2  A    between atoms: C6_8  and  C7_9 
REMARK    3  A    between atoms: C7_9  and  C8_11 
REMARK    4  A    between atoms: C8_11  and  C9_12 
ROOT
HETATM    1  C9  UNL     1      23.860   3.664  50.190  1.00  0.00    -0.070 C 
HETATM    2  C10 UNL     1      23.592   2.921  49.094  1.00  0.00     0.005 C 
HETATM    3  C11 UNL     1      22.290   2.715  48.416  1.00  0.00     0.237 C 
HETATM    4  O2  UNL     1      21.929   1.364  48.432  1.00  0.00    -0.237 OA
HETATM    5  O3  UNL     1      20.743   1.163  48.895  1.00  0.00    -0.236 OA
HETATM    6  C12 UNL     1      20.392   1.851  50.047  1.00  0.00     0.249 C 
HETATM    7  C13 UNL     1      21.271   1.577  51.218  1.00  0.00    -0.025 A 
HETATM    8  C14 UNL     1      21.197   0.196  51.441  1.00  0.00     0.010 A 
HETATM    9  C15 UNL     1      21.861  -0.511  52.452  1.00  0.00     0.001 A 
HETATM   10  C16 UNL     1      22.664   0.212  53.312  1.00  0.00     0.001 A 
HETATM   11  C17 UNL     1      22.721   1.580  53.070  1.00  0.00     0.007 A 
HETATM   12  C18 UNL     1      22.068   2.308  52.067  1.00  0.00    -0.049 A 
HETATM   13  C19 UNL     1      22.408   3.759  52.158  1.00  0.00     0.048 C 
HETATM   14  C20 UNL     1      22.752   4.396  50.861  1.00  0.00     0.015 C 
HETATM   15  C21 UNL     1      23.000   5.865  51.030  1.00  0.00     0.015 C 
ENDROOT
BRANCH   1  16
HETATM   16  C8  UNL     1      25.184   3.880  50.883  1.00  0.00     0.114 C 
BRANCH  16  17
HETATM   17  C7  UNL     1      26.018   2.652  50.901  1.00  0.00     0.148 C 
HETATM   18  O1  UNL     1      26.992   2.458  50.182  1.00  0.00    -0.296 OA
BRANCH  17  19
HETATM   19  C6  UNL     1      25.891   1.438  51.744  1.00  0.00     0.201 C 
BRANCH  19  20
HETATM   20  N2  UNL     1      26.993   1.254  52.664  1.00  0.00    -0.375 N 
HETATM   21  C2  UNL     1      27.405  -0.051  53.041  1.00  0.00     0.026 C 
HETATM   22  C1  UNL     1      26.822  -1.072  52.459  1.00  0.00     0.039 C 
HETATM   23  C3  UNL     1      28.490  -0.271  54.049  1.00  0.00     0.325 C 
HETATM   24  N1  UNL     1      28.677   0.945  54.828  1.00  0.00     0.090 N 
HETATM   25  C4  UNL     1      28.904   2.041  53.897  1.00  0.00     0.289 C 
HETATM   26  H5  UNL     1      27.885   1.132  55.476  1.00  0.00     0.316 HD
HETATM   27  C5  UNL     1      27.658   2.420  53.140  1.00  0.00     0.153 C 
ENDBRANCH  19  20
ENDBRANCH  17  19
ENDBRANCH  16  17
ENDBRANCH   1  16
TORSDOF 4
ENDMDL
MODEL 4
REMARK VINA RESULT:      -8.1      3.306      6.455
REMARK  4 active torsions:
REMARK  status: ('A' for Active; 'I' for Inactive)
REMARK    1  A    between atoms: N2_7  and  C6_8 
REMARK    2  A    between atoms: C6_8  and  C7_9 
REMARK    3  A    between atoms: C7_9  and  C8_11 
REMARK    4  A    between atoms: C8_11  and  C9_12 
ROOT
HETATM    1  C9  UNL     1      23.136   2.261  51.040  1.00  0.00    -0.070 C 
HETATM    2  C10 UNL     1      22.329   1.178  50.995  1.00  0.00     0.005 C 
HETATM    3  C11 UNL     1      21.595   0.528  52.106  1.00  0.00     0.237 C 
HETATM    4  O2  UNL     1      22.018  -0.794  52.277  1.00  0.00    -0.237 OA
HETATM    5  O3  UNL     1      22.360  -1.062  53.489  1.00  0.00    -0.236 OA
HETATM    6  C12 UNL     1      23.156  -0.131  54.141  1.00  0.00     0.249 C 
HETATM    7  C13 UNL     1      24.455   0.144  53.468  1.00  0.00    -0.025 A 
HETATM    8  C14 UNL     1      25.119  -1.088  53.393  1.00  0.00     0.010 A 
HETATM    9  C15 UNL     1      26.388  -1.307  52.840  1.00  0.00     0.001 A 
HETATM   10  C16 UNL     1      27.051  -0.214  52.319  1.00  0.00     0.001 A 
HETATM   11  C17 UNL     1      26.373   0.996  52.404  1.00  0.00     0.007 A 
HETATM   12  C18 UNL     1      25.105   1.240  52.951  1.00  0.00    -0.049 A 
HETATM   13  C19 UNL     1      24.746   2.685  52.834  1.00  0.00     0.048 C 
HETATM   14  C20 UNL     1      23.368   2.940  52.342  1.00  0.00     0.015 C 
HETATM   15  C21 UNL     1      23.063   4.409  52.333  1.00  0.00     0.015 C 
ENDROOT
BRANCH   1  16
HETATM   16  C8  UNL     1      23.884   2.928  49.911  1.00  0.00     0.114 C 
BRANCH  16  17
HETATM   17  C7  UNL     1      22.997   3.761  49.061  1.00  0.00     0.148 C 
HETATM   18  O1  UNL     1      21.818   3.517  48.832  1.00  0.00    -0.296 OA
BRANCH  17  19
HETATM   19  C6  UNL     1      23.298   5.017  48.332  1.00  0.00     0.201 C 
BRANCH  19  20
HETATM   20  N2  UNL     1      23.616   6.130  49.202  1.00  0.00    -0.375 N 
HETATM   21  C2  UNL     1      24.966   6.462  49.481  1.00  0.00     0.026 C 
HETATM   22  C1  UNL     1      25.906   5.796  48.855  1.00  0.00     0.039 C 
HETATM   23  C3  UNL     1      25.324   7.558  50.437  1.00  0.00     0.325 C 
HETATM   24  N1  UNL     1      24.176   7.850  51.286  1.00  0.00     0.090 N 
HETATM   25  C4  UNL     1      23.039   8.124  50.420  1.00  0.00     0.289 C 
HETATM   26  H5  UNL     1      23.981   7.091  51.970  1.00  0.00     0.316 HD
HETATM   27  C5  UNL     1      22.529   6.887  49.730  1.00  0.00     0.153 C 
ENDBRANCH  19  20
ENDBRANCH  17  19
ENDBRANCH  16  17
ENDBRANCH   1  16
TORSDOF 4
ENDMDL
MODEL 5
REMARK VINA RESULT:      -7.9      3.111      6.916
REMARK  4 active torsions:
REMARK  status: ('A' for Active; 'I' for Inactive)
REMARK    1  A    between atoms: N2_7  and  C6_8 
REMARK    2  A    between atoms: C6_8  and  C7_9 
REMARK    3  A    between atoms: C7_9  and  C8_11 
REMARK    4  A    between atoms: C8_11  and  C9_12 
ROOT
HETATM    1  C9  UNL     1      23.866   2.936  52.522  1.00  0.00    -0.070 C 
HETATM    2  C10 UNL     1      24.897   2.975  53.394  1.00  0.00     0.005 C 
HETATM    3  C11 UNL     1      26.139   2.166  53.390  1.00  0.00     0.237 C 
HETATM    4  O2  UNL     1      26.235   1.394  54.552  1.00  0.00    -0.237 OA
HETATM    5  O3  UNL     1      26.445   0.146  54.313  1.00  0.00    -0.236 OA
HETATM    6  C12 UNL     1      25.685  -0.441  53.312  1.00  0.00     0.249 C 
HETATM    7  C13 UNL     1      24.215  -0.375  53.539  1.00  0.00    -0.025 A 
HETATM    8  C14 UNL     1      23.983  -1.021  54.760  1.00  0.00     0.010 A 
HETATM    9  C15 UNL     1      22.735  -1.206  55.370  1.00  0.00     0.001 A 
HETATM   10  C16 UNL     1      21.627  -0.707  54.715  1.00  0.00     0.001 A 
HETATM   11  C17 UNL     1      21.882  -0.069  53.506  1.00  0.00     0.007 A 
HETATM   12  C18 UNL     1      23.119   0.127  52.877  1.00  0.00    -0.049 A 
HETATM   13  C19 UNL     1      22.948   0.867  51.591  1.00  0.00     0.048 C 
HETATM   14  C20 UNL     1      23.912   1.978  51.385  1.00  0.00     0.015 C 
HETATM   15  C21 UNL     1      23.724   2.612  50.039  1.00  0.00     0.015 C 
ENDROOT
BRANCH   1  16
HETATM   16  C8  UNL     1      22.600   3.758  52.520  1.00  0.00     0.114 C 
BRANCH  16  17
HETATM   17  C7  UNL     1      22.811   5.117  51.961  1.00  0.00     0.148 C 
HETATM   18  O1  UNL     1      23.840   5.772  52.084  1.00  0.00    -0.296 OA
BRANCH  17  19
HETATM   19  C6  UNL     1      21.890   5.960  51.160  1.00  0.00     0.201 C 
BRANCH  19  20
HETATM   20  N2  UNL     1      21.838   5.594  49.761  1.00  0.00    -0.375 N 
HETATM   21  C2  UNL     1      20.785   4.781  49.268  1.00  0.00     0.026 C 
HETATM   22  C1  UNL     1      19.819   4.458  50.095  1.00  0.00     0.039 C 
HETATM   23  C3  UNL     1      20.747   4.323  47.843  1.00  0.00     0.325 C 
HETATM   24  N1  UNL     1      22.077   4.447  47.262  1.00  0.00     0.090 N 
HETATM   25  C4  UNL     1      22.526   5.816  47.466  1.00  0.00     0.289 C 
HETATM   26  H5  UNL     1      22.747   3.748  47.643  1.00  0.00     0.316 HD
HETATM   27  C5  UNL     1      22.857   6.106  48.906  1.00  0.00     0.153 C 
ENDBRANCH  19  20
ENDBRANCH  17  19
ENDBRANCH  16  17
ENDBRANCH   1  16
TORSDOF 4
ENDMDL
MODEL 6
REMARK VINA RESULT:      -7.7      3.406      7.238
REMARK  4 active torsions:
REMARK  status: ('A' for Active; 'I' for Inactive)
REMARK    1  A    between atoms: N2_7  and  C6_8 
REMARK    2  A    between atoms: C6_8  and  C7_9 
REMARK    3  A    between atoms: C7_9  and  C8_11 
REMARK    4  A    between atoms: C8_11  and  C9_12 
ROOT
HETATM    1  C9  UNL     1      22.806   2.282  51.029  1.00  0.00    -0.070 C 
HETATM    2  C10 UNL     1      22.087   1.137  51.038  1.00  0.00     0.005 C 
HETATM    3  C11 UNL     1      21.481   0.438  52.195  1.00  0.00     0.237 C 
HETATM    4  O2  UNL     1      22.020  -0.845  52.340  1.00  0.00    -0.237 OA
HETATM    5  O3  UNL     1      22.459  -1.077  53.529  1.00  0.00    -0.236 OA
HETATM    6  C12 UNL     1      23.217  -0.080  54.126  1.00  0.00     0.249 C 
HETATM    7  C13 UNL     1      24.444   0.294  53.370  1.00  0.00    -0.025 A 
HETATM    8  C14 UNL     1      25.200  -0.880  53.254  1.00  0.00     0.010 A 
HETATM    9  C15 UNL     1      26.444  -1.000  52.621  1.00  0.00     0.001 A 
HETATM   10  C16 UNL     1      26.982   0.140  52.057  1.00  0.00     0.001 A 
HETATM   11  C17 UNL     1      26.215   1.291  52.184  1.00  0.00     0.007 A 
HETATM   12  C18 UNL     1      24.970   1.436  52.811  1.00  0.00    -0.049 A 
HETATM   13  C19 UNL     1      24.488   2.846  52.715  1.00  0.00     0.048 C 
HETATM   14  C20 UNL     1      23.064   2.986  52.313  1.00  0.00     0.015 C 
HETATM   15  C21 UNL     1      22.642   4.425  52.321  1.00  0.00     0.015 C 
ENDROOT
BRANCH   1  16
HETATM   16  C8  UNL     1      23.423   3.000  49.854  1.00  0.00     0.114 C 
BRANCH  16  17
HETATM   17  C7  UNL     1      22.576   2.923  48.637  1.00  0.00     0.148 C 
HETATM   18  O1  UNL     1      22.722   2.105  47.735  1.00  0.00    -0.296 OA
BRANCH  17  19
HETATM   19  C6  UNL     1      21.416   3.757  48.242  1.00  0.00     0.201 C 
BRANCH  19  20
HETATM   20  N2  UNL     1      20.225   3.502  49.025  1.00  0.00    -0.375 N 
HETATM   21  C2  UNL     1      19.726   4.486  49.916  1.00  0.00     0.026 C 
HETATM   22  C1  UNL     1      20.317   5.657  49.933  1.00  0.00     0.039 C 
HETATM   23  C3  UNL     1      18.543   4.221  50.795  1.00  0.00     0.325 C 
HETATM   24  N1  UNL     1      18.334   2.784  50.903  1.00  0.00     0.090 N 
HETATM   25  C4  UNL     1      18.243   2.245  49.554  1.00  0.00     0.289 C 
HETATM   26  H5  UNL     1      19.070   2.314  51.469  1.00  0.00     0.316 HD
HETATM   27  C5  UNL     1      19.568   2.251  48.839  1.00  0.00     0.153 C 
ENDBRANCH  19  20
ENDBRANCH  17  19
ENDBRANCH  16  17
ENDBRANCH   1  16
TORSDOF 4
ENDMDL
MODEL 7
REMARK VINA RESULT:      -7.6      3.122      6.422
REMARK  4 active torsions:
REMARK  status: ('A' for Active; 'I' for Inactive)
REMARK    1  A    between atoms: N2_7  and  C6_8 
REMARK    2  A    between atoms: C6_8  and  C7_9 
REMARK    3  A    between atoms: C7_9  and  C8_11 
REMARK    4  A    between atoms: C8_11  and  C9_12 
ROOT
HETATM    1  C9  UNL     1      23.466   2.811  52.242  1.00  0.00    -0.070 C 
HETATM    2  C10 UNL     1      24.557   2.896  53.035  1.00  0.00     0.005 C 
HETATM    3  C11 UNL     1      25.800   2.091  52.982  1.00  0.00     0.237 C 
HETATM    4  O2  UNL     1      25.984   1.380  54.172  1.00  0.00    -0.237 OA
HETATM    5  O3  UNL     1      26.184   0.122  53.982  1.00  0.00    -0.236 OA
HETATM    6  C12 UNL     1      25.357  -0.517  53.070  1.00  0.00     0.249 C 
HETATM    7  C13 UNL     1      23.907  -0.443  53.398  1.00  0.00    -0.025 A 
HETATM    8  C14 UNL     1      23.767  -1.027  54.664  1.00  0.00     0.010 A 
HETATM    9  C15 UNL     1      22.568  -1.183  55.370  1.00  0.00     0.001 A 
HETATM   10  C16 UNL     1      21.412  -0.721  54.772  1.00  0.00     0.001 A 
HETATM   11  C17 UNL     1      21.576  -0.145  53.517  1.00  0.00     0.007 A 
HETATM   12  C18 UNL     1      22.763   0.022  52.791  1.00  0.00    -0.049 A 
HETATM   13  C19 UNL     1      22.496   0.695  51.485  1.00  0.00     0.048 C 
HETATM   14  C20 UNL     1      23.436   1.797  51.155  1.00  0.00     0.015 C 
HETATM   15  C21 UNL     1      23.148   2.360  49.795  1.00  0.00     0.015 C 
ENDROOT
BRANCH   1  16
HETATM   16  C8  UNL     1      22.198   3.629  52.290  1.00  0.00     0.114 C 
BRANCH  16  17
HETATM   17  C7  UNL     1      22.340   4.930  51.589  1.00  0.00     0.148 C 
HETATM   18  O1  UNL     1      21.586   5.338  50.713  1.00  0.00    -0.296 OA
BRANCH  17  19
HETATM   19  C6  UNL     1      23.359   5.992  51.770  1.00  0.00     0.201 C 
BRANCH  19  20
HETATM   20  N2  UNL     1      24.176   6.217  50.596  1.00  0.00    -0.375 N 
HETATM   21  C2  UNL     1      23.988   7.376  49.801  1.00  0.00     0.026 C 
HETATM   22  C1  UNL     1      23.127   8.274  50.216  1.00  0.00     0.039 C 
HETATM   23  C3  UNL     1      24.764   7.597  48.540  1.00  0.00     0.325 C 
HETATM   24  N1  UNL     1      25.320   6.329  48.087  1.00  0.00     0.090 N 
HETATM   25  C4  UNL     1      26.074   5.754  49.191  1.00  0.00     0.289 C 
HETATM   26  H5  UNL     1      24.592   5.681  47.723  1.00  0.00     0.316 HD
HETATM   27  C5  UNL     1      25.184   5.254  50.298  1.00  0.00     0.153 C 
ENDBRANCH  19  20
ENDBRANCH  17  19
ENDBRANCH  16  17
ENDBRANCH   1  16
TORSDOF 4
ENDMDL
MODEL 8
REMARK VINA RESULT:      -7.5      4.671      6.601
REMARK  4 active torsions:
REMARK  status: ('A' for Active; 'I' for Inactive)
REMARK    1  A    between atoms: N2_7  and  C6_8 
REMARK    2  A    between atoms: C6_8  and  C7_9 
REMARK    3  A    between atoms: C7_9  and  C8_11 
REMARK    4  A    between atoms: C8_11  and  C9_12 
ROOT
HETATM    1  C9  UNL     1      23.698   4.766  50.017  1.00  0.00    -0.070 C 
HETATM    2  C10 UNL     1      23.430   3.804  49.107  1.00  0.00     0.005 C 
HETATM    3  C11 UNL     1      22.184   3.020  48.933  1.00  0.00     0.237 C 
HETATM    4  O2  UNL     1      22.424   1.655  49.117  1.00  0.00    -0.237 OA
HETATM    5  O3  UNL     1      21.626   1.112  49.970  1.00  0.00    -0.236 OA
HETATM    6  C12 UNL     1      21.399   1.805  51.150  1.00  0.00     0.249 C 
HETATM    7  C13 UNL     1      22.626   2.076  51.948  1.00  0.00    -0.025 A 
HETATM    8  C14 UNL     1      23.190   0.824  52.227  1.00  0.00     0.010 A 
HETATM    9  C15 UNL     1      24.359   0.593  52.965  1.00  0.00     0.001 A 
HETATM   10  C16 UNL     1      25.021   1.695  53.467  1.00  0.00     0.001 A 
HETATM   11  C17 UNL     1      24.444   2.925  53.178  1.00  0.00     0.007 A 
HETATM   12  C18 UNL     1      23.278   3.182  52.443  1.00  0.00    -0.049 A 
HETATM   13  C19 UNL     1      23.013   4.649  52.364  1.00  0.00     0.048 C 
HETATM   14  C20 UNL     1      22.654   5.139  51.008  1.00  0.00     0.015 C 
HETATM   15  C21 UNL     1      22.325   6.602  51.034  1.00  0.00     0.015 C 
ENDROOT
BRANCH   1  16
HETATM   16  C8  UNL     1      24.964   5.569  50.198  1.00  0.00     0.114 C 
BRANCH  16  17
HETATM   17  C7  UNL     1      25.424   6.188  48.930  1.00  0.00     0.148 C 
HETATM   18  O1  UNL     1      24.691   6.727  48.108  1.00  0.00    -0.296 OA
BRANCH  17  19
HETATM   19  C6  UNL     1      26.798   6.307  48.383  1.00  0.00     0.201 C 
BRANCH  19  20
HETATM   20  N2  UNL     1      27.502   7.487  48.838  1.00  0.00    -0.375 N 
HETATM   21  C2  UNL     1      28.826   7.749  48.398  1.00  0.00     0.026 C 
HETATM   22  C1  UNL     1      29.346   6.946  47.501  1.00  0.00     0.039 C 
HETATM   23  C3  UNL     1      29.606   8.919  48.912  1.00  0.00     0.325 C 
HETATM   24  N1  UNL     1      29.006   9.392  50.152  1.00  0.00     0.090 N 
HETATM   25  C4  UNL     1      27.596   9.646  49.896  1.00  0.00     0.289 C 
HETATM   26  H5  UNL     1      29.154   8.734  50.944  1.00  0.00     0.316 HD
HETATM   27  C5  UNL     1      26.807   8.378  49.706  1.00  0.00     0.153 C 
ENDBRANCH  19  20
ENDBRANCH  17  19
ENDBRANCH  16  17
ENDBRANCH   1  16
TORSDOF 4
ENDMDL
MODEL 9
REMARK VINA RESULT:      -7.2      3.816      7.738
REMARK  4 active torsions:
REMARK  status: ('A' for Active; 'I' for Inactive)
REMARK    1  A    between atoms: N2_7  and  C6_8 
REMARK    2  A    between atoms: C6_8  and  C7_9 
REMARK    3  A    between atoms: C7_9  and  C8_11 
REMARK    4  A    between atoms: C8_11  and  C9_12 
ROOT
HETATM    1  C9  UNL     1      22.268   2.587  51.783  1.00  0.00    -0.070 C 
HETATM    2  C10 UNL     1      23.318   3.060  52.491  1.00  0.00     0.005 C 
HETATM    3  C11 UNL     1      24.740   2.648  52.418  1.00  0.00     0.237 C 
HETATM    4  O2  UNL     1      25.174   2.137  53.646  1.00  0.00    -0.237 OA
HETATM    5  O3  UNL     1      25.727   0.979  53.543  1.00  0.00    -0.236 OA
HETATM    6  C12 UNL     1      25.088   0.044  52.742  1.00  0.00     0.249 C 
HETATM    7  C13 UNL     1      23.695  -0.274  53.161  1.00  0.00    -0.025 A 
HETATM    8  C14 UNL     1      23.786  -0.749  54.475  1.00  0.00     0.010 A 
HETATM    9  C15 UNL     1      22.715  -1.178  55.272  1.00  0.00     0.001 A 
HETATM   10  C16 UNL     1      21.452  -1.129  54.717  1.00  0.00     0.001 A 
HETATM   11  C17 UNL     1      21.387  -0.654  53.413  1.00  0.00     0.007 A 
HETATM   12  C18 UNL     1      22.441  -0.220  52.598  1.00  0.00    -0.049 A 
HETATM   13  C19 UNL     1      21.934   0.219  51.264  1.00  0.00     0.048 C 
HETATM   14  C20 UNL     1      22.494   1.508  50.784  1.00  0.00     0.015 C 
HETATM   15  C21 UNL     1      21.996   1.832  49.406  1.00  0.00     0.015 C 
ENDROOT
BRANCH   1  16
HETATM   16  C8  UNL     1      20.819   3.004  51.851  1.00  0.00     0.114 C 
BRANCH  16  17
HETATM   17  C7  UNL     1      20.584   4.330  51.227  1.00  0.00     0.148 C 
HETATM   18  O1  UNL     1      21.286   5.320  51.404  1.00  0.00    -0.296 OA
BRANCH  17  19
HETATM   19  C6  UNL     1      19.515   4.756  50.292  1.00  0.00     0.201 C 
BRANCH  19  20
HETATM   20  N2  UNL     1      18.357   3.886  50.301  1.00  0.00    -0.375 N 
HETATM   21  C2  UNL     1      18.031   3.112  49.158  1.00  0.00     0.026 C 
HETATM   22  C1  UNL     1      18.859   3.137  48.141  1.00  0.00     0.039 C 
HETATM   23  C3  UNL     1      16.798   2.264  49.110  1.00  0.00     0.325 C 
HETATM   24  N1  UNL     1      15.866   2.710  50.137  1.00  0.00     0.090 N 
HETATM   25  C4  UNL     1      16.573   2.713  51.409  1.00  0.00     0.289 C 
HETATM   26  H5  UNL     1      15.441   3.634  49.917  1.00  0.00     0.316 HD
HETATM   27  C5  UNL     1      17.592   3.818  51.501  1.00  0.00     0.153 C 
ENDBRANCH  19  20
ENDBRANCH  17  19
ENDBRANCH  16  17
ENDBRANCH   1  16
TORSDOF 4
ENDMDL
