MODEL 1
REMARK VINA RESULT:      -7.7      0.000      0.000
REMARK  5 active torsions:
REMARK  status: ('A' for Active; 'I' for Inactive)
REMARK    1  A    between atoms: C2_2  and  C3_3 
REMARK    2  A    between atoms: C7_9  and  N2_10 
REMARK    3  A    between atoms: N2_10  and  C8_11 
REMARK    4  A    between atoms: C8_11  and  C9_12 
REMARK    5  A    between atoms: C13_17  and  N4_18 
ROOT
HETATM    1  C1  UNL     1      28.718  -1.256  53.205  1.00  0.00     0.052 C 
HETATM    2  C2  UNL     1      28.010  -0.133  53.924  1.00  0.00     0.110 A 
HETATM    3  N1  UNL     1      26.865  -0.486  54.705  1.00  0.00    -0.370 N 
HETATM    4  C4  UNL     1      25.994   0.253  53.854  1.00  0.00     0.038 A 
HETATM    5  C5  UNL     1      24.742   0.695  53.518  1.00  0.00     0.032 A 
HETATM    6  C6  UNL     1      24.579   1.488  52.423  1.00  0.00     0.031 A 
HETATM    7  C7  UNL     1      25.598   1.897  51.591  1.00  0.00     0.028 A 
HETATM    8  C14 UNL     1      26.841   1.431  51.961  1.00  0.00     0.041 A 
HETATM    9  C15 UNL     1      27.062   0.623  53.066  1.00  0.00     0.005 A 
HETATM   10  H5  UNL     1      26.816  -1.079  55.566  1.00  0.00     0.161 HD
ENDROOT
BRANCH   7  11
HETATM   11  N2  UNL     1      25.413   2.727  50.452  1.00  0.00    -0.389 N 
HETATM   12  H8  UNL     1      24.442   3.051  50.252  1.00  0.00     0.159 HD
BRANCH  11  13
HETATM   13  C8  UNL     1      26.496   3.121  49.592  1.00  0.00     0.136 C 
BRANCH  13  14
HETATM   14  C9  UNL     1      26.471   4.574  49.282  1.00  0.00     0.056 A 
HETATM   15  C10 UNL     1      27.107   5.573  48.651  1.00  0.00     0.059 A 
HETATM   16  C11 UNL     1      27.381   6.948  48.169  1.00  0.00     0.006 C 
HETATM   17  C13 UNL     1      25.813   5.885  49.396  1.00  0.00     0.178 A 
HETATM   18  C12 UNL     1      26.904   7.753  49.144  1.00  0.00     0.082 C 
HETATM   19  N3  UNL     1      26.340   6.957  50.221  1.00  0.00    -0.368 N 
HETATM   20  H13 UNL     1      26.459   7.337  51.180  1.00  0.00     0.161 HD
BRANCH  17  21
HETATM   21  N4  UNL     1      24.738   6.200  48.493  1.00  0.00    -0.106 NA
HETATM   22  O2  UNL     1      23.766   5.554  48.372  1.00  0.00    -0.064 OA
ENDBRANCH  17  21
ENDBRANCH  13  14
ENDBRANCH  11  13
ENDBRANCH   7  11
BRANCH   2  23
HETATM   23  C3  UNL     1      28.943   0.718  54.692  1.00  0.00     0.267 C 
HETATM   24  O1  UNL     1      29.177   1.877  55.054  1.00  0.00    -0.304 OA
ENDBRANCH   2  23
TORSDOF 5
ENDMDL
MODEL 2
REMARK VINA RESULT:      -7.4      1.815      2.182
REMARK  5 active torsions:
REMARK  status: ('A' for Active; 'I' for Inactive)
REMARK    1  A    between atoms: C2_2  and  C3_3 
REMARK    2  A    between atoms: C7_9  and  N2_10 
REMARK    3  A    between atoms: N2_10  and  C8_11 
REMARK    4  A    between atoms: C8_11  and  C9_12 
REMARK    5  A    between atoms: C13_17  and  N4_18 
ROOT
HETATM    1  C1  UNL     1      26.808  -1.504  52.543  1.00  0.00     0.052 C 
HETATM    2  C2  UNL     1      26.076  -0.362  53.204  1.00  0.00     0.110 A 
HETATM    3  N1  UNL     1      24.649  -0.366  53.108  1.00  0.00    -0.370 N 
HETATM    4  C4  UNL     1      24.649   0.822  52.320  1.00  0.00     0.038 A 
HETATM    5  C5  UNL     1      23.983   1.796  51.626  1.00  0.00     0.032 A 
HETATM    6  C6  UNL     1      24.687   2.789  51.016  1.00  0.00     0.031 A 
HETATM    7  C7  UNL     1      26.059   2.905  51.034  1.00  0.00     0.028 A 
HETATM    8  C14 UNL     1      26.693   1.907  51.741  1.00  0.00     0.041 A 
HETATM    9  C15 UNL     1      26.025   0.873  52.381  1.00  0.00     0.005 A 
HETATM   10  H5  UNL     1      23.966  -1.048  53.512  1.00  0.00     0.161 HD
ENDROOT
BRANCH   7  11
HETATM   11  N2  UNL     1      26.780   3.950  50.396  1.00  0.00    -0.389 N 
HETATM   12  H8  UNL     1      27.577   4.369  50.924  1.00  0.00     0.159 HD
BRANCH  11  13
HETATM   13  C8  UNL     1      26.454   4.431  49.081  1.00  0.00     0.136 C 
BRANCH  13  14
HETATM   14  C9  UNL     1      27.344   5.539  48.647  1.00  0.00     0.056 A 
HETATM   15  C10 UNL     1      28.550   5.847  48.145  1.00  0.00     0.059 A 
HETATM   16  C11 UNL     1      29.662   6.689  47.643  1.00  0.00     0.006 C 
HETATM   17  C13 UNL     1      27.572   6.979  48.445  1.00  0.00     0.178 A 
HETATM   18  C12 UNL     1      29.573   7.833  48.358  1.00  0.00     0.082 C 
HETATM   19  N3  UNL     1      28.460   7.758  49.288  1.00  0.00    -0.368 N 
HETATM   20  H13 UNL     1      28.595   8.233  50.202  1.00  0.00     0.161 HD
BRANCH  17  21
HETATM   21  N4  UNL     1      27.079   7.593  47.240  1.00  0.00    -0.106 NA
HETATM   22  O2  UNL     1      25.946   7.800  47.020  1.00  0.00    -0.064 OA
ENDBRANCH  17  21
ENDBRANCH  13  14
ENDBRANCH  11  13
ENDBRANCH   7  11
BRANCH   2  23
HETATM   23  C3  UNL     1      26.519  -0.143  54.597  1.00  0.00     0.267 C 
HETATM   24  O1  UNL     1      27.328   0.465  55.309  1.00  0.00    -0.304 OA
ENDBRANCH   2  23
TORSDOF 5
ENDMDL
MODEL 3
REMARK VINA RESULT:      -7.3      2.094      2.526
REMARK  5 active torsions:
REMARK  status: ('A' for Active; 'I' for Inactive)
REMARK    1  A    between atoms: C2_2  and  C3_3 
REMARK    2  A    between atoms: C7_9  and  N2_10 
REMARK    3  A    between atoms: N2_10  and  C8_11 
REMARK    4  A    between atoms: C8_11  and  C9_12 
REMARK    5  A    between atoms: C13_17  and  N4_18 
ROOT
HETATM    1  C1  UNL     1      27.069  -1.222  52.820  1.00  0.00     0.052 C 
HETATM    2  C2  UNL     1      26.217  -0.433  53.784  1.00  0.00     0.110 A 
HETATM    3  N1  UNL     1      25.328  -1.178  54.621  1.00  0.00    -0.370 N 
HETATM    4  C4  UNL     1      24.181  -0.600  54.001  1.00  0.00     0.038 A 
HETATM    5  C5  UNL     1      22.823  -0.475  53.882  1.00  0.00     0.032 A 
HETATM    6  C6  UNL     1      22.305   0.375  52.954  1.00  0.00     0.031 A 
HETATM    7  C7  UNL     1      23.051   1.146  52.091  1.00  0.00     0.028 A 
HETATM    8  C14 UNL     1      24.412   0.991  52.241  1.00  0.00     0.041 A 
HETATM    9  C15 UNL     1      24.992   0.141  53.170  1.00  0.00     0.005 A 
HETATM   10  H5  UNL     1      25.558  -1.865  55.375  1.00  0.00     0.161 HD
ENDROOT
BRANCH   7  11
HETATM   11  N2  UNL     1      22.496   2.031  51.127  1.00  0.00    -0.389 N 
HETATM   12  H8  UNL     1      21.598   2.501  51.376  1.00  0.00     0.159 HD
BRANCH  11  13
HETATM   13  C8  UNL     1      23.119   2.291  49.858  1.00  0.00     0.136 C 
BRANCH  13  14
HETATM   14  C9  UNL     1      23.843   3.588  49.838  1.00  0.00     0.056 A 
HETATM   15  C10 UNL     1      24.167   4.653  49.089  1.00  0.00     0.059 A 
HETATM   16  C11 UNL     1      24.774   5.959  48.735  1.00  0.00     0.006 C 
HETATM   17  C13 UNL     1      24.658   4.597  50.531  1.00  0.00     0.178 A 
HETATM   18  C12 UNL     1      25.918   6.008  49.453  1.00  0.00     0.082 C 
HETATM   19  N3  UNL     1      26.067   4.799  50.245  1.00  0.00    -0.368 N 
HETATM   20  H13 UNL     1      27.038   4.453  50.371  1.00  0.00     0.161 HD
BRANCH  17  21
HETATM   21  N4  UNL     1      23.996   5.569  51.360  1.00  0.00    -0.106 NA
HETATM   22  O2  UNL     1      23.238   5.302  52.215  1.00  0.00    -0.064 OA
ENDBRANCH  17  21
ENDBRANCH  13  14
ENDBRANCH  11  13
ENDBRANCH   7  11
BRANCH   2  23
HETATM   23  C3  UNL     1      27.010   0.535  54.571  1.00  0.00     0.267 C 
HETATM   24  O1  UNL     1      28.134   0.773  55.031  1.00  0.00    -0.304 OA
ENDBRANCH   2  23
TORSDOF 5
ENDMDL
MODEL 4
REMARK VINA RESULT:      -7.3      1.833      7.211
REMARK  5 active torsions:
REMARK  status: ('A' for Active; 'I' for Inactive)
REMARK    1  A    between atoms: C2_2  and  C3_3 
REMARK    2  A    between atoms: C7_9  and  N2_10 
REMARK    3  A    between atoms: N2_10  and  C8_11 
REMARK    4  A    between atoms: C8_11  and  C9_12 
REMARK    5  A    between atoms: C13_17  and  N4_18 
ROOT
HETATM    1  C1  UNL     1      24.995   7.876  47.900  1.00  0.00     0.052 C 
HETATM    2  C2  UNL     1      26.024   7.373  48.883  1.00  0.00     0.110 A 
HETATM    3  N1  UNL     1      27.229   6.831  48.336  1.00  0.00    -0.370 N 
HETATM    4  C4  UNL     1      26.930   5.529  48.835  1.00  0.00     0.038 A 
HETATM    5  C5  UNL     1      27.246   4.206  48.988  1.00  0.00     0.032 A 
HETATM    6  C6  UNL     1      26.402   3.388  49.675  1.00  0.00     0.031 A 
HETATM    7  C7  UNL     1      25.214   3.786  50.248  1.00  0.00     0.028 A 
HETATM    8  C14 UNL     1      24.931   5.123  50.071  1.00  0.00     0.041 A 
HETATM    9  C15 UNL     1      25.756   6.000  49.382  1.00  0.00     0.005 A 
HETATM   10  H5  UNL     1      27.978   7.316  47.788  1.00  0.00     0.161 HD
ENDROOT
BRANCH   7  11
HETATM   11  N2  UNL     1      24.344   2.921  50.964  1.00  0.00    -0.389 N 
HETATM   12  H8  UNL     1      23.596   2.440  50.418  1.00  0.00     0.159 HD
BRANCH  11  13
HETATM   13  C8  UNL     1      24.460   2.697  52.380  1.00  0.00     0.136 C 
BRANCH  13  14
HETATM   14  C9  UNL     1      25.644   1.868  52.725  1.00  0.00     0.056 A 
HETATM   15  C10 UNL     1      26.224   0.666  52.580  1.00  0.00     0.059 A 
HETATM   16  C11 UNL     1      27.237  -0.405  52.733  1.00  0.00     0.006 C 
HETATM   17  C13 UNL     1      26.945   1.732  53.399  1.00  0.00     0.178 A 
HETATM   18  C12 UNL     1      27.758  -0.208  53.965  1.00  0.00     0.082 C 
HETATM   19  N3  UNL     1      27.126   0.936  54.599  1.00  0.00    -0.368 N 
HETATM   20  H13 UNL     1      26.994   0.872  55.628  1.00  0.00     0.161 HD
BRANCH  17  21
HETATM   21  N4  UNL     1      28.123   2.215  52.729  1.00  0.00    -0.106 NA
HETATM   22  O2  UNL     1      28.986   2.811  53.256  1.00  0.00    -0.064 OA
ENDBRANCH  17  21
ENDBRANCH  13  14
ENDBRANCH  11  13
ENDBRANCH   7  11
BRANCH   2  23
HETATM   23  C3  UNL     1      26.313   8.358  49.946  1.00  0.00     0.267 C 
HETATM   24  O1  UNL     1      26.445   9.564  50.187  1.00  0.00    -0.304 OA
ENDBRANCH   2  23
TORSDOF 5
ENDMDL
MODEL 5
REMARK VINA RESULT:      -7.1      4.252      6.768
REMARK  5 active torsions:
REMARK  status: ('A' for Active; 'I' for Inactive)
REMARK    1  A    between atoms: C2_2  and  C3_3 
REMARK    2  A    between atoms: C7_9  and  N2_10 
REMARK    3  A    between atoms: N2_10  and  C8_11 
REMARK    4  A    between atoms: C8_11  and  C9_12 
REMARK    5  A    between atoms: C13_17  and  N4_18 
ROOT
HETATM    1  C1  UNL     1      21.767   3.587  51.828  1.00  0.00     0.052 C 
HETATM    2  C2  UNL     1      21.233   2.177  51.747  1.00  0.00     0.110 A 
HETATM    3  N1  UNL     1      20.086   1.873  52.546  1.00  0.00    -0.370 N 
HETATM    4  C4  UNL     1      20.826   0.954  53.346  1.00  0.00     0.038 A 
HETATM    5  C5  UNL     1      20.898   0.057  54.378  1.00  0.00     0.032 A 
HETATM    6  C6  UNL     1      22.080  -0.561  54.651  1.00  0.00     0.031 A 
HETATM    7  C7  UNL     1      23.253  -0.356  53.958  1.00  0.00     0.028 A 
HETATM    8  C14 UNL     1      23.139   0.554  52.928  1.00  0.00     0.041 A 
HETATM    9  C15 UNL     1      21.960   1.210  52.607  1.00  0.00     0.005 A 
HETATM   10  H5  UNL     1      19.115   2.254  52.471  1.00  0.00     0.161 HD
ENDROOT
BRANCH   7  11
HETATM   11  N2  UNL     1      24.479  -1.010  54.252  1.00  0.00    -0.389 N 
HETATM   12  H8  UNL     1      24.670  -1.908  53.756  1.00  0.00     0.159 HD
BRANCH  11  13
HETATM   13  C8  UNL     1      25.437  -0.485  55.187  1.00  0.00     0.136 C 
BRANCH  13  14
HETATM   14  C9  UNL     1      26.502   0.308  54.519  1.00  0.00     0.056 A 
HETATM   15  C10 UNL     1      27.827   0.489  54.403  1.00  0.00     0.059 A 
HETATM   16  C11 UNL     1      29.104   1.074  53.928  1.00  0.00     0.006 C 
HETATM   17  C13 UNL     1      26.894   1.370  53.579  1.00  0.00     0.178 A 
HETATM   18  C12 UNL     1      28.820   2.377  53.706  1.00  0.00     0.082 C 
HETATM   19  N3  UNL     1      27.426   2.647  54.016  1.00  0.00    -0.368 N 
HETATM   20  H13 UNL     1      27.222   3.581  54.422  1.00  0.00     0.161 HD
BRANCH  17  21
HETATM   21  N4  UNL     1      26.964   1.058  52.176  1.00  0.00    -0.106 NA
HETATM   22  O2  UNL     1      26.486   0.105  51.685  1.00  0.00    -0.064 OA
ENDBRANCH  17  21
ENDBRANCH  13  14
ENDBRANCH  11  13
ENDBRANCH   7  11
BRANCH   2  23
HETATM   23  C3  UNL     1      21.048   1.726  50.351  1.00  0.00     0.267 C 
HETATM   24  O1  UNL     1      20.631   2.061  49.235  1.00  0.00    -0.304 OA
ENDBRANCH   2  23
TORSDOF 5
ENDMDL
MODEL 6
REMARK VINA RESULT:      -7.0      3.650      6.902
REMARK  5 active torsions:
REMARK  status: ('A' for Active; 'I' for Inactive)
REMARK    1  A    between atoms: C2_2  and  C3_3 
REMARK    2  A    between atoms: C7_9  and  N2_10 
REMARK    3  A    between atoms: N2_10  and  C8_11 
REMARK    4  A    between atoms: C8_11  and  C9_12 
REMARK    5  A    between atoms: C13_17  and  N4_18 
ROOT
HETATM    1  C1  UNL     1      20.893   0.235  51.104  1.00  0.00     0.052 C 
HETATM    2  C2  UNL     1      21.438   0.966  52.307  1.00  0.00     0.110 A 
HETATM    3  N1  UNL     1      20.988   2.309  52.505  1.00  0.00    -0.370 N 
HETATM    4  C4  UNL     1      22.296   2.833  52.289  1.00  0.00     0.038 A 
HETATM    5  C5  UNL     1      23.161   3.890  52.204  1.00  0.00     0.032 A 
HETATM    6  C6  UNL     1      24.475   3.665  51.926  1.00  0.00     0.031 A 
HETATM    7  C7  UNL     1      25.031   2.423  51.715  1.00  0.00     0.028 A 
HETATM    8  C14 UNL     1      24.129   1.385  51.808  1.00  0.00     0.041 A 
HETATM    9  C15 UNL     1      22.782   1.559  52.089  1.00  0.00     0.005 A 
HETATM   10  H5  UNL     1      20.024   2.653  52.723  1.00  0.00     0.161 HD
ENDROOT
BRANCH   7  11
HETATM   11  N2  UNL     1      26.405   2.202  51.428  1.00  0.00    -0.389 N 
HETATM   12  H8  UNL     1      26.647   1.905  50.458  1.00  0.00     0.159 HD
BRANCH  11  13
HETATM   13  C8  UNL     1      27.443   2.372  52.409  1.00  0.00     0.136 C 
BRANCH  13  14
HETATM   14  C9  UNL     1      27.921   1.076  52.957  1.00  0.00     0.056 A 
HETATM   15  C10 UNL     1      29.004   0.341  53.251  1.00  0.00     0.059 A 
HETATM   16  C11 UNL     1      29.800  -0.815  53.731  1.00  0.00     0.006 C 
HETATM   17  C13 UNL     1      27.625  -0.243  53.539  1.00  0.00     0.178 A 
HETATM   18  C12 UNL     1      29.040  -1.895  53.442  1.00  0.00     0.082 C 
HETATM   19  N3  UNL     1      27.802  -1.482  52.804  1.00  0.00    -0.368 N 
HETATM   20  H13 UNL     1      27.428  -2.121  52.076  1.00  0.00     0.161 HD
BRANCH  17  21
HETATM   21  N4  UNL     1      27.366  -0.331  54.951  1.00  0.00    -0.106 NA
HETATM   22  O2  UNL     1      26.318  -0.578  55.417  1.00  0.00    -0.064 OA
ENDBRANCH  17  21
ENDBRANCH  13  14
ENDBRANCH  11  13
ENDBRANCH   7  11
BRANCH   2  23
HETATM   23  C3  UNL     1      21.320   0.172  53.548  1.00  0.00     0.267 C 
HETATM   24  O1  UNL     1      20.518  -0.320  54.352  1.00  0.00    -0.304 OA
ENDBRANCH   2  23
TORSDOF 5
ENDMDL
MODEL 7
REMARK VINA RESULT:      -6.8      2.563      3.969
REMARK  5 active torsions:
REMARK  status: ('A' for Active; 'I' for Inactive)
REMARK    1  A    between atoms: C2_2  and  C3_3 
REMARK    2  A    between atoms: C7_9  and  N2_10 
REMARK    3  A    between atoms: N2_10  and  C8_11 
REMARK    4  A    between atoms: C8_11  and  C9_12 
REMARK    5  A    between atoms: C13_17  and  N4_18 
ROOT
HETATM    1  C1  UNL     1      26.921  -2.191  52.317  1.00  0.00     0.052 C 
HETATM    2  C2  UNL     1      27.418  -1.034  53.149  1.00  0.00     0.110 A 
HETATM    3  N1  UNL     1      26.741  -0.790  54.385  1.00  0.00    -0.370 N 
HETATM    4  C4  UNL     1      26.255   0.470  53.928  1.00  0.00     0.038 A 
HETATM    5  C5  UNL     1      25.539   1.619  54.129  1.00  0.00     0.032 A 
HETATM    6  C6  UNL     1      25.468   2.550  53.138  1.00  0.00     0.031 A 
HETATM    7  C7  UNL     1      26.072   2.434  51.906  1.00  0.00     0.028 A 
HETATM    8  C14 UNL     1      26.782   1.264  51.742  1.00  0.00     0.041 A 
HETATM    9  C15 UNL     1      26.888   0.284  52.718  1.00  0.00     0.005 A 
HETATM   10  H5  UNL     1      26.695  -1.394  55.238  1.00  0.00     0.161 HD
ENDROOT
BRANCH   7  11
HETATM   11  N2  UNL     1      25.992   3.415  50.882  1.00  0.00    -0.389 N 
HETATM   12  H8  UNL     1      26.612   4.250  50.973  1.00  0.00     0.159 HD
BRANCH  11  13
HETATM   13  C8  UNL     1      25.105   3.296  49.756  1.00  0.00     0.136 C 
BRANCH  13  14
HETATM   14  C9  UNL     1      23.741   2.861  50.154  1.00  0.00     0.056 A 
HETATM   15  C10 UNL     1      22.940   1.803  50.353  1.00  0.00     0.059 A 
HETATM   16  C11 UNL     1      21.711   1.047  50.695  1.00  0.00     0.006 C 
HETATM   17  C13 UNL     1      22.379   3.200  50.595  1.00  0.00     0.178 A 
HETATM   18  C12 UNL     1      20.697   1.849  50.302  1.00  0.00     0.082 C 
HETATM   19  N3  UNL     1      21.221   3.077  49.729  1.00  0.00    -0.368 N 
HETATM   20  H13 UNL     1      20.678   3.481  48.941  1.00  0.00     0.161 HD
BRANCH  17  21
HETATM   21  N4  UNL     1      22.148   3.449  51.994  1.00  0.00    -0.106 NA
HETATM   22  O2  UNL     1      22.244   4.501  52.503  1.00  0.00    -0.064 OA
ENDBRANCH  17  21
ENDBRANCH  13  14
ENDBRANCH  11  13
ENDBRANCH   7  11
BRANCH   2  23
HETATM   23  C3  UNL     1      28.884  -1.066  53.337  1.00  0.00     0.267 C 
HETATM   24  O1  UNL     1      29.888  -0.366  53.515  1.00  0.00    -0.304 OA
ENDBRANCH   2  23
TORSDOF 5
ENDMDL
MODEL 8
REMARK VINA RESULT:      -6.8      2.054      7.686
REMARK  5 active torsions:
REMARK  status: ('A' for Active; 'I' for Inactive)
REMARK    1  A    between atoms: C2_2  and  C3_3 
REMARK    2  A    between atoms: C7_9  and  N2_10 
REMARK    3  A    between atoms: N2_10  and  C8_11 
REMARK    4  A    between atoms: C8_11  and  C9_12 
REMARK    5  A    between atoms: C13_17  and  N4_18 
ROOT
HETATM    1  C1  UNL     1      22.215   4.379  47.850  1.00  0.00     0.052 C 
HETATM    2  C2  UNL     1      23.041   5.211  48.800  1.00  0.00     0.110 A 
HETATM    3  N1  UNL     1      23.963   6.135  48.216  1.00  0.00    -0.370 N 
HETATM    4  C4  UNL     1      25.083   5.427  48.743  1.00  0.00     0.038 A 
HETATM    5  C5  UNL     1      26.434   5.276  48.901  1.00  0.00     0.032 A 
HETATM    6  C6  UNL     1      26.914   4.230  49.630  1.00  0.00     0.031 A 
HETATM    7  C7  UNL     1      26.132   3.274  50.241  1.00  0.00     0.028 A 
HETATM    8  C14 UNL     1      24.779   3.461  50.057  1.00  0.00     0.041 A 
HETATM    9  C15 UNL     1      24.238   4.508  49.327  1.00  0.00     0.005 A 
HETATM   10  H5  UNL     1      23.765   6.982  47.635  1.00  0.00     0.161 HD
ENDROOT
BRANCH   7  11
HETATM   11  N2  UNL     1      26.647   2.189  51.000  1.00  0.00    -0.389 N 
HETATM   12  H8  UNL     1      26.908   1.325  50.477  1.00  0.00     0.159 HD
BRANCH  11  13
HETATM   13  C8  UNL     1      26.812   2.246  52.428  1.00  0.00     0.136 C 
BRANCH  13  14
HETATM   14  C9  UNL     1      27.557   1.074  52.957  1.00  0.00     0.056 A 
HETATM   15  C10 UNL     1      28.774   0.570  53.209  1.00  0.00     0.059 A 
HETATM   16  C11 UNL     1      29.800  -0.402  53.659  1.00  0.00     0.006 C 
HETATM   17  C13 UNL     1      27.549  -0.271  53.553  1.00  0.00     0.178 A 
HETATM   18  C12 UNL     1      29.257  -1.613  53.402  1.00  0.00     0.082 C 
HETATM   19  N3  UNL     1      27.939  -1.458  52.813  1.00  0.00    -0.368 N 
HETATM   20  H13 UNL     1      27.670  -2.165  52.101  1.00  0.00     0.161 HD
BRANCH  17  21
HETATM   21  N4  UNL     1      27.367  -0.396  54.975  1.00  0.00    -0.106 NA
HETATM   22  O2  UNL     1      26.323  -0.476  55.503  1.00  0.00    -0.064 OA
ENDBRANCH  17  21
ENDBRANCH  13  14
ENDBRANCH  11  13
ENDBRANCH   7  11
BRANCH   2  23
HETATM   23  C3  UNL     1      22.215   5.862  49.839  1.00  0.00     0.267 C 
HETATM   24  O1  UNL     1      22.049   5.983  51.059  1.00  0.00    -0.304 OA
ENDBRANCH   2  23
TORSDOF 5
ENDMDL
MODEL 9
REMARK VINA RESULT:      -6.7      2.930      7.360
REMARK  5 active torsions:
REMARK  status: ('A' for Active; 'I' for Inactive)
REMARK    1  A    between atoms: C2_2  and  C3_3 
REMARK    2  A    between atoms: C7_9  and  N2_10 
REMARK    3  A    between atoms: N2_10  and  C8_11 
REMARK    4  A    between atoms: C8_11  and  C9_12 
REMARK    5  A    between atoms: C13_17  and  N4_18 
ROOT
HETATM    1  C1  UNL     1      20.894   0.988  49.743  1.00  0.00     0.052 C 
HETATM    2  C2  UNL     1      21.100   2.387  50.271  1.00  0.00     0.110 A 
HETATM    3  N1  UNL     1      21.036   3.452  49.319  1.00  0.00    -0.370 N 
HETATM    4  C4  UNL     1      22.411   3.775  49.512  1.00  0.00     0.038 A 
HETATM    5  C5  UNL     1      23.512   4.536  49.226  1.00  0.00     0.032 A 
HETATM    6  C6  UNL     1      24.691   4.280  49.857  1.00  0.00     0.031 A 
HETATM    7  C7  UNL     1      24.882   3.286  50.790  1.00  0.00     0.028 A 
HETATM    8  C14 UNL     1      23.752   2.541  51.050  1.00  0.00     0.041 A 
HETATM    9  C15 UNL     1      22.527   2.760  50.438  1.00  0.00     0.005 A 
HETATM   10  H5  UNL     1      20.218   3.778  48.752  1.00  0.00     0.161 HD
ENDROOT
BRANCH   7  11
HETATM   11  N2  UNL     1      26.118   3.031  51.443  1.00  0.00    -0.389 N 
HETATM   12  H8  UNL     1      26.524   3.806  52.012  1.00  0.00     0.159 HD
BRANCH  11  13
HETATM   13  C8  UNL     1      26.806   1.772  51.346  1.00  0.00     0.136 C 
BRANCH  13  14
HETATM   14  C9  UNL     1      26.583   0.912  52.537  1.00  0.00     0.056 A 
HETATM   15  C10 UNL     1      25.702   0.126  53.174  1.00  0.00     0.059 A 
HETATM   16  C11 UNL     1      25.160  -0.776  54.219  1.00  0.00     0.006 C 
HETATM   17  C13 UNL     1      27.087   0.316  53.784  1.00  0.00     0.178 A 
HETATM   18  C12 UNL     1      25.751  -0.366  55.363  1.00  0.00     0.082 C 
HETATM   19  N3  UNL     1      26.642   0.750  55.095  1.00  0.00    -0.368 N 
HETATM   20  H13 UNL     1      26.706   1.471  55.840  1.00  0.00     0.161 HD
BRANCH  17  21
HETATM   21  N4  UNL     1      27.875  -0.886  53.705  1.00  0.00    -0.106 NA
HETATM   22  O2  UNL     1      28.957  -0.997  54.145  1.00  0.00    -0.064 OA
ENDBRANCH  17  21
ENDBRANCH  13  14
ENDBRANCH  11  13
ENDBRANCH   7  11
BRANCH   2  23
HETATM   23  C3  UNL     1      20.257   2.671  51.452  1.00  0.00     0.267 C 
HETATM   24  O1  UNL     1      20.192   3.316  52.505  1.00  0.00    -0.304 OA
ENDBRANCH   2  23
TORSDOF 5
ENDMDL
