MODEL 1
REMARK VINA RESULT:      -7.1      0.000      0.000
REMARK  9 active torsions:
REMARK  status: ('A' for Active; 'I' for Inactive)
REMARK    1  A    between atoms: C4_5  and  N1_6 
REMARK    2  A    between atoms: N1_6  and  C5_7 
REMARK    3  A    between atoms: N2_8  and  C6_9 
REMARK    4  A    between atoms: N3_10  and  C7_11 
REMARK    5  A    between atoms: C7_11  and  C8_12 
REMARK    6  A    between atoms: C8_12  and  C9_13 
REMARK    7  A    between atoms: C9_13  and  N4_14 
REMARK    8  A    between atoms: N4_14  and  C10_15 
REMARK    9  A    between atoms: C10_15  and  C11_16 
ROOT
HETATM    1  C7  UNL     1      20.487   0.236  53.132  1.00  0.00     0.155 C 
ENDROOT
BRANCH   1   2
HETATM    2  N3  UNL     1      21.147   0.893  52.014  1.00  0.00    -0.283 NA
HETATM    3  C6  UNL     1      21.178   0.358  50.840  1.00  0.00     0.227 C 
BRANCH   3   4
HETATM    4  N2  UNL     1      21.913   1.449  50.306  1.00  0.00    -0.238 NA
HETATM    5  C5  UNL     1      22.087   2.500  51.032  1.00  0.00     0.208 C 
BRANCH   5   6
HETATM    6  N1  UNL     1      22.853   3.467  50.291  1.00  0.00    -0.354 N 
HETATM    7  H4  UNL     1      22.473   4.290  49.740  1.00  0.00     0.166 HD
BRANCH   6   8
HETATM    8  C4  UNL     1      24.268   3.505  50.155  1.00  0.00     0.015 A 
HETATM    9  C3  UNL     1      25.312   2.701  50.876  1.00  0.00     0.086 A 
HETATM   10  C2  UNL     1      26.574   3.209  50.287  1.00  0.00     0.003 A 
HETATM   11  C1  UNL     1      26.267   4.130  49.399  1.00  0.00     0.032 A 
HETATM   12 CL1  UNL     1      27.701   4.817  48.620  1.00  0.00    -0.085 Cl
HETATM   13  C17 UNL     1      24.843   4.332  49.298  1.00  0.00     0.049 A 
ENDBRANCH   6   8
ENDBRANCH   5   6
ENDBRANCH   3   4
ENDBRANCH   1   2
BRANCH   1  14
HETATM   14  C8  UNL     1      21.434   0.282  54.316  1.00  0.00     0.092 C 
BRANCH  14  15
HETATM   15  C9  UNL     1      22.370  -0.909  54.357  1.00  0.00     0.204 A 
HETATM   16  N5  UNL     1      22.663  -1.448  55.668  1.00  0.00    -0.094 NA
HETATM   17  N6  UNL     1      21.899  -2.156  54.754  1.00  0.00    -0.094 NA
BRANCH  15  18
HETATM   18  N4  UNL     1      23.466  -0.856  53.437  1.00  0.00    -0.381 N 
HETATM   19  H11 UNL     1      24.076  -1.677  53.400  1.00  0.00     0.157 HD
BRANCH  18  20
HETATM   20  C10 UNL     1      24.152   0.405  53.410  1.00  0.00     0.156 C 
BRANCH  20  21
HETATM   21  C11 UNL     1      25.615   0.091  53.576  1.00  0.00    -0.041 A 
HETATM   22  C12 UNL     1      26.130  -0.743  52.606  1.00  0.00     0.009 A 
HETATM   23  C13 UNL     1      27.474  -1.087  52.680  1.00  0.00     0.001 A 
HETATM   24  C14 UNL     1      28.254  -0.588  53.716  1.00  0.00     0.000 A 
HETATM   25  C15 UNL     1      27.726   0.255  54.693  1.00  0.00     0.001 A 
HETATM   26  C16 UNL     1      26.394   0.585  54.603  1.00  0.00     0.009 A 
ENDBRANCH  20  21
ENDBRANCH  18  20
ENDBRANCH  15  18
ENDBRANCH  14  15
ENDBRANCH   1  14
TORSDOF 9
ENDMDL
MODEL 2
REMARK VINA RESULT:      -6.8      2.647      5.021
REMARK  9 active torsions:
REMARK  status: ('A' for Active; 'I' for Inactive)
REMARK    1  A    between atoms: C4_5  and  N1_6 
REMARK    2  A    between atoms: N1_6  and  C5_7 
REMARK    3  A    between atoms: N2_8  and  C6_9 
REMARK    4  A    between atoms: N3_10  and  C7_11 
REMARK    5  A    between atoms: C7_11  and  C8_12 
REMARK    6  A    between atoms: C8_12  and  C9_13 
REMARK    7  A    between atoms: C9_13  and  N4_14 
REMARK    8  A    between atoms: N4_14  and  C10_15 
REMARK    9  A    between atoms: C10_15  and  C11_16 
ROOT
HETATM    1  C7  UNL     1      22.090   3.559  48.935  1.00  0.00     0.155 C 
ENDROOT
BRANCH   1   2
HETATM    2  N3  UNL     1      23.364   3.851  49.574  1.00  0.00    -0.283 NA
HETATM    3  C6  UNL     1      24.103   4.836  49.188  1.00  0.00     0.227 C 
BRANCH   3   4
HETATM    4  N2  UNL     1      25.092   4.545  50.165  1.00  0.00    -0.238 NA
HETATM    5  C5  UNL     1      25.716   3.418  50.104  1.00  0.00     0.208 C 
BRANCH   5   6
HETATM    6  N1  UNL     1      26.663   3.342  51.186  1.00  0.00    -0.354 N 
HETATM    7  H4  UNL     1      27.231   4.141  51.589  1.00  0.00     0.166 HD
BRANCH   6   8
HETATM    8  C4  UNL     1      27.016   2.178  51.923  1.00  0.00     0.015 A 
HETATM    9  C3  UNL     1      27.950   2.042  53.091  1.00  0.00     0.086 A 
HETATM   10  C2  UNL     1      27.882   0.592  53.392  1.00  0.00     0.003 A 
HETATM   11  C1  UNL     1      27.053   0.037  52.534  1.00  0.00     0.032 A 
HETATM   12 CL1  UNL     1      26.885  -1.707  52.793  1.00  0.00    -0.085 Cl
HETATM   13  C17 UNL     1      26.502   0.999  51.613  1.00  0.00     0.049 A 
ENDBRANCH   6   8
ENDBRANCH   5   6
ENDBRANCH   3   4
ENDBRANCH   1   2
BRANCH   1  14
HETATM   14  C8  UNL     1      20.992   3.901  49.923  1.00  0.00     0.092 C 
BRANCH  14  15
HETATM   15  C9  UNL     1      21.183   3.219  51.263  1.00  0.00     0.204 A 
HETATM   16  N5  UNL     1      21.488   4.085  52.382  1.00  0.00    -0.094 NA
HETATM   17  N6  UNL     1      20.271   3.430  52.290  1.00  0.00    -0.094 NA
BRANCH  15  18
HETATM   18  N4  UNL     1      21.884   1.972  51.219  1.00  0.00    -0.381 N 
HETATM   19  H11 UNL     1      22.549   1.844  50.450  1.00  0.00     0.157 HD
BRANCH  18  20
HETATM   20  C10 UNL     1      21.066   0.827  51.503  1.00  0.00     0.156 C 
BRANCH  20  21
HETATM   21  C11 UNL     1      21.715   0.125  52.667  1.00  0.00    -0.041 A 
HETATM   22  C12 UNL     1      20.832  -0.522  53.504  1.00  0.00     0.009 A 
HETATM   23  C13 UNL     1      21.342  -1.197  54.606  1.00  0.00     0.001 A 
HETATM   24  C14 UNL     1      22.714  -1.200  54.832  1.00  0.00     0.000 A 
HETATM   25  C15 UNL     1      23.601  -0.543  53.982  1.00  0.00     0.001 A 
HETATM   26  C16 UNL     1      23.076   0.119  52.896  1.00  0.00     0.009 A 
ENDBRANCH  20  21
ENDBRANCH  18  20
ENDBRANCH  15  18
ENDBRANCH  14  15
ENDBRANCH   1  14
TORSDOF 9
ENDMDL
MODEL 3
REMARK VINA RESULT:      -6.8      2.630      5.527
REMARK  9 active torsions:
REMARK  status: ('A' for Active; 'I' for Inactive)
REMARK    1  A    between atoms: C4_5  and  N1_6 
REMARK    2  A    between atoms: N1_6  and  C5_7 
REMARK    3  A    between atoms: N2_8  and  C6_9 
REMARK    4  A    between atoms: N3_10  and  C7_11 
REMARK    5  A    between atoms: C7_11  and  C8_12 
REMARK    6  A    between atoms: C8_12  and  C9_13 
REMARK    7  A    between atoms: C9_13  and  N4_14 
REMARK    8  A    between atoms: N4_14  and  C10_15 
REMARK    9  A    between atoms: C10_15  and  C11_16 
ROOT
HETATM    1  C7  UNL     1      23.723   4.239  49.805  1.00  0.00     0.155 C 
ENDROOT
BRANCH   1   2
HETATM    2  N3  UNL     1      22.688   3.557  50.568  1.00  0.00    -0.283 NA
HETATM    3  C6  UNL     1      21.524   4.085  50.748  1.00  0.00     0.227 C 
BRANCH   3   4
HETATM    4  N2  UNL     1      21.079   2.970  51.506  1.00  0.00    -0.238 NA
HETATM    5  C5  UNL     1      21.453   1.787  51.155  1.00  0.00     0.208 C 
BRANCH   5   6
HETATM    6  N1  UNL     1      20.884   0.822  52.060  1.00  0.00    -0.354 N 
HETATM    7  H4  UNL     1      19.867   0.528  52.116  1.00  0.00     0.166 HD
BRANCH   6   8
HETATM    8  C4  UNL     1      21.579   0.079  53.053  1.00  0.00     0.015 A 
HETATM    9  C3  UNL     1      21.056  -0.967  53.995  1.00  0.00     0.086 A 
HETATM   10  C2  UNL     1      22.267  -1.347  54.761  1.00  0.00     0.003 A 
HETATM   11  C1  UNL     1      23.274  -0.630  54.311  1.00  0.00     0.032 A 
HETATM   12 CL1  UNL     1      24.789  -0.996  55.153  1.00  0.00    -0.085 Cl
HETATM   13  C17 UNL     1      22.875   0.262  53.251  1.00  0.00     0.049 A 
ENDBRANCH   6   8
ENDBRANCH   5   6
ENDBRANCH   3   4
ENDBRANCH   1   2
BRANCH   1  14
HETATM   14  C8  UNL     1      24.865   3.262  49.605  1.00  0.00     0.092 C 
BRANCH  14  15
HETATM   15  C9  UNL     1      26.199   3.830  50.049  1.00  0.00     0.204 A 
HETATM   16  N5  UNL     1      27.164   4.087  49.001  1.00  0.00    -0.094 NA
HETATM   17  N6  UNL     1      26.560   5.125  49.693  1.00  0.00    -0.094 NA
BRANCH  15  18
HETATM   18  N4  UNL     1      26.719   3.288  51.268  1.00  0.00    -0.381 N 
HETATM   19  H11 UNL     1      27.715   3.050  51.278  1.00  0.00     0.157 HD
BRANCH  18  20
HETATM   20  C10 UNL     1      25.863   2.320  51.893  1.00  0.00     0.156 C 
BRANCH  20  21
HETATM   21  C11 UNL     1      26.772   1.317  52.552  1.00  0.00    -0.041 A 
HETATM   22  C12 UNL     1      26.594   0.020  52.121  1.00  0.00     0.009 A 
HETATM   23  C13 UNL     1      27.391  -0.974  52.675  1.00  0.00     0.001 A 
HETATM   24  C14 UNL     1      28.335  -0.638  53.638  1.00  0.00     0.000 A 
HETATM   25  C15 UNL     1      28.510   0.676  54.070  1.00  0.00     0.001 A 
HETATM   26  C16 UNL     1      27.711   1.646  53.508  1.00  0.00     0.009 A 
ENDBRANCH  20  21
ENDBRANCH  18  20
ENDBRANCH  15  18
ENDBRANCH  14  15
ENDBRANCH   1  14
TORSDOF 9
ENDMDL
MODEL 4
REMARK VINA RESULT:      -6.8      3.360      5.336
REMARK  9 active torsions:
REMARK  status: ('A' for Active; 'I' for Inactive)
REMARK    1  A    between atoms: C4_5  and  N1_6 
REMARK    2  A    between atoms: N1_6  and  C5_7 
REMARK    3  A    between atoms: N2_8  and  C6_9 
REMARK    4  A    between atoms: N3_10  and  C7_11 
REMARK    5  A    between atoms: C7_11  and  C8_12 
REMARK    6  A    between atoms: C8_12  and  C9_13 
REMARK    7  A    between atoms: C9_13  and  N4_14 
REMARK    8  A    between atoms: N4_14  and  C10_15 
REMARK    9  A    between atoms: C10_15  and  C11_16 
ROOT
HETATM    1  C7  UNL     1      26.753   1.151  51.587  1.00  0.00     0.155 C 
ENDROOT
BRANCH   1   2
HETATM    2  N3  UNL     1      26.741   2.499  51.039  1.00  0.00    -0.283 NA
HETATM    3  C6  UNL     1      25.697   2.977  50.450  1.00  0.00     0.227 C 
BRANCH   3   4
HETATM    4  N2  UNL     1      26.345   4.216  50.198  1.00  0.00    -0.238 NA
HETATM    5  C5  UNL     1      27.034   4.351  49.116  1.00  0.00     0.208 C 
BRANCH   5   6
HETATM    6  N1  UNL     1      27.594   5.676  49.073  1.00  0.00    -0.354 N 
HETATM    7  H4  UNL     1      27.271   6.520  49.629  1.00  0.00     0.166 HD
BRANCH   6   8
HETATM    8  C4  UNL     1      28.690   6.108  48.277  1.00  0.00     0.015 A 
HETATM    9  C3  UNL     1      30.029   5.460  48.074  1.00  0.00     0.086 A 
HETATM   10  C2  UNL     1      30.705   6.397  47.145  1.00  0.00     0.003 A 
HETATM   11  C1  UNL     1      29.874   7.384  46.888  1.00  0.00     0.032 A 
HETATM   12 CL1  UNL     1      30.570   8.578  45.780  1.00  0.00    -0.085 Cl
HETATM   13  C17 UNL     1      28.617   7.229  47.577  1.00  0.00     0.049 A 
ENDBRANCH   6   8
ENDBRANCH   5   6
ENDBRANCH   3   4
ENDBRANCH   1   2
BRANCH   1  14
HETATM   14  C8  UNL     1      27.426   1.213  52.945  1.00  0.00     0.092 C 
BRANCH  14  15
HETATM   15  C9  UNL     1      27.223  -0.053  53.753  1.00  0.00     0.204 A 
HETATM   16  N5  UNL     1      28.369  -0.930  53.866  1.00  0.00    -0.094 NA
HETATM   17  N6  UNL     1      27.890  -0.227  54.960  1.00  0.00    -0.094 NA
BRANCH  15  18
HETATM   18  N4  UNL     1      25.953  -0.692  53.578  1.00  0.00    -0.381 N 
HETATM   19  H11 UNL     1      25.437  -0.464  52.723  1.00  0.00     0.157 HD
BRANCH  18  20
HETATM   20  C10 UNL     1      25.152  -0.745  54.768  1.00  0.00     0.156 C 
BRANCH  20  21
HETATM   21  C11 UNL     1      23.718  -0.706  54.312  1.00  0.00    -0.041 A 
HETATM   22  C12 UNL     1      23.525  -0.081  53.098  1.00  0.00     0.009 A 
HETATM   23  C13 UNL     1      22.231   0.002  52.598  1.00  0.00     0.001 A 
HETATM   24  C14 UNL     1      21.179  -0.540  53.327  1.00  0.00     0.000 A 
HETATM   25  C15 UNL     1      21.381  -1.171  54.554  1.00  0.00     0.001 A 
HETATM   26  C16 UNL     1      22.670  -1.243  55.031  1.00  0.00     0.009 A 
ENDBRANCH  20  21
ENDBRANCH  18  20
ENDBRANCH  15  18
ENDBRANCH  14  15
ENDBRANCH   1  14
TORSDOF 9
ENDMDL
MODEL 5
REMARK VINA RESULT:      -6.7      1.949      5.662
REMARK  9 active torsions:
REMARK  status: ('A' for Active; 'I' for Inactive)
REMARK    1  A    between atoms: C4_5  and  N1_6 
REMARK    2  A    between atoms: N1_6  and  C5_7 
REMARK    3  A    between atoms: N2_8  and  C6_9 
REMARK    4  A    between atoms: N3_10  and  C7_11 
REMARK    5  A    between atoms: C7_11  and  C8_12 
REMARK    6  A    between atoms: C8_12  and  C9_13 
REMARK    7  A    between atoms: C9_13  and  N4_14 
REMARK    8  A    between atoms: N4_14  and  C10_15 
REMARK    9  A    between atoms: C10_15  and  C11_16 
ROOT
HETATM    1  C7  UNL     1      20.644   0.949  51.021  1.00  0.00     0.155 C 
ENDROOT
BRANCH   1   2
HETATM    2  N3  UNL     1      21.642   0.247  51.813  1.00  0.00    -0.283 NA
HETATM    3  C6  UNL     1      21.486   0.055  53.079  1.00  0.00     0.227 C 
BRANCH   3   4
HETATM    4  N2  UNL     1      22.727  -0.628  53.182  1.00  0.00    -0.238 NA
HETATM    5  C5  UNL     1      23.821   0.050  53.104  1.00  0.00     0.208 C 
BRANCH   5   6
HETATM    6  N1  UNL     1      24.942  -0.844  53.232  1.00  0.00    -0.354 N 
HETATM    7  H4  UNL     1      24.955  -1.881  53.010  1.00  0.00     0.166 HD
BRANCH   6   8
HETATM    8  C4  UNL     1      26.249  -0.506  53.679  1.00  0.00     0.015 A 
HETATM    9  C3  UNL     1      26.663   0.279  54.890  1.00  0.00     0.086 A 
HETATM   10  C2  UNL     1      28.143   0.274  54.787  1.00  0.00     0.003 A 
HETATM   11  C1  UNL     1      28.473  -0.398  53.706  1.00  0.00     0.032 A 
HETATM   12 CL1  UNL     1      30.227  -0.475  53.472  1.00  0.00    -0.085 Cl
HETATM   13  C17 UNL     1      27.317  -0.893  53.001  1.00  0.00     0.049 A 
ENDBRANCH   6   8
ENDBRANCH   5   6
ENDBRANCH   3   4
ENDBRANCH   1   2
BRANCH   1  14
HETATM   14  C8  UNL     1      21.355   2.052  50.260  1.00  0.00     0.092 C 
BRANCH  14  15
HETATM   15  C9  UNL     1      21.800   3.186  51.162  1.00  0.00     0.204 A 
HETATM   16  N5  UNL     1      21.044   4.416  51.063  1.00  0.00    -0.094 NA
HETATM   17  N6  UNL     1      20.979   3.620  52.196  1.00  0.00    -0.094 NA
BRANCH  15  18
HETATM   18  N4  UNL     1      23.218   3.325  51.312  1.00  0.00    -0.381 N 
HETATM   19  H11 UNL     1      23.567   4.262  51.531  1.00  0.00     0.157 HD
BRANCH  18  20
HETATM   20  C10 UNL     1      23.986   2.610  50.334  1.00  0.00     0.156 C 
BRANCH  20  21
HETATM   21  C11 UNL     1      24.980   3.594  49.778  1.00  0.00    -0.041 A 
HETATM   22  C12 UNL     1      24.438   4.813  49.428  1.00  0.00     0.009 A 
HETATM   23  C13 UNL     1      25.283   5.784  48.905  1.00  0.00     0.001 A 
HETATM   24  C14 UNL     1      26.635   5.505  48.750  1.00  0.00     0.000 A 
HETATM   25  C15 UNL     1      27.177   4.270  49.105  1.00  0.00     0.001 A 
HETATM   26  C16 UNL     1      26.325   3.322  49.622  1.00  0.00     0.009 A 
ENDBRANCH  20  21
ENDBRANCH  18  20
ENDBRANCH  15  18
ENDBRANCH  14  15
ENDBRANCH   1  14
TORSDOF 9
ENDMDL
MODEL 6
REMARK VINA RESULT:      -6.7      2.748      4.992
REMARK  9 active torsions:
REMARK  status: ('A' for Active; 'I' for Inactive)
REMARK    1  A    between atoms: C4_5  and  N1_6 
REMARK    2  A    between atoms: N1_6  and  C5_7 
REMARK    3  A    between atoms: N2_8  and  C6_9 
REMARK    4  A    between atoms: N3_10  and  C7_11 
REMARK    5  A    between atoms: C7_11  and  C8_12 
REMARK    6  A    between atoms: C8_12  and  C9_13 
REMARK    7  A    between atoms: C9_13  and  N4_14 
REMARK    8  A    between atoms: N4_14  and  C10_15 
REMARK    9  A    between atoms: C10_15  and  C11_16 
ROOT
HETATM    1  C7  UNL     1      21.316   4.523  51.581  1.00  0.00     0.155 C 
ENDROOT
BRANCH   1   2
HETATM    2  N3  UNL     1      22.693   4.053  51.535  1.00  0.00    -0.283 NA
HETATM    3  C6  UNL     1      23.168   3.459  50.493  1.00  0.00     0.227 C 
BRANCH   3   4
HETATM    4  N2  UNL     1      24.442   3.300  51.102  1.00  0.00    -0.238 NA
HETATM    5  C5  UNL     1      25.500   3.430  50.377  1.00  0.00     0.208 C 
BRANCH   5   6
HETATM    6  N1  UNL     1      26.665   3.227  51.199  1.00  0.00    -0.354 N 
HETATM    7  H4  UNL     1      27.454   3.917  51.363  1.00  0.00     0.166 HD
BRANCH   6   8
HETATM    8  C4  UNL     1      26.981   2.061  51.948  1.00  0.00     0.015 A 
HETATM    9  C3  UNL     1      26.577   0.636  51.701  1.00  0.00     0.086 A 
HETATM   10  C2  UNL     1      27.222  -0.082  52.827  1.00  0.00     0.003 A 
HETATM   11  C1  UNL     1      27.866   0.802  53.558  1.00  0.00     0.032 A 
HETATM   12 CL1  UNL     1      28.684   0.061  54.943  1.00  0.00    -0.085 Cl
HETATM   13  C17 UNL     1      27.733   2.138  53.035  1.00  0.00     0.049 A 
ENDBRANCH   6   8
ENDBRANCH   5   6
ENDBRANCH   3   4
ENDBRANCH   1   2
BRANCH   1  14
HETATM   14  C8  UNL     1      20.493   3.618  50.684  1.00  0.00     0.092 C 
BRANCH  14  15
HETATM   15  C9  UNL     1      19.424   2.861  51.448  1.00  0.00     0.204 A 
HETATM   16  N5  UNL     1      18.300   3.642  51.917  1.00  0.00    -0.094 NA
HETATM   17  N6  UNL     1      18.154   2.707  50.904  1.00  0.00    -0.094 NA
BRANCH  15  18
HETATM   18  N4  UNL     1      19.911   1.852  52.340  1.00  0.00    -0.381 N 
HETATM   19  H11 UNL     1      20.297   2.174  53.232  1.00  0.00     0.157 HD
BRANCH  18  20
HETATM   20  C10 UNL     1      20.664   0.812  51.698  1.00  0.00     0.156 C 
BRANCH  20  21
HETATM   21  C11 UNL     1      21.435   0.117  52.789  1.00  0.00    -0.041 A 
HETATM   22  C12 UNL     1      22.799   0.304  52.728  1.00  0.00     0.009 A 
HETATM   23  C13 UNL     1      23.591  -0.302  53.695  1.00  0.00     0.001 A 
HETATM   24  C14 UNL     1      22.994  -1.071  54.686  1.00  0.00     0.000 A 
HETATM   25  C15 UNL     1      21.613  -1.257  54.742  1.00  0.00     0.001 A 
HETATM   26  C16 UNL     1      20.846  -0.648  53.775  1.00  0.00     0.009 A 
ENDBRANCH  20  21
ENDBRANCH  18  20
ENDBRANCH  15  18
ENDBRANCH  14  15
ENDBRANCH   1  14
TORSDOF 9
ENDMDL
MODEL 7
REMARK VINA RESULT:      -6.6      6.754     10.241
REMARK  9 active torsions:
REMARK  status: ('A' for Active; 'I' for Inactive)
REMARK    1  A    between atoms: C4_5  and  N1_6 
REMARK    2  A    between atoms: N1_6  and  C5_7 
REMARK    3  A    between atoms: N2_8  and  C6_9 
REMARK    4  A    between atoms: N3_10  and  C7_11 
REMARK    5  A    between atoms: C7_11  and  C8_12 
REMARK    6  A    between atoms: C8_12  and  C9_13 
REMARK    7  A    between atoms: C9_13  and  N4_14 
REMARK    8  A    between atoms: N4_14  and  C10_15 
REMARK    9  A    between atoms: C10_15  and  C11_16 
ROOT
HETATM    1  C7  UNL     1      29.730   8.758  47.816  1.00  0.00     0.155 C 
ENDROOT
BRANCH   1   2
HETATM    2  N3  UNL     1      30.777   7.897  48.345  1.00  0.00    -0.283 NA
HETATM    3  C6  UNL     1      31.419   8.201  49.422  1.00  0.00     0.227 C 
BRANCH   3   4
HETATM    4  N2  UNL     1      32.210   7.023  49.344  1.00  0.00    -0.238 NA
HETATM    5  C5  UNL     1      31.682   5.948  48.868  1.00  0.00     0.208 C 
BRANCH   5   6
HETATM    6  N1  UNL     1      32.660   4.891  48.886  1.00  0.00    -0.354 N 
HETATM    7  H4  UNL     1      32.930   4.292  49.718  1.00  0.00     0.166 HD
BRANCH   6   8
HETATM    8  C4  UNL     1      33.451   4.450  47.791  1.00  0.00     0.015 A 
HETATM    9  C3  UNL     1      34.522   3.398  47.757  1.00  0.00     0.086 A 
HETATM   10  C2  UNL     1      34.950   3.418  46.337  1.00  0.00     0.003 A 
HETATM   11  C1  UNL     1      34.234   4.326  45.709  1.00  0.00     0.032 A 
HETATM   12 CL1  UNL     1      34.655   4.446  43.993  1.00  0.00    -0.085 Cl
HETATM   13  C17 UNL     1      33.297   4.980  46.588  1.00  0.00     0.049 A 
ENDBRANCH   6   8
ENDBRANCH   5   6
ENDBRANCH   3   4
ENDBRANCH   1   2
BRANCH   1  14
HETATM   14  C8  UNL     1      29.156   9.549  48.976  1.00  0.00     0.092 C 
BRANCH  14  15
HETATM   15  C9  UNL     1      27.855   8.965  49.490  1.00  0.00     0.204 A 
HETATM   16  N5  UNL     1      27.315   9.568  50.690  1.00  0.00    -0.094 NA
HETATM   17  N6  UNL     1      26.690   9.724  49.463  1.00  0.00    -0.094 NA
BRANCH  15  18
HETATM   18  N4  UNL     1      27.744   7.541  49.392  1.00  0.00    -0.381 N 
HETATM   19  H11 UNL     1      28.609   7.004  49.499  1.00  0.00     0.157 HD
BRANCH  18  20
HETATM   20  C10 UNL     1      26.882   7.090  48.337  1.00  0.00     0.156 C 
BRANCH  20  21
HETATM   21  C11 UNL     1      26.349   5.751  48.773  1.00  0.00    -0.041 A 
HETATM   22  C12 UNL     1      24.976   5.698  48.892  1.00  0.00     0.009 A 
HETATM   23  C13 UNL     1      24.395   4.500  49.291  1.00  0.00     0.001 A 
HETATM   24  C14 UNL     1      25.204   3.402  49.557  1.00  0.00     0.000 A 
HETATM   25  C15 UNL     1      26.591   3.462  49.435  1.00  0.00     0.001 A 
HETATM   26  C16 UNL     1      27.147   4.657  49.038  1.00  0.00     0.009 A 
ENDBRANCH  20  21
ENDBRANCH  18  20
ENDBRANCH  15  18
ENDBRANCH  14  15
ENDBRANCH   1  14
TORSDOF 9
ENDMDL
MODEL 8
REMARK VINA RESULT:      -6.6      2.880      5.100
REMARK  9 active torsions:
REMARK  status: ('A' for Active; 'I' for Inactive)
REMARK    1  A    between atoms: C4_5  and  N1_6 
REMARK    2  A    between atoms: N1_6  and  C5_7 
REMARK    3  A    between atoms: N2_8  and  C6_9 
REMARK    4  A    between atoms: N3_10  and  C7_11 
REMARK    5  A    between atoms: C7_11  and  C8_12 
REMARK    6  A    between atoms: C8_12  and  C9_13 
REMARK    7  A    between atoms: C9_13  and  N4_14 
REMARK    8  A    between atoms: N4_14  and  C10_15 
REMARK    9  A    between atoms: C10_15  and  C11_16 
ROOT
HETATM    1  C7  UNL     1      26.585   1.719  52.058  1.00  0.00     0.155 C 
ENDROOT
BRANCH   1   2
HETATM    2  N3  UNL     1      25.342   2.422  52.338  1.00  0.00    -0.283 NA
HETATM    3  C6  UNL     1      25.123   2.974  53.484  1.00  0.00     0.227 C 
BRANCH   3   4
HETATM    4  N2  UNL     1      23.840   3.428  53.078  1.00  0.00    -0.238 NA
HETATM    5  C5  UNL     1      23.657   4.690  52.887  1.00  0.00     0.208 C 
BRANCH   5   6
HETATM    6  N1  UNL     1      22.293   4.916  52.484  1.00  0.00    -0.354 N 
HETATM    7  H4  UNL     1      21.703   5.771  52.696  1.00  0.00     0.166 HD
BRANCH   6   8
HETATM    8  C4  UNL     1      21.477   4.034  51.724  1.00  0.00     0.015 A 
HETATM    9  C3  UNL     1      20.175   3.387  52.098  1.00  0.00     0.086 A 
HETATM   10  C2  UNL     1      19.846   2.598  50.886  1.00  0.00     0.003 A 
HETATM   11  C1  UNL     1      20.805   2.787  50.006  1.00  0.00     0.032 A 
HETATM   12 CL1  UNL     1      20.525   1.891  48.504  1.00  0.00    -0.085 Cl
HETATM   13  C17 UNL     1      21.829   3.673  50.500  1.00  0.00     0.049 A 
ENDBRANCH   6   8
ENDBRANCH   5   6
ENDBRANCH   3   4
ENDBRANCH   1   2
BRANCH   1  14
HETATM   14  C8  UNL     1      27.273   1.456  53.384  1.00  0.00     0.092 C 
BRANCH  14  15
HETATM   15  C9  UNL     1      27.058   0.039  53.878  1.00  0.00     0.204 A 
HETATM   16  N5  UNL     1      28.207  -0.839  53.822  1.00  0.00    -0.094 NA
HETATM   17  N6  UNL     1      27.694  -0.402  55.033  1.00  0.00    -0.094 NA
BRANCH  15  18
HETATM   18  N4  UNL     1      25.798  -0.545  53.528  1.00  0.00    -0.381 N 
HETATM   19  H11 UNL     1      25.328  -0.164  52.702  1.00  0.00     0.157 HD
BRANCH  18  20
HETATM   20  C10 UNL     1      24.937  -0.800  54.647  1.00  0.00     0.156 C 
BRANCH  20  21
HETATM   21  C11 UNL     1      23.528  -0.673  54.131  1.00  0.00    -0.041 A 
HETATM   22  C12 UNL     1      22.560  -1.107  55.010  1.00  0.00     0.009 A 
HETATM   23  C13 UNL     1      21.229  -1.027  54.617  1.00  0.00     0.001 A 
HETATM   24  C14 UNL     1      20.915  -0.518  53.363  1.00  0.00     0.000 A 
HETATM   25  C15 UNL     1      21.899  -0.080  52.479  1.00  0.00     0.001 A 
HETATM   26  C16 UNL     1      23.210  -0.167  52.887  1.00  0.00     0.009 A 
ENDBRANCH  20  21
ENDBRANCH  18  20
ENDBRANCH  15  18
ENDBRANCH  14  15
ENDBRANCH   1  14
TORSDOF 9
ENDMDL
MODEL 9
REMARK VINA RESULT:      -6.5      3.183      7.516
REMARK  9 active torsions:
REMARK  status: ('A' for Active; 'I' for Inactive)
REMARK    1  A    between atoms: C4_5  and  N1_6 
REMARK    2  A    between atoms: N1_6  and  C5_7 
REMARK    3  A    between atoms: N2_8  and  C6_9 
REMARK    4  A    between atoms: N3_10  and  C7_11 
REMARK    5  A    between atoms: C7_11  and  C8_12 
REMARK    6  A    between atoms: C8_12  and  C9_13 
REMARK    7  A    between atoms: C9_13  and  N4_14 
REMARK    8  A    between atoms: N4_14  and  C10_15 
REMARK    9  A    between atoms: C10_15  and  C11_16 
ROOT
HETATM    1  C7  UNL     1      26.569   2.667  50.783  1.00  0.00     0.155 C 
ENDROOT
BRANCH   1   2
HETATM    2  N3  UNL     1      26.366   1.921  52.015  1.00  0.00    -0.283 NA
HETATM    3  C6  UNL     1      27.318   1.762  52.872  1.00  0.00     0.227 C 
BRANCH   3   4
HETATM    4  N2  UNL     1      26.482   1.010  53.739  1.00  0.00    -0.238 NA
HETATM    5  C5  UNL     1      26.245  -0.226  53.461  1.00  0.00     0.208 C 
BRANCH   5   6
HETATM    6  N1  UNL     1      25.380  -0.782  54.470  1.00  0.00    -0.354 N 
HETATM    7  H4  UNL     1      25.678  -1.226  55.386  1.00  0.00     0.166 HD
BRANCH   6   8
HETATM    8  C4  UNL     1      23.960  -0.841  54.430  1.00  0.00     0.015 A 
HETATM    9  C3  UNL     1      23.005  -1.389  55.451  1.00  0.00     0.086 A 
HETATM   10  C2  UNL     1      21.685  -1.154  54.817  1.00  0.00     0.003 A 
HETATM   11  C1  UNL     1      21.890  -0.577  53.653  1.00  0.00     0.032 A 
HETATM   12 CL1  UNL     1      20.379  -0.242  52.793  1.00  0.00    -0.085 Cl
HETATM   13  C17 UNL     1      23.293  -0.371  53.389  1.00  0.00     0.049 A 
ENDBRANCH   6   8
ENDBRANCH   5   6
ENDBRANCH   3   4
ENDBRANCH   1   2
BRANCH   1  14
HETATM   14  C8  UNL     1      25.203   3.060  50.254  1.00  0.00     0.092 C 
BRANCH  14  15
HETATM   15  C9  UNL     1      24.750   4.413  50.765  1.00  0.00     0.204 A 
HETATM   16  N5  UNL     1      23.319   4.625  50.830  1.00  0.00    -0.094 NA
HETATM   17  N6  UNL     1      24.082   4.512  51.981  1.00  0.00    -0.094 NA
BRANCH  15  18
HETATM   18  N4  UNL     1      25.535   5.527  50.326  1.00  0.00    -0.381 N 
HETATM   19  H11 UNL     1      25.512   6.366  50.912  1.00  0.00     0.157 HD
BRANCH  18  20
HETATM   20  C10 UNL     1      25.463   5.777  48.914  1.00  0.00     0.156 C 
BRANCH  20  21
HETATM   21  C11 UNL     1      26.871   6.067  48.466  1.00  0.00    -0.041 A 
HETATM   22  C12 UNL     1      27.042   7.313  47.903  1.00  0.00     0.009 A 
HETATM   23  C13 UNL     1      28.311   7.667  47.459  1.00  0.00     0.001 A 
HETATM   24  C14 UNL     1      29.360   6.766  47.594  1.00  0.00     0.000 A 
HETATM   25  C15 UNL     1      29.180   5.507  48.165  1.00  0.00     0.001 A 
HETATM   26  C16 UNL     1      27.917   5.175  48.598  1.00  0.00     0.009 A 
ENDBRANCH  20  21
ENDBRANCH  18  20
ENDBRANCH  15  18
ENDBRANCH  14  15
ENDBRANCH   1  14
TORSDOF 9
ENDMDL
