MODEL 1
REMARK VINA RESULT:      -8.0      0.000      0.000
REMARK  6 active torsions:
REMARK  status: ('A' for Active; 'I' for Inactive)
REMARK    1  A    between atoms: C2_2  and  C3_3 
REMARK    2  A    between atoms: C2_2  and  N1_5 
REMARK    3  A    between atoms: N1_5  and  C4_6 
REMARK    4  A    between atoms: C7_9  and  N2_10 
REMARK    5  A    between atoms: C8_11  and  C9_12 
REMARK    6  A    between atoms: N4_15  and  C11_16 
ROOT
HETATM    1  C9  UNL     1      25.062  -0.291  53.155  1.00  0.00     0.154 C 
HETATM    2  C10 UNL     1      25.388  -0.596  54.557  1.00  0.00     0.121 C 
HETATM    3  N3  UNL     1      25.669  -0.838  55.682  1.00  0.00    -0.190 NA
HETATM    4  N4  UNL     1      26.089  -0.117  52.417  1.00  0.00    -0.237 NA
ENDROOT
BRANCH   1   5
HETATM    5  C8  UNL     1      23.611  -0.283  53.047  1.00  0.00     0.160 C 
HETATM    6  N2  UNL     1      22.760   0.530  52.496  1.00  0.00    -0.258 NA
BRANCH   6   7
HETATM    7  C7  UNL     1      21.388   0.136  52.637  1.00  0.00     0.056 A 
HETATM    8  C6  UNL     1      20.203   0.490  52.038  1.00  0.00     0.034 A 
HETATM    9  C5  UNL     1      19.029  -0.093  52.412  1.00  0.00     0.031 A 
HETATM   10  C4  UNL     1      18.973  -1.065  53.408  1.00  0.00     0.028 A 
HETATM   11  C18 UNL     1      20.139  -1.443  54.027  1.00  0.00     0.031 A 
HETATM   12  C17 UNL     1      21.334  -0.848  53.643  1.00  0.00     0.034 A 
BRANCH  10  13
HETATM   13  N1  UNL     1      17.742  -1.659  53.783  1.00  0.00    -0.385 N 
HETATM   14  H7  UNL     1      17.298  -1.402  54.686  1.00  0.00     0.160 HD
BRANCH  13  15
HETATM   15  C2  UNL     1      17.032  -2.635  52.981  1.00  0.00     0.087 C 
HETATM   16  C1  UNL     1      16.974  -3.983  53.659  1.00  0.00     0.033 C 
BRANCH  15  17
HETATM   17  C3  UNL     1      15.634  -2.170  52.638  1.00  0.00     0.109 C 
HETATM   18 BR1  UNL     1      15.652  -1.110  51.024  1.00  0.00    -0.094 Br
ENDBRANCH  15  17
ENDBRANCH  13  15
ENDBRANCH  10  13
ENDBRANCH   6   7
ENDBRANCH   1   5
BRANCH   4  19
HETATM   19  C11 UNL     1      27.393  -0.213  52.906  1.00  0.00     0.058 A 
HETATM   20  C12 UNL     1      27.819  -1.546  52.809  1.00  0.00     0.031 A 
HETATM   21  C13 UNL     1      29.099  -1.944  53.223  1.00  0.00     0.002 A 
HETATM   22  C14 UNL     1      29.903  -0.952  53.723  1.00  0.00     0.000 A 
HETATM   23  C15 UNL     1      29.564   0.379  53.850  1.00  0.00     0.002 A 
HETATM   24  C16 UNL     1      28.299   0.695  53.426  1.00  0.00     0.031 A 
ENDBRANCH   4  19
TORSDOF 6
ENDMDL
MODEL 2
REMARK VINA RESULT:      -7.5      1.191      1.770
REMARK  6 active torsions:
REMARK  status: ('A' for Active; 'I' for Inactive)
REMARK    1  A    between atoms: C2_2  and  C3_3 
REMARK    2  A    between atoms: C2_2  and  N1_5 
REMARK    3  A    between atoms: N1_5  and  C4_6 
REMARK    4  A    between atoms: C7_9  and  N2_10 
REMARK    5  A    between atoms: C8_11  and  C9_12 
REMARK    6  A    between atoms: N4_15  and  C11_16 
ROOT
HETATM    1  C9  UNL     1      25.070  -0.259  53.052  1.00  0.00     0.154 C 
HETATM    2  C10 UNL     1      25.332  -0.649  54.447  1.00  0.00     0.121 C 
HETATM    3  N3  UNL     1      25.562  -0.958  55.567  1.00  0.00    -0.190 NA
HETATM    4  N4  UNL     1      26.130  -0.073  52.366  1.00  0.00    -0.237 NA
ENDROOT
BRANCH   1   5
HETATM    5  C8  UNL     1      23.626  -0.208  52.888  1.00  0.00     0.160 C 
HETATM    6  N2  UNL     1      22.829   0.574  52.223  1.00  0.00    -0.258 NA
BRANCH   6   7
HETATM    7  C7  UNL     1      21.438   0.249  52.351  1.00  0.00     0.056 A 
HETATM    8  C6  UNL     1      20.647  -0.290  53.337  1.00  0.00     0.034 A 
HETATM    9  C5  UNL     1      19.311  -0.477  53.138  1.00  0.00     0.031 A 
HETATM   10  C4  UNL     1      18.689  -0.135  51.940  1.00  0.00     0.028 A 
HETATM   11  C18 UNL     1      19.450   0.406  50.934  1.00  0.00     0.031 A 
HETATM   12  C17 UNL     1      20.811   0.596  51.139  1.00  0.00     0.034 A 
BRANCH  10  13
HETATM   13  N1  UNL     1      17.299  -0.338  51.753  1.00  0.00    -0.385 N 
HETATM   14  H7  UNL     1      16.857  -0.084  50.848  1.00  0.00     0.160 HD
BRANCH  13  15
HETATM   15  C2  UNL     1      16.415  -0.885  52.762  1.00  0.00     0.087 C 
HETATM   16  C1  UNL     1      15.164  -0.054  52.922  1.00  0.00     0.033 C 
BRANCH  15  17
HETATM   17  C3  UNL     1      16.043  -2.321  52.464  1.00  0.00     0.109 C 
HETATM   18 BR1  UNL     1      17.123  -3.529  53.515  1.00  0.00    -0.094 Br
ENDBRANCH  15  17
ENDBRANCH  13  15
ENDBRANCH  10  13
ENDBRANCH   6   7
ENDBRANCH   1   5
BRANCH   4  19
HETATM   19  C11 UNL     1      27.411  -0.229  52.899  1.00  0.00     0.058 A 
HETATM   20  C12 UNL     1      27.798  -1.571  52.769  1.00  0.00     0.031 A 
HETATM   21  C13 UNL     1      29.048  -2.025  53.216  1.00  0.00     0.002 A 
HETATM   22  C14 UNL     1      29.863  -1.078  53.782  1.00  0.00     0.000 A 
HETATM   23  C15 UNL     1      29.561   0.258  53.945  1.00  0.00     0.002 A 
HETATM   24  C16 UNL     1      28.324   0.629  53.486  1.00  0.00     0.031 A 
ENDBRANCH   4  19
TORSDOF 6
ENDMDL
MODEL 3
REMARK VINA RESULT:      -7.0      1.536      2.306
REMARK  6 active torsions:
REMARK  status: ('A' for Active; 'I' for Inactive)
REMARK    1  A    between atoms: C2_2  and  C3_3 
REMARK    2  A    between atoms: C2_2  and  N1_5 
REMARK    3  A    between atoms: N1_5  and  C4_6 
REMARK    4  A    between atoms: C7_9  and  N2_10 
REMARK    5  A    between atoms: C8_11  and  C9_12 
REMARK    6  A    between atoms: N4_15  and  C11_16 
ROOT
HETATM    1  C9  UNL     1      24.678  -0.030  53.129  1.00  0.00     0.154 C 
HETATM    2  C10 UNL     1      25.065  -0.581  54.438  1.00  0.00     0.121 C 
HETATM    3  N3  UNL     1      25.395  -1.017  55.488  1.00  0.00    -0.190 NA
HETATM    4  N4  UNL     1      25.665   0.391  52.439  1.00  0.00    -0.237 NA
ENDROOT
BRANCH   1   5
HETATM    5  C8  UNL     1      23.231  -0.146  53.030  1.00  0.00     0.160 C 
HETATM    6  N2  UNL     1      22.347   0.363  52.225  1.00  0.00    -0.258 NA
BRANCH   6   7
HETATM    7  C7  UNL     1      20.996  -0.032  52.503  1.00  0.00     0.056 A 
HETATM    8  C6  UNL     1      20.361  -0.685  53.532  1.00  0.00     0.034 A 
HETATM    9  C5  UNL     1      19.018  -0.912  53.492  1.00  0.00     0.031 A 
HETATM   10  C4  UNL     1      18.231  -0.500  52.420  1.00  0.00     0.028 A 
HETATM   11  C18 UNL     1      18.834   0.156  51.374  1.00  0.00     0.031 A 
HETATM   12  C17 UNL     1      20.203   0.387  51.418  1.00  0.00     0.034 A 
BRANCH  10  13
HETATM   13  N1  UNL     1      16.836  -0.746  52.397  1.00  0.00    -0.385 N 
HETATM   14  H7  UNL     1      16.466  -1.655  52.739  1.00  0.00     0.160 HD
BRANCH  13  15
HETATM   15  C2  UNL     1      15.851   0.200  51.913  1.00  0.00     0.087 C 
HETATM   16  C1  UNL     1      15.221  -0.257  50.619  1.00  0.00     0.033 C 
BRANCH  15  17
HETATM   17  C3  UNL     1      14.775   0.467  52.943  1.00  0.00     0.109 C 
HETATM   18 BR1  UNL     1      13.437   1.661  52.226  1.00  0.00    -0.094 Br
ENDBRANCH  15  17
ENDBRANCH  13  15
ENDBRANCH  10  13
ENDBRANCH   6   7
ENDBRANCH   1   5
BRANCH   4  19
HETATM   19  C11 UNL     1      26.984   0.329  52.893  1.00  0.00     0.058 A 
HETATM   20  C12 UNL     1      27.397   1.615  53.273  1.00  0.00     0.031 A 
HETATM   21  C13 UNL     1      28.683   1.857  53.777  1.00  0.00     0.002 A 
HETATM   22  C14 UNL     1      29.506   0.764  53.875  1.00  0.00     0.000 A 
HETATM   23  C15 UNL     1      29.179  -0.530  53.526  1.00  0.00     0.002 A 
HETATM   24  C16 UNL     1      27.907  -0.692  53.042  1.00  0.00     0.031 A 
ENDBRANCH   4  19
TORSDOF 6
ENDMDL
MODEL 4
REMARK VINA RESULT:      -7.0      1.240      1.883
REMARK  6 active torsions:
REMARK  status: ('A' for Active; 'I' for Inactive)
REMARK    1  A    between atoms: C2_2  and  C3_3 
REMARK    2  A    between atoms: C2_2  and  N1_5 
REMARK    3  A    between atoms: N1_5  and  C4_6 
REMARK    4  A    between atoms: C7_9  and  N2_10 
REMARK    5  A    between atoms: C8_11  and  C9_12 
REMARK    6  A    between atoms: N4_15  and  C11_16 
ROOT
HETATM    1  C9  UNL     1      25.017  -0.149  53.240  1.00  0.00     0.154 C 
HETATM    2  C10 UNL     1      25.648   0.780  52.290  1.00  0.00     0.121 C 
HETATM    3  N3  UNL     1      26.175   1.522  51.531  1.00  0.00    -0.190 NA
HETATM    4  N4  UNL     1      25.846  -0.716  54.028  1.00  0.00    -0.237 NA
ENDROOT
BRANCH   1   5
HETATM    5  C8  UNL     1      23.588  -0.127  52.972  1.00  0.00     0.160 C 
HETATM    6  N2  UNL     1      22.535  -0.243  53.725  1.00  0.00    -0.258 NA
BRANCH   6   7
HETATM    7  C7  UNL     1      21.289  -0.159  53.018  1.00  0.00     0.056 A 
HETATM    8  C6  UNL     1      20.867   0.426  51.849  1.00  0.00     0.034 A 
HETATM    9  C5  UNL     1      19.571   0.318  51.441  1.00  0.00     0.031 A 
HETATM   10  C4  UNL     1      18.621  -0.383  52.180  1.00  0.00     0.028 A 
HETATM   11  C18 UNL     1      19.010  -0.981  53.354  1.00  0.00     0.031 A 
HETATM   12  C17 UNL     1      20.331  -0.869  53.767  1.00  0.00     0.034 A 
BRANCH  10  13
HETATM   13  N1  UNL     1      17.279  -0.485  51.739  1.00  0.00    -0.385 N 
HETATM   14  H7  UNL     1      17.054  -0.355  50.733  1.00  0.00     0.160 HD
BRANCH  13  15
HETATM   15  C2  UNL     1      16.155  -0.759  52.612  1.00  0.00     0.087 C 
HETATM   16  C1  UNL     1      15.178   0.392  52.648  1.00  0.00     0.033 C 
BRANCH  15  17
HETATM   17  C3  UNL     1      15.436  -2.032  52.219  1.00  0.00     0.109 C 
HETATM   18 BR1  UNL     1      14.784  -1.905  50.406  1.00  0.00    -0.094 Br
ENDBRANCH  15  17
ENDBRANCH  13  15
ENDBRANCH  10  13
ENDBRANCH   6   7
ENDBRANCH   1   5
BRANCH   4  19
HETATM   19  C11 UNL     1      27.219  -0.468  53.985  1.00  0.00     0.058 A 
HETATM   20  C12 UNL     1      27.846  -1.502  53.273  1.00  0.00     0.031 A 
HETATM   21  C13 UNL     1      29.233  -1.516  53.062  1.00  0.00     0.002 A 
HETATM   22  C14 UNL     1      29.932  -0.462  53.592  1.00  0.00     0.000 A 
HETATM   23  C15 UNL     1      29.394   0.592  54.301  1.00  0.00     0.002 A 
HETATM   24  C16 UNL     1      28.034   0.540  54.467  1.00  0.00     0.031 A 
ENDBRANCH   4  19
TORSDOF 6
ENDMDL
MODEL 5
REMARK VINA RESULT:      -6.9      6.810     10.541
REMARK  6 active torsions:
REMARK  status: ('A' for Active; 'I' for Inactive)
REMARK    1  A    between atoms: C2_2  and  C3_3 
REMARK    2  A    between atoms: C2_2  and  N1_5 
REMARK    3  A    between atoms: N1_5  and  C4_6 
REMARK    4  A    between atoms: C7_9  and  N2_10 
REMARK    5  A    between atoms: C8_11  and  C9_12 
REMARK    6  A    between atoms: N4_15  and  C11_16 
ROOT
HETATM    1  C9  UNL     1      24.383   2.341  51.647  1.00  0.00     0.154 C 
HETATM    2  C10 UNL     1      25.031   2.424  52.965  1.00  0.00     0.121 C 
HETATM    3  N3  UNL     1      25.543   2.475  54.033  1.00  0.00    -0.190 NA
HETATM    4  N4  UNL     1      23.470   1.452  51.581  1.00  0.00    -0.237 NA
ENDROOT
BRANCH   1   5
HETATM    5  C8  UNL     1      25.015   3.340  50.799  1.00  0.00     0.160 C 
HETATM    6  N2  UNL     1      24.649   3.947  49.709  1.00  0.00    -0.258 NA
BRANCH   6   7
HETATM    7  C7  UNL     1      25.612   4.881  49.200  1.00  0.00     0.056 A 
HETATM    8  C6  UNL     1      25.586   6.200  48.817  1.00  0.00     0.034 A 
HETATM    9  C5  UNL     1      26.713   6.818  48.362  1.00  0.00     0.031 A 
HETATM   10  C4  UNL     1      27.931   6.151  48.264  1.00  0.00     0.028 A 
HETATM   11  C18 UNL     1      27.992   4.832  48.639  1.00  0.00     0.031 A 
HETATM   12  C17 UNL     1      26.843   4.204  49.103  1.00  0.00     0.034 A 
BRANCH  10  13
HETATM   13  N1  UNL     1      29.091   6.811  47.788  1.00  0.00    -0.385 N 
HETATM   14  H7  UNL     1      29.447   6.607  46.834  1.00  0.00     0.160 HD
BRANCH  13  15
HETATM   15  C2  UNL     1      29.849   7.779  48.556  1.00  0.00     0.087 C 
HETATM   16  C1  UNL     1      31.159   7.207  49.043  1.00  0.00     0.033 C 
BRANCH  15  17
HETATM   17  C3  UNL     1      30.101   9.047  47.770  1.00  0.00     0.109 C 
HETATM   18 BR1  UNL     1      30.561  10.497  48.960  1.00  0.00    -0.094 Br
ENDBRANCH  15  17
ENDBRANCH  13  15
ENDBRANCH  10  13
ENDBRANCH   6   7
ENDBRANCH   1   5
BRANCH   4  19
HETATM   19  C11 UNL     1      23.124   0.643  52.666  1.00  0.00     0.058 A 
HETATM   20  C12 UNL     1      21.829   0.976  53.088  1.00  0.00     0.031 A 
HETATM   21  C13 UNL     1      21.212   0.319  54.163  1.00  0.00     0.002 A 
HETATM   22  C14 UNL     1      21.951  -0.663  54.770  1.00  0.00     0.000 A 
HETATM   23  C15 UNL     1      23.227  -1.052  54.418  1.00  0.00     0.002 A 
HETATM   24  C16 UNL     1      23.766  -0.367  53.359  1.00  0.00     0.031 A 
ENDBRANCH   4  19
TORSDOF 6
ENDMDL
MODEL 6
REMARK VINA RESULT:      -6.9      2.132      2.784
REMARK  6 active torsions:
REMARK  status: ('A' for Active; 'I' for Inactive)
REMARK    1  A    between atoms: C2_2  and  C3_3 
REMARK    2  A    between atoms: C2_2  and  N1_5 
REMARK    3  A    between atoms: N1_5  and  C4_6 
REMARK    4  A    between atoms: C7_9  and  N2_10 
REMARK    5  A    between atoms: C8_11  and  C9_12 
REMARK    6  A    between atoms: N4_15  and  C11_16 
ROOT
HETATM    1  C9  UNL     1      25.106   0.230  52.807  1.00  0.00     0.154 C 
HETATM    2  C10 UNL     1      25.193  -0.417  54.126  1.00  0.00     0.121 C 
HETATM    3  N3  UNL     1      25.283  -0.938  55.186  1.00  0.00    -0.190 NA
HETATM    4  N4  UNL     1      26.215   0.254  52.175  1.00  0.00    -0.237 NA
ENDROOT
BRANCH   1   5
HETATM    5  C8  UNL     1      23.726   0.654  52.631  1.00  0.00     0.160 C 
HETATM    6  N2  UNL     1      22.624   0.400  53.272  1.00  0.00    -0.258 NA
BRANCH   6   7
HETATM    7  C7  UNL     1      21.464   1.050  52.736  1.00  0.00     0.056 A 
HETATM    8  C6  UNL     1      21.033   2.351  52.631  1.00  0.00     0.034 A 
HETATM    9  C5  UNL     1      19.839   2.647  52.045  1.00  0.00     0.031 A 
HETATM   10  C4  UNL     1      19.005   1.658  51.529  1.00  0.00     0.028 A 
HETATM   11  C18 UNL     1      19.405   0.347  51.617  1.00  0.00     0.031 A 
HETATM   12  C17 UNL     1      20.623   0.049  52.214  1.00  0.00     0.034 A 
BRANCH  10  13
HETATM   13  N1  UNL     1      17.767   1.986  50.924  1.00  0.00    -0.385 N 
HETATM   14  H7  UNL     1      17.751   2.409  49.975  1.00  0.00     0.160 HD
BRANCH  13  15
HETATM   15  C2  UNL     1      16.476   1.776  51.547  1.00  0.00     0.087 C 
HETATM   16  C1  UNL     1      15.905   3.059  52.103  1.00  0.00     0.033 C 
BRANCH  15  17
HETATM   17  C3  UNL     1      15.487   1.143  50.593  1.00  0.00     0.109 C 
HETATM   18 BR1  UNL     1      16.298  -0.349  49.673  1.00  0.00    -0.094 Br
ENDBRANCH  15  17
ENDBRANCH  13  15
ENDBRANCH  10  13
ENDBRANCH   6   7
ENDBRANCH   1   5
BRANCH   4  19
HETATM   19  C11 UNL     1      27.392  -0.287  52.696  1.00  0.00     0.058 A 
HETATM   20  C12 UNL     1      28.175   0.750  53.225  1.00  0.00     0.031 A 
HETATM   21  C13 UNL     1      29.419   0.502  53.824  1.00  0.00     0.002 A 
HETATM   22  C14 UNL     1      29.818  -0.809  53.861  1.00  0.00     0.000 A 
HETATM   23  C15 UNL     1      29.110  -1.885  53.367  1.00  0.00     0.002 A 
HETATM   24  C16 UNL     1      27.904  -1.569  52.796  1.00  0.00     0.031 A 
ENDBRANCH   4  19
TORSDOF 6
ENDMDL
MODEL 7
REMARK VINA RESULT:      -6.8      8.128     10.139
REMARK  6 active torsions:
REMARK  status: ('A' for Active; 'I' for Inactive)
REMARK    1  A    between atoms: C2_2  and  C3_3 
REMARK    2  A    between atoms: C2_2  and  N1_5 
REMARK    3  A    between atoms: N1_5  and  C4_6 
REMARK    4  A    between atoms: C7_9  and  N2_10 
REMARK    5  A    between atoms: C8_11  and  C9_12 
REMARK    6  A    between atoms: N4_15  and  C11_16 
ROOT
HETATM    1  C9  UNL     1      30.694   5.152  47.671  1.00  0.00     0.154 C 
HETATM    2  C10 UNL     1      31.635   6.280  47.595  1.00  0.00     0.121 C 
HETATM    3  N3  UNL     1      32.406   7.177  47.523  1.00  0.00    -0.190 NA
HETATM    4  N4  UNL     1      31.185   4.047  47.264  1.00  0.00    -0.237 NA
ENDROOT
BRANCH   1   5
HETATM    5  C8  UNL     1      29.448   5.674  48.211  1.00  0.00     0.160 C 
HETATM    6  N2  UNL     1      28.530   6.463  47.738  1.00  0.00    -0.258 NA
BRANCH   6   7
HETATM    7  C7  UNL     1      27.445   6.717  48.641  1.00  0.00     0.056 A 
HETATM    8  C6  UNL     1      26.946   7.825  49.283  1.00  0.00     0.034 A 
HETATM    9  C5  UNL     1      25.862   7.729  50.105  1.00  0.00     0.031 A 
HETATM   10  C4  UNL     1      25.214   6.517  50.332  1.00  0.00     0.028 A 
HETATM   11  C18 UNL     1      25.687   5.390  49.706  1.00  0.00     0.031 A 
HETATM   12  C17 UNL     1      26.790   5.491  48.869  1.00  0.00     0.034 A 
BRANCH  10  13
HETATM   13  N1  UNL     1      24.090   6.438  51.190  1.00  0.00    -0.385 N 
HETATM   14  H7  UNL     1      23.813   7.263  51.757  1.00  0.00     0.160 HD
BRANCH  13  15
HETATM   15  C2  UNL     1      23.269   5.254  51.347  1.00  0.00     0.087 C 
HETATM   16  C1  UNL     1      23.494   4.589  52.685  1.00  0.00     0.033 C 
BRANCH  15  17
HETATM   17  C3  UNL     1      21.798   5.561  51.166  1.00  0.00     0.109 C 
HETATM   18 BR1  UNL     1      21.558   7.386  50.582  1.00  0.00    -0.094 Br
ENDBRANCH  15  17
ENDBRANCH  13  15
ENDBRANCH  10  13
ENDBRANCH   6   7
ENDBRANCH   1   5
BRANCH   4  19
HETATM   19  C11 UNL     1      32.495   3.932  46.794  1.00  0.00     0.058 A 
HETATM   20  C12 UNL     1      33.304   3.422  47.820  1.00  0.00     0.031 A 
HETATM   21  C13 UNL     1      34.675   3.194  47.634  1.00  0.00     0.002 A 
HETATM   22  C14 UNL     1      35.171   3.497  46.391  1.00  0.00     0.000 A 
HETATM   23  C15 UNL     1      34.446   3.999  45.330  1.00  0.00     0.002 A 
HETATM   24  C16 UNL     1      33.114   4.197  45.585  1.00  0.00     0.031 A 
ENDBRANCH   4  19
TORSDOF 6
ENDMDL
MODEL 8
REMARK VINA RESULT:      -6.8      6.788     10.681
REMARK  6 active torsions:
REMARK  status: ('A' for Active; 'I' for Inactive)
REMARK    1  A    between atoms: C2_2  and  C3_3 
REMARK    2  A    between atoms: C2_2  and  N1_5 
REMARK    3  A    between atoms: N1_5  and  C4_6 
REMARK    4  A    between atoms: C7_9  and  N2_10 
REMARK    5  A    between atoms: C8_11  and  C9_12 
REMARK    6  A    between atoms: N4_15  and  C11_16 
ROOT
HETATM    1  C9  UNL     1      23.714   2.210  51.597  1.00  0.00     0.154 C 
HETATM    2  C10 UNL     1      22.774   1.599  50.645  1.00  0.00     0.121 C 
HETATM    3  N3  UNL     1      22.005   1.100  49.894  1.00  0.00    -0.190 NA
HETATM    4  N4  UNL     1      23.522   1.852  52.807  1.00  0.00    -0.237 NA
ENDROOT
BRANCH   1   5
HETATM    5  C8  UNL     1      24.604   3.065  50.827  1.00  0.00     0.160 C 
HETATM    6  N2  UNL     1      24.450   4.211  50.234  1.00  0.00    -0.258 NA
BRANCH   6   7
HETATM    7  C7  UNL     1      25.628   4.699  49.575  1.00  0.00     0.056 A 
HETATM    8  C6  UNL     1      26.861   4.178  49.266  1.00  0.00     0.034 A 
HETATM    9  C5  UNL     1      27.792   4.927  48.610  1.00  0.00     0.031 A 
HETATM   10  C4  UNL     1      27.542   6.242  48.224  1.00  0.00     0.028 A 
HETATM   11  C18 UNL     1      26.319   6.794  48.517  1.00  0.00     0.031 A 
HETATM   12  C17 UNL     1      25.373   6.028  49.185  1.00  0.00     0.034 A 
BRANCH  10  13
HETATM   13  N1  UNL     1      28.524   7.005  47.543  1.00  0.00    -0.385 N 
HETATM   14  H7  UNL     1      28.435   7.166  46.521  1.00  0.00     0.160 HD
BRANCH  13  15
HETATM   15  C2  UNL     1      29.683   7.593  48.182  1.00  0.00     0.087 C 
HETATM   16  C1  UNL     1      30.729   8.008  47.174  1.00  0.00     0.033 C 
BRANCH  15  17
HETATM   17  C3  UNL     1      29.308   8.774  49.051  1.00  0.00     0.109 C 
HETATM   18 BR1  UNL     1      30.678  10.133  48.970  1.00  0.00    -0.094 Br
ENDBRANCH  15  17
ENDBRANCH  13  15
ENDBRANCH  10  13
ENDBRANCH   6   7
ENDBRANCH   1   5
BRANCH   4  19
HETATM   19  C11 UNL     1      22.513   0.962  53.180  1.00  0.00     0.058 A 
HETATM   20  C12 UNL     1      23.090  -0.281  53.478  1.00  0.00     0.031 A 
HETATM   21  C13 UNL     1      22.313  -1.375  53.889  1.00  0.00     0.002 A 
HETATM   22  C14 UNL     1      20.963  -1.152  53.982  1.00  0.00     0.000 A 
HETATM   23  C15 UNL     1      20.318   0.037  53.709  1.00  0.00     0.002 A 
HETATM   24  C16 UNL     1      21.139   1.061  53.313  1.00  0.00     0.031 A 
ENDBRANCH   4  19
TORSDOF 6
ENDMDL
MODEL 9
REMARK VINA RESULT:      -6.5      7.244     11.329
REMARK  6 active torsions:
REMARK  status: ('A' for Active; 'I' for Inactive)
REMARK    1  A    between atoms: C2_2  and  C3_3 
REMARK    2  A    between atoms: C2_2  and  N1_5 
REMARK    3  A    between atoms: N1_5  and  C4_6 
REMARK    4  A    between atoms: C7_9  and  N2_10 
REMARK    5  A    between atoms: C8_11  and  C9_12 
REMARK    6  A    between atoms: N4_15  and  C11_16 
ROOT
HETATM    1  C9  UNL     1      24.475   3.251  50.667  1.00  0.00     0.154 C 
HETATM    2  C10 UNL     1      23.495   4.045  51.424  1.00  0.00     0.121 C 
HETATM    3  N3  UNL     1      22.699   4.667  52.044  1.00  0.00    -0.190 NA
HETATM    4  N4  UNL     1      24.333   1.991  50.810  1.00  0.00    -0.237 NA
ENDROOT
BRANCH   1   5
HETATM    5  C8  UNL     1      25.332   4.192  49.964  1.00  0.00     0.160 C 
HETATM    6  N2  UNL     1      25.121   5.345  49.400  1.00  0.00    -0.258 NA
BRANCH   6   7
HETATM    7  C7  UNL     1      26.286   5.937  48.809  1.00  0.00     0.056 A 
HETATM    8  C6  UNL     1      26.588   7.156  48.252  1.00  0.00     0.034 A 
HETATM    9  C5  UNL     1      27.834   7.413  47.763  1.00  0.00     0.031 A 
HETATM   10  C4  UNL     1      28.851   6.463  47.801  1.00  0.00     0.028 A 
HETATM   11  C18 UNL     1      28.584   5.233  48.351  1.00  0.00     0.031 A 
HETATM   12  C17 UNL     1      27.314   4.975  48.850  1.00  0.00     0.034 A 
BRANCH  10  13
HETATM   13  N1  UNL     1      30.140   6.749  47.287  1.00  0.00    -0.385 N 
HETATM   14  H7  UNL     1      30.359   6.537  46.294  1.00  0.00     0.160 HD
BRANCH  13  15
HETATM   15  C2  UNL     1      31.216   7.331  48.065  1.00  0.00     0.087 C 
HETATM   16  C1  UNL     1      32.548   6.698  47.741  1.00  0.00     0.033 C 
BRANCH  15  17
HETATM   17  C3  UNL     1      31.298   8.830  47.876  1.00  0.00     0.109 C 
HETATM   18 BR1  UNL     1      30.501   9.744  49.379  1.00  0.00    -0.094 Br
ENDBRANCH  15  17
ENDBRANCH  13  15
ENDBRANCH  10  13
ENDBRANCH   6   7
ENDBRANCH   1   5
BRANCH   4  19
HETATM   19  C11 UNL     1      23.336   1.430  51.611  1.00  0.00     0.058 A 
HETATM   20  C12 UNL     1      22.248   1.074  50.801  1.00  0.00     0.031 A 
HETATM   21  C13 UNL     1      21.095   0.479  51.334  1.00  0.00     0.002 A 
HETATM   22  C14 UNL     1      21.100   0.268  52.689  1.00  0.00     0.000 A 
HETATM   23  C15 UNL     1      22.126   0.586  53.555  1.00  0.00     0.002 A 
HETATM   24  C16 UNL     1      23.220   1.164  52.964  1.00  0.00     0.031 A 
ENDBRANCH   4  19
TORSDOF 6
ENDMDL
