MODEL 1
REMARK VINA RESULT:      -7.8      0.000      0.000
REMARK  1 active torsions:
REMARK  status: ('A' for Active; 'I' for Inactive)
REMARK    1  A    between atoms: O1_2  and  C2_3 
ROOT
HETATM    1  C2  UNL     1      25.647   3.270  50.282  1.00  0.00     0.071 C 
HETATM    2  C3  UNL     1      26.628   2.772  51.013  1.00  0.00     0.065 C 
HETATM    3  C4  UNL     1      26.614   1.714  52.031  1.00  0.00     0.053 C 
HETATM    4  N1  UNL     1      26.490   1.974  53.287  1.00  0.00    -0.287 NA
HETATM    5  C5  UNL     1      26.156   1.031  54.334  1.00  0.00     0.197 C 
HETATM    6  C6  UNL     1      25.389  -0.125  53.620  1.00  0.00     0.210 C 
HETATM    7  C7  UNL     1      26.608  -0.564  52.787  1.00  0.00     0.020 C 
HETATM    8  C8  UNL     1      26.686   0.261  51.722  1.00  0.00     0.030 C 
HETATM    9  N2  UNL     1      25.153  -1.212  54.480  1.00  0.00     0.101 N 
HETATM   10  C9  UNL     1      24.138  -1.028  55.473  1.00  0.00     0.301 C 
HETATM   11  C10 UNL     1      22.806  -1.353  54.831  1.00  0.00     0.299 C 
HETATM   12  N3  UNL     1      22.054  -0.120  54.828  1.00  0.00     0.085 N 
HETATM   13  C11 UNL     1      21.885   0.451  53.536  1.00  0.00     0.278 C 
HETATM   14  C12 UNL     1      22.953   0.167  52.545  1.00  0.00     0.059 C 
HETATM   15  C13 UNL     1      22.691   1.295  51.449  1.00  0.00     0.175 C 
HETATM   16  O2  UNL     1      23.884   1.888  51.157  1.00  0.00    -0.384 OA
HETATM   17  C14 UNL     1      24.225   2.822  50.350  1.00  0.00     0.232 C 
HETATM   18  C15 UNL     1      24.341   0.525  52.919  1.00  0.00     0.134 C 
HETATM   19 CL1  UNL     1      24.122   2.231  53.423  1.00  0.00    -0.121 Cl
HETATM   20  H9  UNL     1      26.030  -1.609  54.838  1.00  0.00     0.317 HD
HETATM   21  H14 UNL     1      22.359   0.539  55.581  1.00  0.00     0.315 HD
ENDROOT
BRANCH   1  22
HETATM   22  O1  UNL     1      25.885   4.290  49.359  1.00  0.00    -0.358 OA
HETATM   23  C1  UNL     1      27.190   4.552  48.948  1.00  0.00     0.209 C 
ENDBRANCH   1  22
TORSDOF 1
ENDMDL
MODEL 2
REMARK VINA RESULT:      -7.2      2.396      5.935
REMARK  1 active torsions:
REMARK  status: ('A' for Active; 'I' for Inactive)
REMARK    1  A    between atoms: O1_2  and  C2_3 
ROOT
HETATM    1  C2  UNL     1      22.104   0.032  53.817  1.00  0.00     0.071 C 
HETATM    2  C3  UNL     1      21.366   0.813  53.048  1.00  0.00     0.065 C 
HETATM    3  C4  UNL     1      21.748   1.682  51.928  1.00  0.00     0.053 C 
HETATM    4  N1  UNL     1      22.002   2.935  52.091  1.00  0.00    -0.287 NA
HETATM    5  C5  UNL     1      22.674   3.808  51.150  1.00  0.00     0.197 C 
HETATM    6  C6  UNL     1      23.546   2.866  50.263  1.00  0.00     0.210 C 
HETATM    7  C7  UNL     1      22.333   2.144  49.647  1.00  0.00     0.020 C 
HETATM    8  C8  UNL     1      21.930   1.207  50.531  1.00  0.00     0.030 C 
HETATM    9  N2  UNL     1      24.125   3.549  49.178  1.00  0.00     0.101 N 
HETATM   10  C9  UNL     1      25.217   4.422  49.487  1.00  0.00     0.301 C 
HETATM   11  C10 UNL     1      26.476   3.583  49.525  1.00  0.00     0.299 C 
HETATM   12  N3  UNL     1      26.951   3.638  50.888  1.00  0.00     0.085 N 
HETATM   13  C11 UNL     1      26.806   2.416  51.601  1.00  0.00     0.278 C 
HETATM   14  C12 UNL     1      25.683   1.539  51.184  1.00  0.00     0.059 C 
HETATM   15  C13 UNL     1      25.542   0.567  52.440  1.00  0.00     0.175 C 
HETATM   16  O2  UNL     1      24.223   0.502  52.780  1.00  0.00    -0.384 OA
HETATM   17  C14 UNL     1      23.582  -0.134  53.688  1.00  0.00     0.232 C 
HETATM   18  C15 UNL     1      24.322   2.125  51.190  1.00  0.00     0.134 C 
HETATM   19 CL1  UNL     1      24.261   2.805  52.848  1.00  0.00    -0.121 Cl
HETATM   20  H9  UNL     1      23.411   3.962  48.566  1.00  0.00     0.317 HD
HETATM   21  H14 UNL     1      26.633   4.500  51.390  1.00  0.00     0.315 HD
ENDROOT
BRANCH   1  22
HETATM   22  O1  UNL     1      21.529  -0.721  54.841  1.00  0.00    -0.358 OA
HETATM   23  C1  UNL     1      21.031  -1.992  54.560  1.00  0.00     0.209 C 
ENDBRANCH   1  22
TORSDOF 1
ENDMDL
MODEL 3
REMARK VINA RESULT:      -7.1      2.913      4.908
REMARK  1 active torsions:
REMARK  status: ('A' for Active; 'I' for Inactive)
REMARK    1  A    between atoms: O1_2  and  C2_3 
ROOT
HETATM    1  C2  UNL     1      25.090  -0.214  53.320  1.00  0.00     0.071 C 
HETATM    2  C3  UNL     1      25.473   0.905  52.731  1.00  0.00     0.065 C 
HETATM    3  C4  UNL     1      24.688   2.060  52.279  1.00  0.00     0.053 C 
HETATM    4  N1  UNL     1      24.261   2.164  51.068  1.00  0.00    -0.287 NA
HETATM    5  C5  UNL     1      23.240   3.074  50.589  1.00  0.00     0.197 C 
HETATM    6  C6  UNL     1      22.365   3.408  51.837  1.00  0.00     0.210 C 
HETATM    7  C7  UNL     1      23.507   4.127  52.579  1.00  0.00     0.020 C 
HETATM    8  C8  UNL     1      24.268   3.178  53.164  1.00  0.00     0.030 C 
HETATM    9  N2  UNL     1      21.434   4.427  51.571  1.00  0.00     0.101 N 
HETATM   10  C9  UNL     1      20.308   4.065  50.763  1.00  0.00     0.301 C 
HETATM   11  C10 UNL     1      19.264   3.462  51.678  1.00  0.00     0.299 C 
HETATM   12  N3  UNL     1      19.124   2.084  51.270  1.00  0.00     0.085 N 
HETATM   13  C11 UNL     1      19.649   1.147  52.203  1.00  0.00     0.278 C 
HETATM   14  C12 UNL     1      20.779   1.618  53.044  1.00  0.00     0.059 C 
HETATM   15  C13 UNL     1      21.384   0.243  53.578  1.00  0.00     0.175 C 
HETATM   16  O2  UNL     1      22.736   0.278  53.402  1.00  0.00    -0.384 OA
HETATM   17  C14 UNL     1      23.677  -0.549  53.669  1.00  0.00     0.232 C 
HETATM   18  C15 UNL     1      21.976   2.142  52.344  1.00  0.00     0.134 C 
HETATM   19 CL1  UNL     1      22.306   0.803  51.200  1.00  0.00    -0.121 Cl
HETATM   20  H9  UNL     1      21.897   5.299  51.287  1.00  0.00     0.317 HD
HETATM   21  H14 UNL     1      19.392   1.931  50.270  1.00  0.00     0.315 HD
ENDROOT
BRANCH   1  22
HETATM   22  O1  UNL     1      26.016  -1.197  53.670  1.00  0.00    -0.358 OA
HETATM   23  C1  UNL     1      26.868  -1.713  52.695  1.00  0.00     0.209 C 
ENDBRANCH   1  22
TORSDOF 1
ENDMDL
MODEL 4
REMARK VINA RESULT:      -6.8      3.158      6.298
REMARK  1 active torsions:
REMARK  status: ('A' for Active; 'I' for Inactive)
REMARK    1  A    between atoms: O1_2  and  C2_3 
ROOT
HETATM    1  C2  UNL     1      19.199   0.172  51.606  1.00  0.00     0.071 C 
HETATM    2  C3  UNL     1      19.194   0.885  50.493  1.00  0.00     0.065 C 
HETATM    3  C4  UNL     1      20.275   1.633  49.838  1.00  0.00     0.053 C 
HETATM    4  N1  UNL     1      20.458   2.892  50.044  1.00  0.00    -0.287 NA
HETATM    5  C5  UNL     1      21.643   3.656  49.713  1.00  0.00     0.197 C 
HETATM    6  C6  UNL     1      22.806   2.617  49.670  1.00  0.00     0.210 C 
HETATM    7  C7  UNL     1      22.227   1.858  48.461  1.00  0.00     0.020 C 
HETATM    8  C8  UNL     1      21.278   1.019  48.929  1.00  0.00     0.030 C 
HETATM    9  N2  UNL     1      23.999   3.180  49.181  1.00  0.00     0.101 N 
HETATM   10  C9  UNL     1      24.696   4.062  50.068  1.00  0.00     0.301 C 
HETATM   11  C10 UNL     1      25.563   3.211  50.970  1.00  0.00     0.299 C 
HETATM   12  N3  UNL     1      25.048   3.393  52.306  1.00  0.00     0.085 N 
HETATM   13  C11 UNL     1      24.384   2.250  52.831  1.00  0.00     0.278 C 
HETATM   14  C12 UNL     1      23.733   1.353  51.842  1.00  0.00     0.059 C 
HETATM   15  C13 UNL     1      22.741   0.513  52.764  1.00  0.00     0.175 C 
HETATM   16  O2  UNL     1      21.515   0.504  52.168  1.00  0.00    -0.384 OA
HETATM   17  C14 UNL     1      20.392  -0.030  52.480  1.00  0.00     0.232 C 
HETATM   18  C15 UNL     1      22.740   1.959  50.924  1.00  0.00     0.134 C 
HETATM   19 CL1  UNL     1      21.675   2.801  52.095  1.00  0.00    -0.121 Cl
HETATM   20  H9  UNL     1      23.883   3.542  48.226  1.00  0.00     0.317 HD
HETATM   21  H14 UNL     1      24.548   4.305  52.424  1.00  0.00     0.315 HD
ENDROOT
BRANCH   1  22
HETATM   22  O1  UNL     1      18.043  -0.466  52.056  1.00  0.00    -0.358 OA
HETATM   23  C1  UNL     1      18.100  -1.258  53.201  1.00  0.00     0.209 C 
ENDBRANCH   1  22
TORSDOF 1
ENDMDL
MODEL 5
REMARK VINA RESULT:      -6.6      3.556      5.445
REMARK  1 active torsions:
REMARK  status: ('A' for Active; 'I' for Inactive)
REMARK    1  A    between atoms: O1_2  and  C2_3 
ROOT
HETATM    1  C2  UNL     1      27.161   4.791  48.947  1.00  0.00     0.071 C 
HETATM    2  C3  UNL     1      26.425   5.871  48.757  1.00  0.00     0.065 C 
HETATM    3  C4  UNL     1      25.085   6.209  49.255  1.00  0.00     0.053 C 
HETATM    4  N1  UNL     1      24.021   5.980  48.565  1.00  0.00    -0.287 NA
HETATM    5  C5  UNL     1      22.659   5.978  49.057  1.00  0.00     0.197 C 
HETATM    6  C6  UNL     1      22.771   5.677  50.584  1.00  0.00     0.210 C 
HETATM    7  C7  UNL     1      23.518   6.987  50.897  1.00  0.00     0.020 C 
HETATM    8  C8  UNL     1      24.819   6.791  50.597  1.00  0.00     0.030 C 
HETATM    9  N2  UNL     1      21.537   5.821  51.242  1.00  0.00     0.101 N 
HETATM   10  C9  UNL     1      20.571   4.788  51.016  1.00  0.00     0.301 C 
HETATM   11  C10 UNL     1      20.866   3.666  51.988  1.00  0.00     0.299 C 
HETATM   12  N3  UNL     1      21.248   2.531  51.182  1.00  0.00     0.085 N 
HETATM   13  C11 UNL     1      22.627   2.195  51.271  1.00  0.00     0.278 C 
HETATM   14  C12 UNL     1      23.560   3.313  51.565  1.00  0.00     0.059 C 
HETATM   15  C13 UNL     1      24.962   2.692  51.129  1.00  0.00     0.175 C 
HETATM   16  O2  UNL     1      25.607   3.608  50.351  1.00  0.00    -0.384 OA
HETATM   17  C14 UNL     1      26.747   3.614  49.767  1.00  0.00     0.232 C 
HETATM   18  C15 UNL     1      23.530   4.481  50.654  1.00  0.00     0.134 C 
HETATM   19 CL1  UNL     1      23.696   3.669  49.065  1.00  0.00    -0.121 Cl
HETATM   20  H9  UNL     1      21.167   6.776  51.150  1.00  0.00     0.317 HD
HETATM   21  H14 UNL     1      20.850   2.572  50.215  1.00  0.00     0.315 HD
ENDROOT
BRANCH   1  22
HETATM   22  O1  UNL     1      28.427   4.672  48.371  1.00  0.00    -0.358 OA
HETATM   23  C1  UNL     1      29.224   5.807  48.232  1.00  0.00     0.209 C 
ENDBRANCH   1  22
TORSDOF 1
ENDMDL
MODEL 6
REMARK VINA RESULT:      -6.4      2.759      4.454
REMARK  1 active torsions:
REMARK  status: ('A' for Active; 'I' for Inactive)
REMARK    1  A    between atoms: O1_2  and  C2_3 
ROOT
HETATM    1  C2  UNL     1      25.903   4.624  49.334  1.00  0.00     0.071 C 
HETATM    2  C3  UNL     1      24.781   5.310  49.214  1.00  0.00     0.065 C 
HETATM    3  C4  UNL     1      23.480   5.132  49.872  1.00  0.00     0.053 C 
HETATM    4  N1  UNL     1      22.528   4.452  49.332  1.00  0.00    -0.287 NA
HETATM    5  C5  UNL     1      21.342   3.952  49.996  1.00  0.00     0.197 C 
HETATM    6  C6  UNL     1      21.730   3.835  51.502  1.00  0.00     0.210 C 
HETATM    7  C7  UNL     1      21.921   5.352  51.682  1.00  0.00     0.020 C 
HETATM    8  C8  UNL     1      23.152   5.661  51.222  1.00  0.00     0.030 C 
HETATM    9  N2  UNL     1      20.620   3.531  52.311  1.00  0.00     0.101 N 
HETATM   10  C9  UNL     1      20.128   2.188  52.238  1.00  0.00     0.301 C 
HETATM   11  C10 UNL     1      20.949   1.348  53.192  1.00  0.00     0.299 C 
HETATM   12  N3  UNL     1      21.663   0.397  52.372  1.00  0.00     0.085 N 
HETATM   13  C11 UNL     1      23.062   0.638  52.291  1.00  0.00     0.278 C 
HETATM   14  C12 UNL     1      23.498   2.050  52.433  1.00  0.00     0.059 C 
HETATM   15  C13 UNL     1      24.975   1.999  51.835  1.00  0.00     0.175 C 
HETATM   16  O2  UNL     1      25.112   3.034  50.957  1.00  0.00    -0.384 OA
HETATM   17  C14 UNL     1      26.085   3.444  50.231  1.00  0.00     0.232 C 
HETATM   18  C15 UNL     1      22.905   3.041  51.505  1.00  0.00     0.134 C 
HETATM   19 CL1  UNL     1      23.208   2.244  49.928  1.00  0.00    -0.121 Cl
HETATM   20  H9  UNL     1      19.893   4.254  52.243  1.00  0.00     0.317 HD
HETATM   21  H14 UNL     1      21.179   0.206  51.464  1.00  0.00     0.315 HD
ENDROOT
BRANCH   1  22
HETATM   22  O1  UNL     1      27.040   4.969  48.603  1.00  0.00    -0.358 OA
HETATM   23  C1  UNL     1      27.461   6.298  48.580  1.00  0.00     0.209 C 
ENDBRANCH   1  22
TORSDOF 1
ENDMDL
MODEL 7
REMARK VINA RESULT:      -6.4      2.772      6.155
REMARK  1 active torsions:
REMARK  status: ('A' for Active; 'I' for Inactive)
REMARK    1  A    between atoms: O1_2  and  C2_3 
ROOT
HETATM    1  C2  UNL     1      23.474   0.003  53.416  1.00  0.00     0.071 C 
HETATM    2  C3  UNL     1      22.234   0.178  52.995  1.00  0.00     0.065 C 
HETATM    3  C4  UNL     1      21.702   1.050  51.940  1.00  0.00     0.053 C 
HETATM    4  N1  UNL     1      21.245   2.228  52.192  1.00  0.00    -0.287 NA
HETATM    5  C5  UNL     1      20.988   3.277  51.226  1.00  0.00     0.197 C 
HETATM    6  C6  UNL     1      21.918   2.960  50.014  1.00  0.00     0.210 C 
HETATM    7  C7  UNL     1      21.200   1.643  49.670  1.00  0.00     0.020 C 
HETATM    8  C8  UNL     1      21.682   0.692  50.497  1.00  0.00     0.030 C 
HETATM    9  N2  UNL     1      21.652   3.794  48.913  1.00  0.00     0.101 N 
HETATM   10  C9  UNL     1      22.099   5.150  49.020  1.00  0.00     0.301 C 
HETATM   11  C10 UNL     1      23.550   5.188  48.593  1.00  0.00     0.299 C 
HETATM   12  N3  UNL     1      24.300   5.576  49.765  1.00  0.00     0.085 N 
HETATM   13  C11 UNL     1      25.089   4.532  50.320  1.00  0.00     0.278 C 
HETATM   14  C12 UNL     1      24.588   3.148  50.118  1.00  0.00     0.059 C 
HETATM   15  C13 UNL     1      25.406   2.339  51.221  1.00  0.00     0.175 C 
HETATM   16  O2  UNL     1      24.529   1.548  51.903  1.00  0.00    -0.384 OA
HETATM   17  C14 UNL     1      24.667   0.708  52.860  1.00  0.00     0.232 C 
HETATM   18  C15 UNL     1      23.213   2.848  50.581  1.00  0.00     0.134 C 
HETATM   19 CL1  UNL     1      23.289   3.456  52.266  1.00  0.00    -0.121 Cl
HETATM   20  H9  UNL     1      20.684   3.691  48.585  1.00  0.00     0.317 HD
HETATM   21  H14 UNL     1      23.726   6.125  50.446  1.00  0.00     0.315 HD
ENDROOT
BRANCH   1  22
HETATM   22  O1  UNL     1      23.764  -0.888  54.450  1.00  0.00    -0.358 OA
HETATM   23  C1  UNL     1      22.728  -1.368  55.250  1.00  0.00     0.209 C 
ENDBRANCH   1  22
TORSDOF 1
ENDMDL
MODEL 8
REMARK VINA RESULT:      -6.3      2.892      5.999
REMARK  1 active torsions:
REMARK  status: ('A' for Active; 'I' for Inactive)
REMARK    1  A    between atoms: O1_2  and  C2_3 
ROOT
HETATM    1  C2  UNL     1      24.816   0.527  52.703  1.00  0.00     0.071 C 
HETATM    2  C3  UNL     1      23.506   0.663  52.604  1.00  0.00     0.065 C 
HETATM    3  C4  UNL     1      22.705   1.584  51.788  1.00  0.00     0.053 C 
HETATM    4  N1  UNL     1      22.278   2.710  52.248  1.00  0.00    -0.287 NA
HETATM    5  C5  UNL     1      21.760   3.817  51.471  1.00  0.00     0.197 C 
HETATM    6  C6  UNL     1      22.383   3.653  50.050  1.00  0.00     0.210 C 
HETATM    7  C7  UNL     1      21.652   2.329  49.765  1.00  0.00     0.020 C 
HETATM    8  C8  UNL     1      22.353   1.344  50.364  1.00  0.00     0.030 C 
HETATM    9  N2  UNL     1      21.830   4.557  49.124  1.00  0.00     0.101 N 
HETATM   10  C9  UNL     1      22.239   5.923  49.247  1.00  0.00     0.301 C 
HETATM   11  C10 UNL     1      23.544   6.079  48.497  1.00  0.00     0.299 C 
HETATM   12  N3  UNL     1      24.538   6.414  49.489  1.00  0.00     0.085 N 
HETATM   13  C11 UNL     1      25.475   5.375  49.745  1.00  0.00     0.278 C 
HETATM   14  C12 UNL     1      24.991   3.986  49.540  1.00  0.00     0.059 C 
HETATM   15  C13 UNL     1      26.079   3.139  50.340  1.00  0.00     0.175 C 
HETATM   16  O2  UNL     1      25.420   2.247  51.133  1.00  0.00    -0.384 OA
HETATM   17  C14 UNL     1      25.815   1.341  51.950  1.00  0.00     0.232 C 
HETATM   18  C15 UNL     1      23.779   3.571  50.284  1.00  0.00     0.134 C 
HETATM   19 CL1  UNL     1      24.234   4.044  51.952  1.00  0.00    -0.121 Cl
HETATM   20  H9  UNL     1      20.816   4.424  49.025  1.00  0.00     0.317 HD
HETATM   21  H14 UNL     1      24.124   6.872  50.334  1.00  0.00     0.315 HD
ENDROOT
BRANCH   1  22
HETATM   22  O1  UNL     1      25.378  -0.427  53.553  1.00  0.00    -0.358 OA
HETATM   23  C1  UNL     1      26.467  -1.179  53.115  1.00  0.00     0.209 C 
ENDBRANCH   1  22
TORSDOF 1
ENDMDL
MODEL 9
REMARK VINA RESULT:      -6.1      9.370     11.433
REMARK  1 active torsions:
REMARK  status: ('A' for Active; 'I' for Inactive)
REMARK    1  A    between atoms: O1_2  and  C2_3 
ROOT
HETATM    1  C2  UNL     1      33.701   5.162  45.868  1.00  0.00     0.071 C 
HETATM    2  C3  UNL     1      33.173   4.777  47.016  1.00  0.00     0.065 C 
HETATM    3  C4  UNL     1      32.218   5.458  47.900  1.00  0.00     0.053 C 
HETATM    4  N1  UNL     1      32.602   6.176  48.898  1.00  0.00    -0.287 NA
HETATM    5  C5  UNL     1      31.796   7.127  49.637  1.00  0.00     0.197 C 
HETATM    6  C6  UNL     1      30.665   7.561  48.654  1.00  0.00     0.210 C 
HETATM    7  C7  UNL     1      30.031   6.159  48.594  1.00  0.00     0.020 C 
HETATM    8  C8  UNL     1      30.744   5.432  47.709  1.00  0.00     0.030 C 
HETATM    9  N2  UNL     1      29.690   8.352  49.289  1.00  0.00     0.101 N 
HETATM   10  C9  UNL     1      30.066   9.698  49.598  1.00  0.00     0.301 C 
HETATM   11  C10 UNL     1      29.822  10.536  48.361  1.00  0.00     0.299 C 
HETATM   12  N3  UNL     1      31.120  11.005  47.935  1.00  0.00     0.085 N 
HETATM   13  C11 UNL     1      31.587  10.404  46.733  1.00  0.00     0.278 C 
HETATM   14  C12 UNL     1      31.107   9.026  46.455  1.00  0.00     0.059 C 
HETATM   15  C13 UNL     1      32.152   8.530  45.359  1.00  0.00     0.175 C 
HETATM   16  O2  UNL     1      32.591   7.291  45.722  1.00  0.00    -0.384 OA
HETATM   17  C14 UNL     1      33.409   6.460  45.191  1.00  0.00     0.232 C 
HETATM   18  C15 UNL     1      31.353   7.998  47.493  1.00  0.00     0.134 C 
HETATM   19 CL1  UNL     1      33.111   8.215  47.767  1.00  0.00    -0.121 Cl
HETATM   20  H9  UNL     1      29.239   7.848  50.062  1.00  0.00     0.317 HD
HETATM   21  H14 UNL     1      31.810  11.048  48.721  1.00  0.00     0.315 HD
ENDROOT
BRANCH   1  22
HETATM   22  O1  UNL     1      34.604   4.348  45.183  1.00  0.00    -0.358 OA
HETATM   23  C1  UNL     1      35.222   3.294  45.854  1.00  0.00     0.209 C 
ENDBRANCH   1  22
TORSDOF 1
ENDMDL
