MODEL 1
REMARK VINA RESULT:      -8.8      0.000      0.000
REMARK  4 active torsions:
REMARK  status: ('A' for Active; 'I' for Inactive)
REMARK    1  A    between atoms: C1_2  and  C2_3 
REMARK    2  A    between atoms: C3_4  and  C4_5 
REMARK    3  A    between atoms: C4_5  and  N1_6 
REMARK    4  A    between atoms: N1_6  and  C5_7 
ROOT
HETATM    1  C5  UNL     1      24.168   1.251  52.686  1.00  0.00     0.045 A 
HETATM    2  C6  UNL     1      22.970   0.543  52.856  1.00  0.00     0.049 A 
HETATM    3  C7  UNL     1      22.754  -0.536  53.668  1.00  0.00     0.122 A 
HETATM    4  N2  UNL     1      23.857  -0.886  54.333  1.00  0.00    -0.236 NA
HETATM    5  C8  UNL     1      25.027  -0.295  54.250  1.00  0.00     0.183 A 
HETATM    6  O1  UNL     1      26.098  -0.658  54.917  1.00  0.00    -0.290 OA
HETATM    7  C9  UNL     1      27.098   0.156  54.593  1.00  0.00     0.089 A 
HETATM    8  C10 UNL     1      28.425   0.291  54.942  1.00  0.00     0.038 A 
HETATM    9  C11 UNL     1      29.229   1.286  54.403  1.00  0.00     0.003 A 
HETATM   10  C12 UNL     1      28.685   2.168  53.492  1.00  0.00     0.001 A 
HETATM   11  C13 UNL     1      27.358   2.034  53.144  1.00  0.00     0.015 A 
HETATM   12  C14 UNL     1      26.570   1.048  53.680  1.00  0.00     0.015 A 
HETATM   13  C15 UNL     1      25.239   0.798  53.425  1.00  0.00     0.057 A 
ENDROOT
BRANCH   1  14
HETATM   14  N1  UNL     1      24.417   2.338  51.844  1.00  0.00    -0.386 N 
HETATM   15  H5  UNL     1      24.744   1.792  51.015  1.00  0.00     0.160 HD
BRANCH  14  16
HETATM   16  C4  UNL     1      24.699   3.382  50.921  1.00  0.00     0.147 C 
BRANCH  16  17
HETATM   17  C3  UNL     1      25.951   3.138  50.134  1.00  0.00    -0.006 C 
HETATM   18  C2  UNL     1      26.802   3.713  49.325  1.00  0.00     0.022 C 
BRANCH  18  19
HETATM   19  C1  UNL     1      26.717   5.084  48.877  1.00  0.00     0.044 C 
HETATM   20 CL1  UNL     1      25.307   6.116  48.800  1.00  0.00    -0.083 Cl
HETATM   21  C16 UNL     1      27.645   5.920  48.411  1.00  0.00    -0.014 A 
HETATM   22  C17 UNL     1      28.572   6.901  47.897  1.00  0.00     0.014 A 
HETATM   23  C18 UNL     1      29.105   5.727  48.194  1.00  0.00     0.014 A 
ENDBRANCH  18  19
ENDBRANCH  16  17
ENDBRANCH  14  16
ENDBRANCH   1  14
TORSDOF 4
ENDMDL
MODEL 2
REMARK VINA RESULT:      -8.5      2.342      4.709
REMARK  4 active torsions:
REMARK  status: ('A' for Active; 'I' for Inactive)
REMARK    1  A    between atoms: C1_2  and  C2_3 
REMARK    2  A    between atoms: C3_4  and  C4_5 
REMARK    3  A    between atoms: C4_5  and  N1_6 
REMARK    4  A    between atoms: N1_6  and  C5_7 
ROOT
HETATM    1  C5  UNL     1      27.204   1.964  52.911  1.00  0.00     0.045 A 
HETATM    2  C6  UNL     1      28.527   2.150  53.334  1.00  0.00     0.049 A 
HETATM    3  C7  UNL     1      29.165   1.513  54.363  1.00  0.00     0.122 A 
HETATM    4  N2  UNL     1      28.366   0.637  54.975  1.00  0.00    -0.236 NA
HETATM    5  C8  UNL     1      27.116   0.383  54.662  1.00  0.00     0.183 A 
HETATM    6  O1  UNL     1      26.350  -0.485  55.280  1.00  0.00    -0.290 OA
HETATM    7  C9  UNL     1      25.153  -0.484  54.703  1.00  0.00     0.089 A 
HETATM    8  C10 UNL     1      23.960  -1.152  54.883  1.00  0.00     0.038 A 
HETATM    9  C11 UNL     1      22.855  -0.913  54.078  1.00  0.00     0.003 A 
HETATM   10  C12 UNL     1      22.951   0.020  53.066  1.00  0.00     0.001 A 
HETATM   11  C13 UNL     1      24.143   0.687  52.885  1.00  0.00     0.015 A 
HETATM   12  C14 UNL     1      25.231   0.445  53.685  1.00  0.00     0.015 A 
HETATM   13  C15 UNL     1      26.476   1.033  53.618  1.00  0.00     0.057 A 
ENDROOT
BRANCH   1  14
HETATM   14  N1  UNL     1      26.526   2.621  51.880  1.00  0.00    -0.386 N 
HETATM   15  H5  UNL     1      26.855   2.012  51.096  1.00  0.00     0.160 HD
BRANCH  14  16
HETATM   16  C4  UNL     1      25.876   3.227  50.770  1.00  0.00     0.147 C 
BRANCH  16  17
HETATM   17  C3  UNL     1      24.566   3.854  51.138  1.00  0.00    -0.006 C 
HETATM   18  C2  UNL     1      23.352   4.068  50.700  1.00  0.00     0.022 C 
BRANCH  18  19
HETATM   19  C1  UNL     1      22.852   3.635  49.415  1.00  0.00     0.044 C 
HETATM   20 CL1  UNL     1      22.857   4.505  47.898  1.00  0.00    -0.083 Cl
HETATM   21  C16 UNL     1      22.267   2.500  49.032  1.00  0.00    -0.014 A 
HETATM   22  C17 UNL     1      21.626   1.312  48.517  1.00  0.00     0.014 A 
HETATM   23  C18 UNL     1      21.927   1.273  49.805  1.00  0.00     0.014 A 
ENDBRANCH  18  19
ENDBRANCH  16  17
ENDBRANCH  14  16
ENDBRANCH   1  14
TORSDOF 4
ENDMDL
MODEL 3
REMARK VINA RESULT:      -8.5      1.183      3.439
REMARK  4 active torsions:
REMARK  status: ('A' for Active; 'I' for Inactive)
REMARK    1  A    between atoms: C1_2  and  C2_3 
REMARK    2  A    between atoms: C3_4  and  C4_5 
REMARK    3  A    between atoms: C4_5  and  N1_6 
REMARK    4  A    between atoms: N1_6  and  C5_7 
ROOT
HETATM    1  C5  UNL     1      26.802   1.590  53.007  1.00  0.00     0.045 A 
HETATM    2  C6  UNL     1      28.115   1.484  53.485  1.00  0.00     0.049 A 
HETATM    3  C7  UNL     1      28.583   0.618  54.435  1.00  0.00     0.122 A 
HETATM    4  N2  UNL     1      27.617  -0.174  54.903  1.00  0.00    -0.236 NA
HETATM    5  C8  UNL     1      26.358  -0.161  54.528  1.00  0.00     0.183 A 
HETATM    6  O1  UNL     1      25.426  -0.952  55.003  1.00  0.00    -0.290 OA
HETATM    7  C9  UNL     1      24.276  -0.666  54.401  1.00  0.00     0.089 A 
HETATM    8  C10 UNL     1      22.979  -1.130  54.460  1.00  0.00     0.038 A 
HETATM    9  C11 UNL     1      21.972  -0.599  53.666  1.00  0.00     0.003 A 
HETATM   10  C12 UNL     1      22.276   0.424  52.792  1.00  0.00     0.001 A 
HETATM   11  C13 UNL     1      23.572   0.887  52.732  1.00  0.00     0.015 A 
HETATM   12  C14 UNL     1      24.562   0.357  53.520  1.00  0.00     0.015 A 
HETATM   13  C15 UNL     1      25.891   0.720  53.565  1.00  0.00     0.057 A 
ENDROOT
BRANCH   1  14
HETATM   14  N1  UNL     1      26.297   2.483  52.057  1.00  0.00    -0.386 N 
HETATM   15  H5  UNL     1      25.832   1.775  51.445  1.00  0.00     0.160 HD
BRANCH  14  16
HETATM   16  C4  UNL     1      25.748   3.315  51.044  1.00  0.00     0.147 C 
BRANCH  16  17
HETATM   17  C3  UNL     1      26.600   3.370  49.813  1.00  0.00    -0.006 C 
HETATM   18  C2  UNL     1      27.096   4.189  48.923  1.00  0.00     0.022 C 
BRANCH  18  19
HETATM   19  C1  UNL     1      26.885   5.619  48.911  1.00  0.00     0.044 C 
HETATM   20 CL1  UNL     1      25.551   6.525  49.588  1.00  0.00    -0.083 Cl
HETATM   21  C16 UNL     1      27.610   6.614  48.403  1.00  0.00    -0.014 A 
HETATM   22  C17 UNL     1      28.321   7.762  47.888  1.00  0.00     0.014 A 
HETATM   23  C18 UNL     1      28.904   6.596  47.666  1.00  0.00     0.014 A 
ENDBRANCH  18  19
ENDBRANCH  16  17
ENDBRANCH  14  16
ENDBRANCH   1  14
TORSDOF 4
ENDMDL
MODEL 4
REMARK VINA RESULT:      -8.4      3.625      5.715
REMARK  4 active torsions:
REMARK  status: ('A' for Active; 'I' for Inactive)
REMARK    1  A    between atoms: C1_2  and  C2_3 
REMARK    2  A    between atoms: C3_4  and  C4_5 
REMARK    3  A    between atoms: C4_5  and  N1_6 
REMARK    4  A    between atoms: N1_6  and  C5_7 
ROOT
HETATM    1  C5  UNL     1      22.578  -0.341  53.608  1.00  0.00     0.045 A 
HETATM    2  C6  UNL     1      21.445  -0.976  54.137  1.00  0.00     0.049 A 
HETATM    3  C7  UNL     1      20.147  -0.824  53.734  1.00  0.00     0.122 A 
HETATM    4  N2  UNL     1      20.039   0.041  52.724  1.00  0.00    -0.236 NA
HETATM    5  C8  UNL     1      21.029   0.689  52.154  1.00  0.00     0.183 A 
HETATM    6  O1  UNL     1      20.897   1.535  51.160  1.00  0.00    -0.290 OA
HETATM    7  C9  UNL     1      22.098   2.002  50.834  1.00  0.00     0.089 A 
HETATM    8  C10 UNL     1      22.605   2.886  49.905  1.00  0.00     0.038 A 
HETATM    9  C11 UNL     1      23.962   3.165  49.820  1.00  0.00     0.003 A 
HETATM   10  C12 UNL     1      24.831   2.540  50.690  1.00  0.00     0.001 A 
HETATM   11  C13 UNL     1      24.325   1.656  51.618  1.00  0.00     0.015 A 
HETATM   12  C14 UNL     1      22.983   1.385  51.696  1.00  0.00     0.015 A 
HETATM   13  C15 UNL     1      22.342   0.530  52.568  1.00  0.00     0.057 A 
ENDROOT
BRANCH   1  14
HETATM   14  N1  UNL     1      23.908  -0.462  54.020  1.00  0.00    -0.386 N 
HETATM   15  H5  UNL     1      24.217  -1.128  53.276  1.00  0.00     0.160 HD
BRANCH  14  16
HETATM   16  C4  UNL     1      25.274  -0.647  54.367  1.00  0.00     0.147 C 
BRANCH  16  17
HETATM   17  C3  UNL     1      26.108  -1.110  53.211  1.00  0.00    -0.006 C 
HETATM   18  C2  UNL     1      27.304  -1.027  52.689  1.00  0.00     0.022 C 
BRANCH  18  19
HETATM   19  C1  UNL     1      28.398  -0.268  53.251  1.00  0.00     0.044 C 
HETATM   20 CL1  UNL     1      29.929  -0.855  53.858  1.00  0.00    -0.083 Cl
HETATM   21  C16 UNL     1      28.549   1.039  53.461  1.00  0.00    -0.014 A 
HETATM   22  C17 UNL     1      28.811   2.435  53.729  1.00  0.00     0.014 A 
HETATM   23  C18 UNL     1      27.633   2.181  53.183  1.00  0.00     0.014 A 
ENDBRANCH  18  19
ENDBRANCH  16  17
ENDBRANCH  14  16
ENDBRANCH   1  14
TORSDOF 4
ENDMDL
MODEL 5
REMARK VINA RESULT:      -8.4      2.288      4.783
REMARK  4 active torsions:
REMARK  status: ('A' for Active; 'I' for Inactive)
REMARK    1  A    between atoms: C1_2  and  C2_3 
REMARK    2  A    between atoms: C3_4  and  C4_5 
REMARK    3  A    between atoms: C4_5  and  N1_6 
REMARK    4  A    between atoms: N1_6  and  C5_7 
ROOT
HETATM    1  C5  UNL     1      27.228   1.268  52.712  1.00  0.00     0.045 A 
HETATM    2  C6  UNL     1      28.500   1.161  53.292  1.00  0.00     0.049 A 
HETATM    3  C7  UNL     1      28.845   0.448  54.407  1.00  0.00     0.122 A 
HETATM    4  N2  UNL     1      27.795  -0.183  54.936  1.00  0.00    -0.236 NA
HETATM    5  C8  UNL     1      26.565  -0.154  54.477  1.00  0.00     0.183 A 
HETATM    6  O1  UNL     1      25.549  -0.785  55.016  1.00  0.00    -0.290 OA
HETATM    7  C9  UNL     1      24.461  -0.535  54.295  1.00  0.00     0.089 A 
HETATM    8  C10 UNL     1      23.130  -0.895  54.342  1.00  0.00     0.038 A 
HETATM    9  C11 UNL     1      22.214  -0.447  53.400  1.00  0.00     0.003 A 
HETATM   10  C12 UNL     1      22.646   0.382  52.386  1.00  0.00     0.001 A 
HETATM   11  C13 UNL     1      23.975   0.741  52.338  1.00  0.00     0.015 A 
HETATM   12  C14 UNL     1      24.875   0.295  53.273  1.00  0.00     0.015 A 
HETATM   13  C15 UNL     1      26.223   0.571  53.347  1.00  0.00     0.057 A 
ENDROOT
BRANCH   1  14
HETATM   14  N1  UNL     1      26.850   2.009  51.590  1.00  0.00    -0.386 N 
HETATM   15  H5  UNL     1      26.339   1.245  51.092  1.00  0.00     0.160 HD
BRANCH  14  16
HETATM   16  C4  UNL     1      26.423   2.685  50.414  1.00  0.00     0.147 C 
BRANCH  16  17
HETATM   17  C3  UNL     1      25.638   3.926  50.711  1.00  0.00    -0.006 C 
HETATM   18  C2  UNL     1      24.431   4.428  50.687  1.00  0.00     0.022 C 
BRANCH  18  19
HETATM   19  C1  UNL     1      23.251   3.715  50.253  1.00  0.00     0.044 C 
HETATM   20 CL1  UNL     1      23.025   2.774  48.797  1.00  0.00    -0.083 Cl
HETATM   21  C16 UNL     1      22.048   3.577  50.810  1.00  0.00    -0.014 A 
HETATM   22  C17 UNL     1      20.716   3.366  51.329  1.00  0.00     0.014 A 
HETATM   23  C18 UNL     1      21.501   4.113  52.088  1.00  0.00     0.014 A 
ENDBRANCH  18  19
ENDBRANCH  16  17
ENDBRANCH  14  16
ENDBRANCH   1  14
TORSDOF 4
ENDMDL
MODEL 6
REMARK VINA RESULT:      -8.1      2.990      6.636
REMARK  4 active torsions:
REMARK  status: ('A' for Active; 'I' for Inactive)
REMARK    1  A    between atoms: C1_2  and  C2_3 
REMARK    2  A    between atoms: C3_4  and  C4_5 
REMARK    3  A    between atoms: C4_5  and  N1_6 
REMARK    4  A    between atoms: N1_6  and  C5_7 
ROOT
HETATM    1  C5  UNL     1      25.444   0.309  53.591  1.00  0.00     0.045 A 
HETATM    2  C6  UNL     1      26.394  -0.168  54.505  1.00  0.00     0.049 A 
HETATM    3  C7  UNL     1      27.712   0.187  54.591  1.00  0.00     0.122 A 
HETATM    4  N2  UNL     1      28.044   1.089  53.666  1.00  0.00    -0.236 NA
HETATM    5  C8  UNL     1      27.238   1.603  52.765  1.00  0.00     0.183 A 
HETATM    6  O1  UNL     1      27.589   2.491  51.865  1.00  0.00    -0.290 OA
HETATM    7  C9  UNL     1      26.528   2.787  51.121  1.00  0.00     0.089 A 
HETATM    8  C10 UNL     1      26.260   3.620  50.055  1.00  0.00     0.038 A 
HETATM    9  C11 UNL     1      24.996   3.701  49.486  1.00  0.00     0.003 A 
HETATM   10  C12 UNL     1      23.978   2.926  50.001  1.00  0.00     0.001 A 
HETATM   11  C13 UNL     1      24.245   2.095  51.066  1.00  0.00     0.015 A 
HETATM   12  C14 UNL     1      25.497   2.020  51.624  1.00  0.00     0.015 A 
HETATM   13  C15 UNL     1      25.904   1.238  52.683  1.00  0.00     0.057 A 
ENDROOT
BRANCH   1  14
HETATM   14  N1  UNL     1      24.101  -0.059  53.469  1.00  0.00    -0.386 N 
HETATM   15  H5  UNL     1      24.256  -1.084  53.333  1.00  0.00     0.160 HD
BRANCH  14  16
HETATM   16  C4  UNL     1      22.765  -0.523  53.333  1.00  0.00     0.147 C 
BRANCH  16  17
HETATM   17  C3  UNL     1      21.752   0.571  53.487  1.00  0.00    -0.006 C 
HETATM   18  C2  UNL     1      20.738   1.145  52.894  1.00  0.00     0.022 C 
BRANCH  18  19
HETATM   19  C1  UNL     1      20.211   0.757  51.605  1.00  0.00     0.044 C 
HETATM   20 CL1  UNL     1      21.014   0.780  50.052  1.00  0.00    -0.083 Cl
HETATM   21  C16 UNL     1      19.014   0.296  51.243  1.00  0.00    -0.014 A 
HETATM   22  C17 UNL     1      17.754  -0.210  50.749  1.00  0.00     0.014 A 
HETATM   23  C18 UNL     1      17.796   0.012  52.052  1.00  0.00     0.014 A 
ENDBRANCH  18  19
ENDBRANCH  16  17
ENDBRANCH  14  16
ENDBRANCH   1  14
TORSDOF 4
ENDMDL
MODEL 7
REMARK VINA RESULT:      -8.1      3.073      6.613
REMARK  4 active torsions:
REMARK  status: ('A' for Active; 'I' for Inactive)
REMARK    1  A    between atoms: C1_2  and  C2_3 
REMARK    2  A    between atoms: C3_4  and  C4_5 
REMARK    3  A    between atoms: C4_5  and  N1_6 
REMARK    4  A    between atoms: N1_6  and  C5_7 
ROOT
HETATM    1  C5  UNL     1      24.284   3.434  50.200  1.00  0.00     0.045 A 
HETATM    2  C6  UNL     1      24.869   4.418  49.392  1.00  0.00     0.049 A 
HETATM    3  C7  UNL     1      26.202   4.684  49.243  1.00  0.00     0.122 A 
HETATM    4  N2  UNL     1      26.956   3.871  49.986  1.00  0.00    -0.236 NA
HETATM    5  C8  UNL     1      26.516   2.918  50.775  1.00  0.00     0.183 A 
HETATM    6  O1  UNL     1      27.279   2.130  51.496  1.00  0.00    -0.290 OA
HETATM    7  C9  UNL     1      26.504   1.287  52.171  1.00  0.00     0.089 A 
HETATM    8  C10 UNL     1      26.697   0.254  53.063  1.00  0.00     0.038 A 
HETATM    9  C11 UNL     1      25.635  -0.457  53.606  1.00  0.00     0.003 A 
HETATM   10  C12 UNL     1      24.348  -0.121  53.242  1.00  0.00     0.001 A 
HETATM   11  C13 UNL     1      24.154   0.910  52.349  1.00  0.00     0.015 A 
HETATM   12  C14 UNL     1      25.209   1.608  51.817  1.00  0.00     0.015 A 
HETATM   13  C15 UNL     1      25.163   2.655  50.921  1.00  0.00     0.057 A 
ENDROOT
BRANCH   1  14
HETATM   14  N1  UNL     1      22.926   3.162  50.386  1.00  0.00    -0.386 N 
HETATM   15  H5  UNL     1      22.792   2.573  49.533  1.00  0.00     0.160 HD
BRANCH  14  16
HETATM   16  C4  UNL     1      21.547   2.835  50.493  1.00  0.00     0.147 C 
BRANCH  16  17
HETATM   17  C3  UNL     1      21.044   2.896  51.903  1.00  0.00    -0.006 C 
HETATM   18  C2  UNL     1      20.500   2.176  52.848  1.00  0.00     0.022 C 
BRANCH  18  19
HETATM   19  C1  UNL     1      20.164   0.775  52.727  1.00  0.00     0.044 C 
HETATM   20 CL1  UNL     1      19.190  -0.006  51.504  1.00  0.00    -0.083 Cl
HETATM   21  C16 UNL     1      20.483  -0.277  53.480  1.00  0.00    -0.014 A 
HETATM   22  C17 UNL     1      20.771  -1.480  54.227  1.00  0.00     0.014 A 
HETATM   23  C18 UNL     1      21.307  -0.374  54.716  1.00  0.00     0.014 A 
ENDBRANCH  18  19
ENDBRANCH  16  17
ENDBRANCH  14  16
ENDBRANCH   1  14
TORSDOF 4
ENDMDL
MODEL 8
REMARK VINA RESULT:      -7.8      1.593      2.348
REMARK  4 active torsions:
REMARK  status: ('A' for Active; 'I' for Inactive)
REMARK    1  A    between atoms: C1_2  and  C2_3 
REMARK    2  A    between atoms: C3_4  and  C4_5 
REMARK    3  A    between atoms: C4_5  and  N1_6 
REMARK    4  A    between atoms: N1_6  and  C5_7 
ROOT
HETATM    1  C5  UNL     1      22.844   0.230  52.965  1.00  0.00     0.045 A 
HETATM    2  C6  UNL     1      21.765  -0.410  53.590  1.00  0.00     0.049 A 
HETATM    3  C7  UNL     1      21.808  -1.224  54.688  1.00  0.00     0.122 A 
HETATM    4  N2  UNL     1      23.051  -1.371  55.148  1.00  0.00    -0.236 NA
HETATM    5  C8  UNL     1      24.131  -0.820  54.643  1.00  0.00     0.183 A 
HETATM    6  O1  UNL     1      25.345  -0.979  55.116  1.00  0.00    -0.290 OA
HETATM    7  C9  UNL     1      26.190  -0.281  54.364  1.00  0.00     0.089 A 
HETATM    8  C10 UNL     1      27.549  -0.049  54.348  1.00  0.00     0.038 A 
HETATM    9  C11 UNL     1      28.144   0.764  53.392  1.00  0.00     0.003 A 
HETATM   10  C12 UNL     1      27.354   1.357  52.430  1.00  0.00     0.001 A 
HETATM   11  C13 UNL     1      25.995   1.126  52.446  1.00  0.00     0.015 A 
HETATM   12  C14 UNL     1      25.415   0.321  53.394  1.00  0.00     0.015 A 
HETATM   13  C15 UNL     1      24.080   0.004  53.530  1.00  0.00     0.057 A 
ENDROOT
BRANCH   1  14
HETATM   14  N1  UNL     1      22.826   1.044  51.829  1.00  0.00    -0.386 N 
HETATM   15  H5  UNL     1      22.260   0.410  51.221  1.00  0.00     0.160 HD
BRANCH  14  16
HETATM   16  C4  UNL     1      22.757   1.805  50.630  1.00  0.00     0.147 C 
BRANCH  16  17
HETATM   17  C3  UNL     1      22.477   3.256  50.879  1.00  0.00    -0.006 C 
HETATM   18  C2  UNL     1      22.781   4.461  50.473  1.00  0.00     0.022 C 
BRANCH  18  19
HETATM   19  C1  UNL     1      23.705   4.762  49.403  1.00  0.00     0.044 C 
HETATM   20 CL1  UNL     1      23.368   5.489  47.849  1.00  0.00    -0.083 Cl
HETATM   21  C16 UNL     1      25.021   4.578  49.296  1.00  0.00    -0.014 A 
HETATM   22  C17 UNL     1      26.441   4.423  49.081  1.00  0.00     0.014 A 
HETATM   23  C18 UNL     1      26.002   3.997  50.253  1.00  0.00     0.014 A 
ENDBRANCH  18  19
ENDBRANCH  16  17
ENDBRANCH  14  16
ENDBRANCH   1  14
TORSDOF 4
ENDMDL
MODEL 9
REMARK VINA RESULT:      -7.5      2.875      6.593
REMARK  4 active torsions:
REMARK  status: ('A' for Active; 'I' for Inactive)
REMARK    1  A    between atoms: C1_2  and  C2_3 
REMARK    2  A    between atoms: C3_4  and  C4_5 
REMARK    3  A    between atoms: C4_5  and  N1_6 
REMARK    4  A    between atoms: N1_6  and  C5_7 
ROOT
HETATM    1  C5  UNL     1      24.024   2.647  52.108  1.00  0.00     0.045 A 
HETATM    2  C6  UNL     1      24.298   1.516  52.889  1.00  0.00     0.049 A 
HETATM    3  C7  UNL     1      25.460   0.796  52.925  1.00  0.00     0.122 A 
HETATM    4  N2  UNL     1      26.378   1.294  52.094  1.00  0.00    -0.236 NA
HETATM    5  C8  UNL     1      26.230   2.344  51.320  1.00  0.00     0.183 A 
HETATM    6  O1  UNL     1      27.150   2.816  50.512  1.00  0.00    -0.290 OA
HETATM    7  C9  UNL     1      26.661   3.881  49.885  1.00  0.00     0.089 A 
HETATM    8  C10 UNL     1      27.121   4.784  48.949  1.00  0.00     0.038 A 
HETATM    9  C11 UNL     1      26.331   5.826  48.484  1.00  0.00     0.003 A 
HETATM   10  C12 UNL     1      25.048   5.965  48.972  1.00  0.00     0.001 A 
HETATM   11  C13 UNL     1      24.589   5.064  49.908  1.00  0.00     0.015 A 
HETATM   12  C14 UNL     1      25.375   4.036  50.363  1.00  0.00     0.015 A 
HETATM   13  C15 UNL     1      25.049   3.069  51.289  1.00  0.00     0.057 A 
ENDROOT
BRANCH   1  14
HETATM   14  N1  UNL     1      22.838   3.383  52.037  1.00  0.00    -0.386 N 
HETATM   15  H5  UNL     1      22.267   2.664  51.537  1.00  0.00     0.160 HD
BRANCH  14  16
HETATM   16  C4  UNL     1      21.592   4.056  51.919  1.00  0.00     0.147 C 
BRANCH  16  17
HETATM   17  C3  UNL     1      20.442   3.242  52.429  1.00  0.00    -0.006 C 
HETATM   18  C2  UNL     1      20.032   2.013  52.608  1.00  0.00     0.022 C 
BRANCH  18  19
HETATM   19  C1  UNL     1      20.793   0.833  52.265  1.00  0.00     0.044 C 
HETATM   20 CL1  UNL     1      21.327   0.306  50.686  1.00  0.00    -0.083 Cl
HETATM   21  C16 UNL     1      21.282  -0.151  53.019  1.00  0.00    -0.014 A 
HETATM   22  C17 UNL     1      21.852  -1.262  53.745  1.00  0.00     0.014 A 
HETATM   23  C18 UNL     1      21.216  -0.374  54.490  1.00  0.00     0.014 A 
ENDBRANCH  18  19
ENDBRANCH  16  17
ENDBRANCH  14  16
ENDBRANCH   1  14
TORSDOF 4
ENDMDL
