MODEL 1
REMARK VINA RESULT:      -7.5      0.000      0.000
REMARK  0 active torsions:
REMARK  status: ('A' for Active; 'I' for Inactive)
ROOT
HETATM    1  O1  UNL     1      26.499   2.712  50.093  1.00  0.00    -0.295 OA
HETATM    2  C1  UNL     1      25.983   2.781  51.218  1.00  0.00     0.156 C 
HETATM    3  C2  UNL     1      24.734   3.599  51.129  1.00  0.00     0.246 C 
HETATM    4  O2  UNL     1      24.126   3.824  52.336  1.00  0.00    -0.378 OA
HETATM    5  C3  UNL     1      22.951   4.522  52.311  1.00  0.00     0.223 C 
HETATM    6  C4  UNL     1      21.867   3.826  51.547  1.00  0.00     0.043 C 
HETATM    7  N1  UNL     1      21.693   3.625  50.285  1.00  0.00    -0.248 NA
HETATM    8  C5  UNL     1      21.011   2.441  49.812  1.00  0.00     0.232 C 
HETATM    9  N2  UNL     1      20.563   1.563  50.686  1.00  0.00    -0.248 NA
HETATM   10  C6  UNL     1      20.694   1.723  52.087  1.00  0.00     0.044 C 
HETATM   11  C7  UNL     1      20.717   0.475  52.541  1.00  0.00     0.153 C 
HETATM   12  N3  UNL     1      20.794  -0.537  53.530  1.00  0.00    -0.410 N 
HETATM   13  C8  UNL     1      22.105  -1.212  53.367  1.00  0.00     0.116 C 
HETATM   14  C9  UNL     1      23.105  -0.145  53.772  1.00  0.00     0.038 C 
HETATM   15  C10 UNL     1      24.530  -0.518  53.660  1.00  0.00     0.118 C 
HETATM   16  N4  UNL     1      25.443   0.507  54.045  1.00  0.00    -0.412 N 
HETATM   17  C11 UNL     1      26.713  -0.022  54.357  1.00  0.00     0.117 C 
HETATM   18  C12 UNL     1      27.849   0.410  53.497  1.00  0.00     0.020 C 
HETATM   19  C13 UNL     1      27.345   0.938  52.173  1.00  0.00     0.015 C 
HETATM   20  C14 UNL     1      26.504   2.149  52.498  1.00  0.00     0.075 C 
HETATM   21  C15 UNL     1      25.350   1.725  53.344  1.00  0.00     0.129 C 
HETATM   22  C16 UNL     1      20.731   3.223  52.316  1.00  0.00     0.114 C 
HETATM   23  H7  UNL     1      20.104  -0.846  54.286  1.00  0.00     0.154 HD
ENDROOT
TORSDOF 0
ENDMDL
MODEL 2
REMARK VINA RESULT:      -7.4      2.108      4.941
REMARK  0 active torsions:
REMARK  status: ('A' for Active; 'I' for Inactive)
ROOT
HETATM    1  O1  UNL     1      19.698   2.852  52.807  1.00  0.00    -0.295 OA
HETATM    2  C1  UNL     1      20.406   2.057  52.170  1.00  0.00     0.156 C 
HETATM    3  C2  UNL     1      20.879   2.725  50.919  1.00  0.00     0.246 C 
HETATM    4  O2  UNL     1      21.596   1.907  50.086  1.00  0.00    -0.378 OA
HETATM    5  C3  UNL     1      22.100   2.477  48.950  1.00  0.00     0.223 C 
HETATM    6  C4  UNL     1      23.084   3.572  49.225  1.00  0.00     0.043 C 
HETATM    7  N1  UNL     1      22.936   4.772  49.677  1.00  0.00    -0.248 NA
HETATM    8  C5  UNL     1      23.975   5.398  50.463  1.00  0.00     0.232 C 
HETATM    9  N2  UNL     1      25.082   4.732  50.716  1.00  0.00    -0.248 NA
HETATM   10  C6  UNL     1      25.329   3.421  50.236  1.00  0.00     0.044 C 
HETATM   11  C7  UNL     1      26.152   2.909  51.145  1.00  0.00     0.153 C 
HETATM   12  N3  UNL     1      26.968   1.907  51.727  1.00  0.00    -0.410 N 
HETATM   13  C8  UNL     1      26.289   1.453  52.965  1.00  0.00     0.116 C 
HETATM   14  C9  UNL     1      25.050   0.744  52.449  1.00  0.00     0.038 C 
HETATM   15  C10 UNL     1      24.129   0.217  53.477  1.00  0.00     0.118 C 
HETATM   16  N4  UNL     1      22.975  -0.440  52.959  1.00  0.00    -0.412 N 
HETATM   17  C11 UNL     1      22.393  -1.296  53.917  1.00  0.00     0.117 C 
HETATM   18  C12 UNL     1      21.011  -0.965  54.361  1.00  0.00     0.020 C 
HETATM   19  C13 UNL     1      20.689   0.483  54.069  1.00  0.00     0.015 C 
HETATM   20  C14 UNL     1      20.759   0.634  52.569  1.00  0.00     0.075 C 
HETATM   21  C15 UNL     1      22.145   0.324  52.114  1.00  0.00     0.129 C 
HETATM   22  C16 UNL     1      24.533   3.311  48.949  1.00  0.00     0.114 C 
HETATM   23  H7  UNL     1      27.906   1.492  51.428  1.00  0.00     0.154 HD
ENDROOT
TORSDOF 0
ENDMDL
MODEL 3
REMARK VINA RESULT:      -6.8      2.350      4.374
REMARK  0 active torsions:
REMARK  status: ('A' for Active; 'I' for Inactive)
ROOT
HETATM    1  O1  UNL     1      24.992  -0.088  52.731  1.00  0.00    -0.295 OA
HETATM    2  C1  UNL     1      24.043   0.644  53.050  1.00  0.00     0.156 C 
HETATM    3  C2  UNL     1      24.374   2.054  52.677  1.00  0.00     0.246 C 
HETATM    4  O2  UNL     1      23.433   2.970  53.069  1.00  0.00    -0.378 OA
HETATM    5  C3  UNL     1      23.655   4.270  52.710  1.00  0.00     0.223 C 
HETATM    6  C4  UNL     1      23.683   4.476  51.227  1.00  0.00     0.043 C 
HETATM    7  N1  UNL     1      24.549   4.153  50.326  1.00  0.00    -0.248 NA
HETATM    8  C5  UNL     1      24.131   3.841  48.978  1.00  0.00     0.232 C 
HETATM    9  N2  UNL     1      22.851   3.891  48.671  1.00  0.00    -0.248 NA
HETATM   10  C6  UNL     1      21.843   4.259  49.596  1.00  0.00     0.044 C 
HETATM   11  C7  UNL     1      20.766   3.621  49.153  1.00  0.00     0.153 C 
HETATM   12  N3  UNL     1      19.406   3.224  49.162  1.00  0.00    -0.410 N 
HETATM   13  C8  UNL     1      19.371   1.785  49.519  1.00  0.00     0.116 C 
HETATM   14  C9  UNL     1      19.829   1.768  50.965  1.00  0.00     0.038 C 
HETATM   15  C10 UNL     1      19.946   0.434  51.592  1.00  0.00     0.118 C 
HETATM   16  N4  UNL     1      20.382   0.454  52.949  1.00  0.00    -0.412 N 
HETATM   17  C11 UNL     1      20.043  -0.741  53.618  1.00  0.00     0.117 C 
HETATM   18  C12 UNL     1      21.173  -1.575  54.113  1.00  0.00     0.020 C 
HETATM   19  C13 UNL     1      22.451  -1.231  53.383  1.00  0.00     0.015 C 
HETATM   20  C14 UNL     1      22.743   0.213  53.709  1.00  0.00     0.075 C 
HETATM   21  C15 UNL     1      21.628   1.062  53.200  1.00  0.00     0.129 C 
HETATM   22  C16 UNL     1      22.528   5.184  50.586  1.00  0.00     0.114 C 
HETATM   23  H7  UNL     1      18.506   3.765  48.961  1.00  0.00     0.154 HD
ENDROOT
TORSDOF 0
ENDMDL
MODEL 4
REMARK VINA RESULT:      -6.8      1.533      5.291
REMARK  0 active torsions:
REMARK  status: ('A' for Active; 'I' for Inactive)
ROOT
HETATM    1  O1  UNL     1      23.197   5.008  52.144  1.00  0.00    -0.295 OA
HETATM    2  C1  UNL     1      23.203   3.839  51.732  1.00  0.00     0.156 C 
HETATM    3  C2  UNL     1      24.615   3.427  51.463  1.00  0.00     0.246 C 
HETATM    4  O2  UNL     1      24.738   2.179  50.911  1.00  0.00    -0.378 OA
HETATM    5  C3  UNL     1      26.009   1.727  50.691  1.00  0.00     0.223 C 
HETATM    6  C4  UNL     1      26.811   1.586  51.947  1.00  0.00     0.043 C 
HETATM    7  N1  UNL     1      27.334   2.459  52.740  1.00  0.00    -0.248 NA
HETATM    8  C5  UNL     1      27.471   2.186  54.153  1.00  0.00     0.232 C 
HETATM    9  N2  UNL     1      27.057   1.030  54.629  1.00  0.00    -0.248 NA
HETATM   10  C6  UNL     1      26.494   0.012  53.821  1.00  0.00     0.044 C 
HETATM   11  C7  UNL     1      25.692  -0.639  54.656  1.00  0.00     0.153 C 
HETATM   12  N3  UNL     1      24.758  -1.635  55.035  1.00  0.00    -0.410 N 
HETATM   13  C8  UNL     1      23.464  -0.952  55.280  1.00  0.00     0.116 C 
HETATM   14  C9  UNL     1      23.046  -0.480  53.899  1.00  0.00     0.038 C 
HETATM   15  C10 UNL     1      21.790   0.297  53.833  1.00  0.00     0.118 C 
HETATM   16  N4  UNL     1      21.428   0.727  52.523  1.00  0.00    -0.412 N 
HETATM   17  C11 UNL     1      20.055   1.040  52.442  1.00  0.00     0.117 C 
HETATM   18  C12 UNL     1      19.707   2.454  52.127  1.00  0.00     0.020 C 
HETATM   19  C13 UNL     1      20.869   3.371  52.435  1.00  0.00     0.015 C 
HETATM   20  C14 UNL     1      21.994   2.941  51.526  1.00  0.00     0.075 C 
HETATM   21  C15 UNL     1      22.366   1.533  51.847  1.00  0.00     0.129 C 
HETATM   22  C16 UNL     1      27.111   0.206  52.448  1.00  0.00     0.114 C 
HETATM   23  H7  UNL     1      24.857  -2.692  55.159  1.00  0.00     0.154 HD
ENDROOT
TORSDOF 0
ENDMDL
MODEL 5
REMARK VINA RESULT:      -6.8      1.402      2.131
REMARK  0 active torsions:
REMARK  status: ('A' for Active; 'I' for Inactive)
ROOT
HETATM    1  O1  UNL     1      26.676   2.130  50.728  1.00  0.00    -0.295 OA
HETATM    2  C1  UNL     1      25.807   2.366  51.581  1.00  0.00     0.156 C 
HETATM    3  C2  UNL     1      25.091   3.625  51.207  1.00  0.00     0.246 C 
HETATM    4  O2  UNL     1      24.168   4.037  52.132  1.00  0.00    -0.378 OA
HETATM    5  C3  UNL     1      23.444   5.154  51.820  1.00  0.00     0.223 C 
HETATM    6  C4  UNL     1      22.598   4.988  50.596  1.00  0.00     0.043 C 
HETATM    7  N1  UNL     1      22.897   4.918  49.343  1.00  0.00    -0.248 NA
HETATM    8  C5  UNL     1      22.093   4.132  48.434  1.00  0.00     0.232 C 
HETATM    9  N2  UNL     1      21.044   3.484  48.897  1.00  0.00    -0.248 NA
HETATM   10  C6  UNL     1      20.637   3.529  50.253  1.00  0.00     0.044 C 
HETATM   11  C7  UNL     1      20.022   2.366  50.431  1.00  0.00     0.153 C 
HETATM   12  N3  UNL     1      19.316   1.377  51.162  1.00  0.00    -0.410 N 
HETATM   13  C8  UNL     1      20.239   0.232  51.355  1.00  0.00     0.116 C 
HETATM   14  C9  UNL     1      21.295   0.784  52.295  1.00  0.00     0.038 C 
HETATM   15  C10 UNL     1      22.402  -0.134  52.636  1.00  0.00     0.118 C 
HETATM   16  N4  UNL     1      23.378   0.416  53.518  1.00  0.00    -0.412 N 
HETATM   17  C11 UNL     1      24.125  -0.595  54.159  1.00  0.00     0.117 C 
HETATM   18  C12 UNL     1      25.585  -0.636  53.869  1.00  0.00     0.020 C 
HETATM   19  C13 UNL     1      25.895   0.097  52.584  1.00  0.00     0.015 C 
HETATM   20  C14 UNL     1      25.492   1.533  52.812  1.00  0.00     0.075 C 
HETATM   21  C15 UNL     1      24.026   1.589  53.083  1.00  0.00     0.129 C 
HETATM   22  C16 UNL     1      21.114   4.875  50.768  1.00  0.00     0.114 C 
HETATM   23  H7  UNL     1      18.317   1.352  51.541  1.00  0.00     0.154 HD
ENDROOT
TORSDOF 0
ENDMDL
MODEL 6
REMARK VINA RESULT:      -6.4      9.348     11.446
REMARK  0 active torsions:
REMARK  status: ('A' for Active; 'I' for Inactive)
ROOT
HETATM    1  O1  UNL     1      33.843   6.836  43.877  1.00  0.00    -0.295 OA
HETATM    2  C1  UNL     1      33.802   6.856  45.117  1.00  0.00     0.156 C 
HETATM    3  C2  UNL     1      33.571   8.263  45.571  1.00  0.00     0.246 C 
HETATM    4  O2  UNL     1      33.600   8.422  46.931  1.00  0.00    -0.378 OA
HETATM    5  C3  UNL     1      33.344   9.677  47.408  1.00  0.00     0.223 C 
HETATM    6  C4  UNL     1      31.969  10.167  47.073  1.00  0.00     0.043 C 
HETATM    7  N1  UNL     1      31.439  10.556  45.963  1.00  0.00    -0.248 NA
HETATM    8  C5  UNL     1      30.031  10.355  45.707  1.00  0.00     0.232 C 
HETATM    9  N2  UNL     1      29.286   9.769  46.621  1.00  0.00    -0.248 NA
HETATM   10  C6  UNL     1      29.788   9.335  47.873  1.00  0.00     0.044 C 
HETATM   11  C7  UNL     1      28.988   8.324  48.194  1.00  0.00     0.153 C 
HETATM   12  N3  UNL     1      28.510   7.265  49.005  1.00  0.00    -0.410 N 
HETATM   13  C8  UNL     1      28.831   5.997  48.304  1.00  0.00     0.116 C 
HETATM   14  C9  UNL     1      30.345   5.931  48.368  1.00  0.00     0.038 C 
HETATM   15  C10 UNL     1      30.972   4.777  47.691  1.00  0.00     0.118 C 
HETATM   16  N4  UNL     1      32.396   4.746  47.768  1.00  0.00    -0.412 N 
HETATM   17  C11 UNL     1      32.899   3.450  47.531  1.00  0.00     0.117 C 
HETATM   18  C12 UNL     1      33.766   3.276  46.332  1.00  0.00     0.020 C 
HETATM   19  C13 UNL     1      33.542   4.398  45.344  1.00  0.00     0.015 C 
HETATM   20  C14 UNL     1      33.951   5.667  46.051  1.00  0.00     0.075 C 
HETATM   21  C15 UNL     1      33.076   5.863  47.242  1.00  0.00     0.129 C 
HETATM   22  C16 UNL     1      30.958  10.254  48.174  1.00  0.00     0.114 C 
HETATM   23  H7  UNL     1      28.000   7.263  49.944  1.00  0.00     0.154 HD
ENDROOT
TORSDOF 0
ENDMDL
MODEL 7
REMARK VINA RESULT:      -6.3      2.707      5.948
REMARK  0 active torsions:
REMARK  status: ('A' for Active; 'I' for Inactive)
ROOT
HETATM    1  O1  UNL     1      18.136   4.440  50.870  1.00  0.00    -0.295 OA
HETATM    2  C1  UNL     1      18.747   3.442  50.462  1.00  0.00     0.156 C 
HETATM    3  C2  UNL     1      20.102   3.863  49.990  1.00  0.00     0.246 C 
HETATM    4  O2  UNL     1      20.837   2.853  49.427  1.00  0.00    -0.378 OA
HETATM    5  C3  UNL     1      22.105   3.167  49.024  1.00  0.00     0.223 C 
HETATM    6  C4  UNL     1      22.993   3.599  50.150  1.00  0.00     0.043 C 
HETATM    7  N1  UNL     1      23.026   4.678  50.857  1.00  0.00    -0.248 NA
HETATM    8  C5  UNL     1      23.461   4.645  52.235  1.00  0.00     0.232 C 
HETATM    9  N2  UNL     1      23.829   3.498  52.768  1.00  0.00    -0.248 NA
HETATM   10  C6  UNL     1      23.842   2.276  52.051  1.00  0.00     0.044 C 
HETATM   11  C7  UNL     1      23.651   1.361  52.995  1.00  0.00     0.153 C 
HETATM   12  N3  UNL     1      23.491   0.049  53.507  1.00  0.00    -0.410 N 
HETATM   13  C8  UNL     1      22.078  -0.084  53.938  1.00  0.00     0.116 C 
HETATM   14  C9  UNL     1      21.305  -0.039  52.633  1.00  0.00     0.038 C 
HETATM   15  C10 UNL     1      19.833  -0.100  52.750  1.00  0.00     0.118 C 
HETATM   16  N4  UNL     1      19.137  -0.053  51.507  1.00  0.00    -0.412 N 
HETATM   17  C11 UNL     1      17.827  -0.563  51.627  1.00  0.00     0.117 C 
HETATM   18  C12 UNL     1      16.711   0.387  51.365  1.00  0.00     0.020 C 
HETATM   19  C13 UNL     1      17.184   1.816  51.499  1.00  0.00     0.015 C 
HETATM   20  C14 UNL     1      18.237   2.010  50.436  1.00  0.00     0.075 C 
HETATM   21  C15 UNL     1      19.371   1.078  50.700  1.00  0.00     0.129 C 
HETATM   22  C16 UNL     1      24.073   2.666  50.603  1.00  0.00     0.114 C 
HETATM   23  H7  UNL     1      24.181  -0.760  53.617  1.00  0.00     0.154 HD
ENDROOT
TORSDOF 0
ENDMDL
MODEL 8
REMARK VINA RESULT:      -6.1     21.646     24.135
REMARK  0 active torsions:
REMARK  status: ('A' for Active; 'I' for Inactive)
ROOT
HETATM    1  O1  UNL     1      43.942  -1.225  69.027  1.00  0.00    -0.295 OA
HETATM    2  C1  UNL     1      43.192  -0.330  68.607  1.00  0.00     0.156 C 
HETATM    3  C2  UNL     1      42.141  -0.947  67.740  1.00  0.00     0.246 C 
HETATM    4  O2  UNL     1      41.308  -0.039  67.142  1.00  0.00    -0.378 OA
HETATM    5  C3  UNL     1      40.294  -0.547  66.378  1.00  0.00     0.223 C 
HETATM    6  C4  UNL     1      39.326  -1.381  67.160  1.00  0.00     0.043 C 
HETATM    7  N1  UNL     1      39.426  -2.556  67.683  1.00  0.00    -0.248 NA
HETATM    8  C5  UNL     1      38.701  -2.892  68.887  1.00  0.00     0.232 C 
HETATM    9  N2  UNL     1      37.930  -1.985  69.451  1.00  0.00    -0.248 NA
HETATM   10  C6  UNL     1      37.750  -0.682  68.925  1.00  0.00     0.044 C 
HETATM   11  C7  UNL     1      37.473   0.050  69.998  1.00  0.00     0.153 C 
HETATM   12  N3  UNL     1      37.156   1.238  70.704  1.00  0.00    -0.410 N 
HETATM   13  C8  UNL     1      38.349   1.601  71.508  1.00  0.00     0.116 C 
HETATM   14  C9  UNL     1      39.377   1.988  70.462  1.00  0.00     0.038 C 
HETATM   15  C10 UNL     1      40.714   2.356  70.973  1.00  0.00     0.118 C 
HETATM   16  N4  UNL     1      41.657   2.712  69.965  1.00  0.00    -0.412 N 
HETATM   17  C11 UNL     1      42.720   3.472  70.495  1.00  0.00     0.117 C 
HETATM   18  C12 UNL     1      44.080   2.869  70.416  1.00  0.00     0.020 C 
HETATM   19  C13 UNL     1      43.990   1.371  70.229  1.00  0.00     0.015 C 
HETATM   20  C14 UNL     1      43.293   1.156  68.907  1.00  0.00     0.075 C 
HETATM   21  C15 UNL     1      41.921   1.737  68.982  1.00  0.00     0.129 C 
HETATM   22  C16 UNL     1      37.963  -0.822  67.429  1.00  0.00     0.114 C 
HETATM   23  H7  UNL     1      36.269   1.833  70.733  1.00  0.00     0.154 HD
ENDROOT
TORSDOF 0
ENDMDL
MODEL 9
REMARK VINA RESULT:      -6.1     10.660     13.151
REMARK  0 active torsions:
REMARK  status: ('A' for Active; 'I' for Inactive)
ROOT
HETATM    1  O1  UNL     1      35.022   7.493  43.333  1.00  0.00    -0.295 OA
HETATM    2  C1  UNL     1      33.880   7.133  43.659  1.00  0.00     0.156 C 
HETATM    3  C2  UNL     1      33.976   5.850  44.421  1.00  0.00     0.246 C 
HETATM    4  O2  UNL     1      32.763   5.306  44.753  1.00  0.00    -0.378 OA
HETATM    5  C3  UNL     1      32.788   4.159  45.497  1.00  0.00     0.223 C 
HETATM    6  C4  UNL     1      33.420   4.341  46.842  1.00  0.00     0.043 C 
HETATM    7  N1  UNL     1      34.646   4.518  47.203  1.00  0.00    -0.248 NA
HETATM    8  C5  UNL     1      34.965   5.297  48.377  1.00  0.00     0.232 C 
HETATM    9  N2  UNL     1      33.989   5.829  49.083  1.00  0.00    -0.248 NA
HETATM   10  C6  UNL     1      32.618   5.662  48.766  1.00  0.00     0.044 C 
HETATM   11  C7  UNL     1      32.050   6.759  49.254  1.00  0.00     0.153 C 
HETATM   12  N3  UNL     1      30.976   7.638  49.541  1.00  0.00    -0.410 N 
HETATM   13  C8  UNL     1      31.149   8.836  48.683  1.00  0.00     0.116 C 
HETATM   14  C9  UNL     1      30.903   8.307  47.282  1.00  0.00     0.038 C 
HETATM   15  C10 UNL     1      31.060   9.284  46.184  1.00  0.00     0.118 C 
HETATM   16  N4  UNL     1      30.825   8.754  44.882  1.00  0.00    -0.412 N 
HETATM   17  C11 UNL     1      30.537   9.775  43.952  1.00  0.00     0.117 C 
HETATM   18  C12 UNL     1      31.497   9.948  42.827  1.00  0.00     0.020 C 
HETATM   19  C13 UNL     1      32.834   9.330  43.167  1.00  0.00     0.015 C 
HETATM   20  C14 UNL     1      32.578   7.854  43.354  1.00  0.00     0.075 C 
HETATM   21  C15 UNL     1      31.633   7.666  44.492  1.00  0.00     0.129 C 
HETATM   22  C16 UNL     1      32.535   4.326  48.051  1.00  0.00     0.114 C 
HETATM   23  H7  UNL     1      30.157   7.560  50.222  1.00  0.00     0.154 HD
ENDROOT
TORSDOF 0
ENDMDL
