MODEL 1
REMARK VINA RESULT:      -8.4      0.000      0.000
REMARK  0 active torsions:
REMARK  status: ('A' for Active; 'I' for Inactive)
ROOT
HETATM    1  N1  UNL     1      27.065   0.214  54.758  1.00  0.00    -0.101 N 
HETATM    2  C1  UNL     1      26.111   0.687  54.202  1.00  0.00    -0.007 C 
HETATM    3  C2  UNL     1      24.886   1.281  53.519  1.00  0.00     0.087 C 
HETATM    4  C3  UNL     1      25.401   2.506  53.687  1.00  0.00     0.221 C 
HETATM    5  N2  UNL     1      26.653   2.399  54.326  1.00  0.00    -0.277 NA
HETATM    6  C4  UNL     1      27.615   2.535  53.428  1.00  0.00     0.092 C 
HETATM    7  C5  UNL     1      27.263   2.238  52.168  1.00  0.00     0.006 A 
HETATM    8  C6  UNL     1      26.898   2.021  50.734  1.00  0.00     0.027 A 
HETATM    9  C7  UNL     1      26.835   1.085  51.789  1.00  0.00    -0.015 A 
HETATM   10  C8  UNL     1      26.479  -0.335  52.126  1.00  0.00    -0.029 A 
HETATM   11  C9  UNL     1      26.625  -1.670  52.196  1.00  0.00     0.005 A 
HETATM   12  C10 UNL     1      25.424  -1.061  52.746  1.00  0.00     0.066 A 
HETATM   13  C11 UNL     1      24.524  -0.176  53.263  1.00  0.00     0.025 C 
HETATM   14  N3  UNL     1      23.254  -0.427  53.697  1.00  0.00    -0.351 N 
HETATM   15  C12 UNL     1      23.131  -1.374  54.788  1.00  0.00     0.152 C 
HETATM   16  C13 UNL     1      21.715  -1.858  54.883  1.00  0.00    -0.011 C 
HETATM   17  C14 UNL     1      20.772  -1.021  54.506  1.00  0.00    -0.025 C 
HETATM   18  C15 UNL     1      21.008   0.341  54.004  1.00  0.00     0.086 C 
HETATM   19  C16 UNL     1      22.189   0.270  53.029  1.00  0.00     0.275 C 
HETATM   20  F1  UNL     1      21.769  -0.453  51.915  1.00  0.00    -0.227 F 
ENDROOT
TORSDOF 0
ENDMDL
MODEL 2
REMARK VINA RESULT:      -7.9      3.046      5.115
REMARK  0 active torsions:
REMARK  status: ('A' for Active; 'I' for Inactive)
ROOT
HETATM    1  N1  UNL     1      24.151   4.812  51.813  1.00  0.00    -0.101 N 
HETATM    2  C1  UNL     1      24.095   3.613  51.771  1.00  0.00    -0.007 C 
HETATM    3  C2  UNL     1      24.035   2.091  51.743  1.00  0.00     0.087 C 
HETATM    4  C3  UNL     1      22.699   2.155  51.828  1.00  0.00     0.221 C 
HETATM    5  N2  UNL     1      22.301   3.506  51.865  1.00  0.00    -0.277 NA
HETATM    6  C4  UNL     1      21.858   3.864  50.670  1.00  0.00     0.092 C 
HETATM    7  C5  UNL     1      22.325   3.130  49.648  1.00  0.00     0.006 A 
HETATM    8  C6  UNL     1      22.730   2.282  48.485  1.00  0.00     0.027 A 
HETATM    9  C7  UNL     1      23.571   3.022  49.345  1.00  0.00    -0.015 A 
HETATM   10  C8  UNL     1      25.004   3.379  49.624  1.00  0.00    -0.029 A 
HETATM   11  C9  UNL     1      26.183   4.006  49.462  1.00  0.00     0.005 A 
HETATM   12  C10 UNL     1      26.041   3.034  50.535  1.00  0.00     0.066 A 
HETATM   13  C11 UNL     1      25.532   2.199  51.486  1.00  0.00     0.025 C 
HETATM   14  N3  UNL     1      26.217   1.425  52.378  1.00  0.00    -0.351 N 
HETATM   15  C12 UNL     1      27.089   2.134  53.295  1.00  0.00     0.152 C 
HETATM   16  C13 UNL     1      28.061   1.176  53.914  1.00  0.00    -0.011 C 
HETATM   17  C14 UNL     1      27.656  -0.065  54.074  1.00  0.00    -0.025 C 
HETATM   18  C15 UNL     1      26.330  -0.573  53.690  1.00  0.00     0.086 C 
HETATM   19  C16 UNL     1      26.001   0.006  52.309  1.00  0.00     0.275 C 
HETATM   20  F1  UNL     1      26.881  -0.568  51.394  1.00  0.00    -0.227 F 
ENDROOT
TORSDOF 0
ENDMDL
MODEL 3
REMARK VINA RESULT:      -7.0      3.576      5.172
REMARK  0 active torsions:
REMARK  status: ('A' for Active; 'I' for Inactive)
ROOT
HETATM    1  N1  UNL     1      24.623   4.930  50.008  1.00  0.00    -0.101 N 
HETATM    2  C1  UNL     1      24.213   4.318  50.958  1.00  0.00    -0.007 C 
HETATM    3  C2  UNL     1      23.721   3.538  52.169  1.00  0.00     0.087 C 
HETATM    4  C3  UNL     1      23.385   4.691  52.761  1.00  0.00     0.221 C 
HETATM    5  N2  UNL     1      23.688   5.762  51.896  1.00  0.00    -0.277 NA
HETATM    6  C4  UNL     1      22.576   6.182  51.314  1.00  0.00     0.092 C 
HETATM    7  C5  UNL     1      21.591   5.272  51.248  1.00  0.00     0.006 A 
HETATM    8  C6  UNL     1      20.426   4.336  51.241  1.00  0.00     0.027 A 
HETATM    9  C7  UNL     1      21.688   4.143  50.640  1.00  0.00    -0.015 A 
HETATM   10  C8  UNL     1      22.507   3.180  49.826  1.00  0.00    -0.029 A 
HETATM   11  C9  UNL     1      22.926   2.523  48.730  1.00  0.00     0.005 A 
HETATM   12  C10 UNL     1      23.558   2.240  50.009  1.00  0.00     0.066 A 
HETATM   13  C11 UNL     1      24.004   2.322  51.296  1.00  0.00     0.025 C 
HETATM   14  N3  UNL     1      24.799   1.438  51.967  1.00  0.00    -0.351 N 
HETATM   15  C12 UNL     1      26.114   1.209  51.400  1.00  0.00     0.152 C 
HETATM   16  C13 UNL     1      26.702  -0.046  51.971  1.00  0.00    -0.011 C 
HETATM   17  C14 UNL     1      26.348  -0.365  53.197  1.00  0.00    -0.025 C 
HETATM   18  C15 UNL     1      25.426   0.414  54.037  1.00  0.00     0.086 C 
HETATM   19  C16 UNL     1      24.249   0.837  53.151  1.00  0.00     0.275 C 
HETATM   20  F1  UNL     1      23.541  -0.315  52.818  1.00  0.00    -0.227 F 
ENDROOT
TORSDOF 0
ENDMDL
MODEL 4
REMARK VINA RESULT:      -7.0     10.243     11.935
REMARK  0 active torsions:
REMARK  status: ('A' for Active; 'I' for Inactive)
ROOT
HETATM    1  N1  UNL     1      32.724   8.938  47.563  1.00  0.00    -0.101 N 
HETATM    2  C1  UNL     1      32.340   7.840  47.865  1.00  0.00    -0.007 C 
HETATM    3  C2  UNL     1      31.880   6.440  48.248  1.00  0.00     0.087 C 
HETATM    4  C3  UNL     1      31.524   6.901  49.455  1.00  0.00     0.221 C 
HETATM    5  N2  UNL     1      31.792   8.282  49.521  1.00  0.00    -0.277 NA
HETATM    6  C4  UNL     1      30.664   8.955  49.357  1.00  0.00     0.092 C 
HETATM    7  C5  UNL     1      29.700   8.295  48.697  1.00  0.00     0.006 A 
HETATM    8  C6  UNL     1      28.556   7.570  48.062  1.00  0.00     0.027 A 
HETATM    9  C7  UNL     1      29.816   7.857  47.493  1.00  0.00    -0.015 A 
HETATM   10  C8  UNL     1      30.647   7.698  46.251  1.00  0.00    -0.029 A 
HETATM   11  C9  UNL     1      31.069   7.945  44.998  1.00  0.00     0.005 A 
HETATM   12  C10 UNL     1      31.723   6.900  45.771  1.00  0.00     0.066 A 
HETATM   13  C11 UNL     1      32.181   6.118  46.791  1.00  0.00     0.025 C 
HETATM   14  N3  UNL     1      33.004   5.032  46.711  1.00  0.00    -0.351 N 
HETATM   15  C12 UNL     1      34.317   5.270  46.144  1.00  0.00     0.152 C 
HETATM   16  C13 UNL     1      34.941   3.968  45.742  1.00  0.00    -0.011 C 
HETATM   17  C14 UNL     1      34.609   2.906  46.445  1.00  0.00    -0.025 C 
HETATM   18  C15 UNL     1      33.679   2.908  47.583  1.00  0.00     0.086 C 
HETATM   19  C16 UNL     1      32.482   3.783  47.194  1.00  0.00     0.275 C 
HETATM   20  F1  UNL     1      31.797   3.125  46.175  1.00  0.00    -0.227 F 
ENDROOT
TORSDOF 0
ENDMDL
MODEL 5
REMARK VINA RESULT:      -6.9      1.744      3.130
REMARK  0 active torsions:
REMARK  status: ('A' for Active; 'I' for Inactive)
ROOT
HETATM    1  N1  UNL     1      26.317   0.773  51.356  1.00  0.00    -0.101 N 
HETATM    2  C1  UNL     1      25.834   0.115  52.238  1.00  0.00    -0.007 C 
HETATM    3  C2  UNL     1      25.203  -0.728  53.338  1.00  0.00     0.087 C 
HETATM    4  C3  UNL     1      26.199  -1.614  53.215  1.00  0.00     0.221 C 
HETATM    5  N2  UNL     1      27.096  -1.169  52.224  1.00  0.00    -0.277 NA
HETATM    6  C4  UNL     1      28.158  -0.634  52.802  1.00  0.00     0.092 C 
HETATM    7  C5  UNL     1      27.957  -0.179  54.049  1.00  0.00     0.006 A 
HETATM    8  C6  UNL     1      27.817   0.249  55.475  1.00  0.00     0.027 A 
HETATM    9  C7  UNL     1      27.111   0.741  54.356  1.00  0.00    -0.015 A 
HETATM   10  C8  UNL     1      26.059   1.725  53.926  1.00  0.00    -0.029 A 
HETATM   11  C9  UNL     1      25.531   2.920  53.610  1.00  0.00     0.005 A 
HETATM   12  C10 UNL     1      24.688   1.735  53.545  1.00  0.00     0.066 A 
HETATM   13  C11 UNL     1      24.243   0.449  53.464  1.00  0.00     0.025 C 
HETATM   14  N3  UNL     1      22.952   0.009  53.396  1.00  0.00    -0.351 N 
HETATM   15  C12 UNL     1      22.182   0.475  52.259  1.00  0.00     0.152 C 
HETATM   16  C13 UNL     1      20.720   0.270  52.518  1.00  0.00    -0.011 C 
HETATM   17  C14 UNL     1      20.387  -0.748  53.284  1.00  0.00    -0.025 C 
HETATM   18  C15 UNL     1      21.339  -1.686  53.896  1.00  0.00     0.086 C 
HETATM   19  C16 UNL     1      22.504  -0.858  54.450  1.00  0.00     0.275 C 
HETATM   20  F1  UNL     1      22.013  -0.104  55.514  1.00  0.00    -0.227 F 
ENDROOT
TORSDOF 0
ENDMDL
MODEL 6
REMARK VINA RESULT:      -6.9      3.659      5.328
REMARK  0 active torsions:
REMARK  status: ('A' for Active; 'I' for Inactive)
ROOT
HETATM    1  N1  UNL     1      21.959   3.485  50.490  1.00  0.00    -0.101 N 
HETATM    2  C1  UNL     1      23.141   3.273  50.456  1.00  0.00    -0.007 C 
HETATM    3  C2  UNL     1      24.635   2.978  50.413  1.00  0.00     0.087 C 
HETATM    4  C3  UNL     1      24.653   3.319  49.118  1.00  0.00     0.221 C 
HETATM    5  N2  UNL     1      23.358   3.707  48.722  1.00  0.00    -0.277 NA
HETATM    6  C4  UNL     1      23.293   5.028  48.673  1.00  0.00     0.092 C 
HETATM    7  C5  UNL     1      24.189   5.669  49.439  1.00  0.00     0.006 A 
HETATM    8  C6  UNL     1      25.231   6.435  50.192  1.00  0.00     0.027 A 
HETATM    9  C7  UNL     1      24.266   5.548  50.718  1.00  0.00    -0.015 A 
HETATM   10  C8  UNL     1      23.754   4.934  51.990  1.00  0.00    -0.029 A 
HETATM   11  C9  UNL     1      23.090   4.866  53.158  1.00  0.00     0.005 A 
HETATM   12  C10 UNL     1      23.822   3.699  52.692  1.00  0.00     0.066 A 
HETATM   13  C11 UNL     1      24.474   2.786  51.916  1.00  0.00     0.025 C 
HETATM   14  N3  UNL     1      24.989   1.578  52.292  1.00  0.00    -0.351 N 
HETATM   15  C12 UNL     1      24.041   0.623  52.830  1.00  0.00     0.152 C 
HETATM   16  C13 UNL     1      24.772  -0.460  53.565  1.00  0.00    -0.011 C 
HETATM   17  C14 UNL     1      25.979  -0.761  53.135  1.00  0.00    -0.025 C 
HETATM   18  C15 UNL     1      26.652  -0.117  51.998  1.00  0.00     0.086 C 
HETATM   19  C16 UNL     1      26.403   1.392  52.114  1.00  0.00     0.275 C 
HETATM   20  F1  UNL     1      27.090   1.844  53.238  1.00  0.00    -0.227 F 
ENDROOT
TORSDOF 0
ENDMDL
MODEL 7
REMARK VINA RESULT:      -6.9      2.680      3.306
REMARK  0 active torsions:
REMARK  status: ('A' for Active; 'I' for Inactive)
ROOT
HETATM    1  N1  UNL     1      24.461   3.746  53.531  1.00  0.00    -0.101 N 
HETATM    2  C1  UNL     1      23.549   3.421  52.819  1.00  0.00    -0.007 C 
HETATM    3  C2  UNL     1      22.379   3.001  51.940  1.00  0.00     0.087 C 
HETATM    4  C3  UNL     1      22.115   4.291  51.696  1.00  0.00     0.221 C 
HETATM    5  N2  UNL     1      23.058   5.093  52.368  1.00  0.00    -0.277 NA
HETATM    6  C4  UNL     1      23.970   5.513  51.506  1.00  0.00     0.092 C 
HETATM    7  C5  UNL     1      24.112   4.748  50.412  1.00  0.00     0.006 A 
HETATM    8  C6  UNL     1      24.239   3.992  49.128  1.00  0.00     0.027 A 
HETATM    9  C7  UNL     1      24.456   3.508  50.436  1.00  0.00    -0.015 A 
HETATM   10  C8  UNL     1      24.844   2.290  51.227  1.00  0.00    -0.029 A 
HETATM   11  C9  UNL     1      25.657   1.356  51.752  1.00  0.00     0.005 A 
HETATM   12  C10 UNL     1      24.230   1.286  52.026  1.00  0.00     0.066 A 
HETATM   13  C11 UNL     1      22.910   1.595  52.185  1.00  0.00     0.025 C 
HETATM   14  N3  UNL     1      21.908   0.787  52.642  1.00  0.00    -0.351 N 
HETATM   15  C12 UNL     1      22.073   0.269  53.986  1.00  0.00     0.152 C 
HETATM   16  C13 UNL     1      21.149  -0.892  54.199  1.00  0.00    -0.011 C 
HETATM   17  C14 UNL     1      20.014  -0.881  53.533  1.00  0.00    -0.025 C 
HETATM   18  C15 UNL     1      19.595   0.178  52.604  1.00  0.00     0.086 C 
HETATM   19  C16 UNL     1      20.812   0.543  51.746  1.00  0.00     0.275 C 
HETATM   20  F1  UNL     1      21.093  -0.553  50.933  1.00  0.00    -0.227 F 
ENDROOT
TORSDOF 0
ENDMDL
MODEL 8
REMARK VINA RESULT:      -6.9      3.488      4.439
REMARK  0 active torsions:
REMARK  status: ('A' for Active; 'I' for Inactive)
ROOT
HETATM    1  N1  UNL     1      23.634   5.311  52.127  1.00  0.00    -0.101 N 
HETATM    2  C1  UNL     1      23.390   4.530  51.247  1.00  0.00    -0.007 C 
HETATM    3  C2  UNL     1      23.054   3.545  50.135  1.00  0.00     0.087 C 
HETATM    4  C3  UNL     1      23.474   4.439  49.232  1.00  0.00     0.221 C 
HETATM    5  N2  UNL     1      23.925   5.596  49.898  1.00  0.00    -0.277 NA
HETATM    6  C4  UNL     1      25.247   5.589  49.940  1.00  0.00     0.092 C 
HETATM    7  C5  UNL     1      25.813   4.376  49.841  1.00  0.00     0.006 A 
HETATM    8  C6  UNL     1      26.499   3.064  49.629  1.00  0.00     0.027 A 
HETATM    9  C7  UNL     1      25.609   3.413  50.669  1.00  0.00    -0.015 A 
HETATM   10  C8  UNL     1      24.933   2.895  51.907  1.00  0.00    -0.029 A 
HETATM   11  C9  UNL     1      24.811   2.521  53.193  1.00  0.00     0.005 A 
HETATM   12  C10 UNL     1      23.654   2.424  52.316  1.00  0.00     0.066 A 
HETATM   13  C11 UNL     1      22.773   2.590  51.289  1.00  0.00     0.025 C 
HETATM   14  N3  UNL     1      21.530   2.042  51.151  1.00  0.00    -0.351 N 
HETATM   15  C12 UNL     1      20.571   2.376  52.187  1.00  0.00     0.152 C 
HETATM   16  C13 UNL     1      19.423   1.412  52.145  1.00  0.00    -0.011 C 
HETATM   17  C14 UNL     1      19.114   0.904  50.971  1.00  0.00    -0.025 C 
HETATM   18  C15 UNL     1      19.808   1.212  49.712  1.00  0.00     0.086 C 
HETATM   19  C16 UNL     1      21.313   1.202  50.006  1.00  0.00     0.275 C 
HETATM   20  F1  UNL     1      21.673  -0.111  50.300  1.00  0.00    -0.227 F 
ENDROOT
TORSDOF 0
ENDMDL
MODEL 9
REMARK VINA RESULT:      -6.9      3.262      5.243
REMARK  0 active torsions:
REMARK  status: ('A' for Active; 'I' for Inactive)
ROOT
HETATM    1  N1  UNL     1      22.591   1.376  49.946  1.00  0.00    -0.101 N 
HETATM    2  C1  UNL     1      23.417   1.995  50.561  1.00  0.00    -0.007 C 
HETATM    3  C2  UNL     1      24.483   2.762  51.332  1.00  0.00     0.087 C 
HETATM    4  C3  UNL     1      24.404   3.752  50.433  1.00  0.00     0.221 C 
HETATM    5  N2  UNL     1      23.435   3.423  49.465  1.00  0.00    -0.277 NA
HETATM    6  C4  UNL     1      22.318   4.085  49.721  1.00  0.00     0.092 C 
HETATM    7  C5  UNL     1      22.165   4.467  50.999  1.00  0.00     0.006 A 
HETATM    8  C6  UNL     1      21.992   5.009  52.382  1.00  0.00     0.027 A 
HETATM    9  C7  UNL     1      22.118   3.657  51.997  1.00  0.00    -0.015 A 
HETATM   10  C8  UNL     1      22.155   2.248  52.519  1.00  0.00    -0.029 A 
HETATM   11  C9  UNL     1      21.676   1.092  53.010  1.00  0.00     0.005 A 
HETATM   12  C10 UNL     1      23.108   1.226  52.788  1.00  0.00     0.066 A 
HETATM   13  C11 UNL     1      24.331   1.634  52.344  1.00  0.00     0.025 C 
HETATM   14  N3  UNL     1      25.552   1.095  52.632  1.00  0.00    -0.351 N 
HETATM   15  C12 UNL     1      25.741  -0.290  52.249  1.00  0.00     0.152 C 
HETATM   16  C13 UNL     1      26.925  -0.860  52.971  1.00  0.00    -0.011 C 
HETATM   17  C14 UNL     1      27.896  -0.026  53.274  1.00  0.00    -0.025 C 
HETATM   18  C15 UNL     1      27.902   1.410  52.958  1.00  0.00     0.086 C 
HETATM   19  C16 UNL     1      26.505   1.954  53.280  1.00  0.00     0.275 C 
HETATM   20  F1  UNL     1      26.342   1.894  54.662  1.00  0.00    -0.227 F 
ENDROOT
TORSDOF 0
ENDMDL
