MODEL 1
REMARK VINA RESULT:      -6.8      0.000      0.000
REMARK  4 active torsions:
REMARK  status: ('A' for Active; 'I' for Inactive)
REMARK    1  A    between atoms: C3_4  and  O2_5 
REMARK    2  A    between atoms: C9_13  and  O4_14 
REMARK    3  A    between atoms: C11_16  and  S1_17 
REMARK    4  A    between atoms: C14_21  and  O6_22 
ROOT
HETATM    1  C1  UNL     1      21.256  -1.991  54.527  1.00  0.00     0.000 C 
HETATM    2  O1  UNL     1      21.358  -0.577  54.663  1.00  0.00     0.000 OA
HETATM    3  C2  UNL     1      22.061   0.117  53.699  1.00  0.00     0.031 A 
HETATM    4  C3  UNL     1      20.807   0.487  53.616  1.00  0.00     0.164 A 
HETATM    5  C4  UNL     1      20.141   1.394  52.703  1.00  0.00     0.360 C 
HETATM    6  N1  UNL     1      19.481   2.173  51.954  1.00  0.00    -0.303 NA
HETATM    7  O3  UNL     1      19.887   2.863  50.890  1.00  0.00    -0.286 OA
HETATM    8  C5  UNL     1      20.634   4.016  50.847  1.00  0.00     0.240 C 
HETATM    9  C6  UNL     1      21.943   3.780  51.491  1.00  0.00    -0.015 A 
HETATM   10  C7  UNL     1      22.318   4.740  52.397  1.00  0.00     0.013 A 
HETATM   11  C8  UNL     1      23.534   4.505  53.037  1.00  0.00     0.038 A 
HETATM   12  C9  UNL     1      24.181   3.304  52.642  1.00  0.00     0.081 A 
HETATM   13  C10 UNL     1      23.767   2.313  51.692  1.00  0.00     0.064 A 
HETATM   14  C11 UNL     1      22.566   2.623  51.109  1.00  0.00     0.023 A 
HETATM   15  C12 UNL     1      24.923   1.425  51.891  1.00  0.00     0.189 C 
HETATM   16  O5  UNL     1      25.859   1.840  51.194  1.00  0.00    -0.287 OA
HETATM   17  C13 UNL     1      24.372   0.469  52.872  1.00  0.00     0.092 C 
HETATM   18  C14 UNL     1      23.475  -0.135  53.621  1.00  0.00     0.080 C 
ENDROOT
BRANCH   4  19
HETATM   19  O2  UNL     1      20.010  -0.155  54.588  1.00  0.00    -0.375 OA
HETATM   20  H4  UNL     1      19.148  -0.557  54.263  1.00  0.00     0.211 HD
ENDBRANCH   4  19
BRANCH  18  21
HETATM   21  O6  UNL     1      24.008  -1.137  54.428  1.00  0.00    -0.360 OA
HETATM   22  H13 UNL     1      23.692  -1.352  55.353  1.00  0.00     0.217 HD
ENDBRANCH  18  21
BRANCH  12  23
HETATM   23  O4  UNL     1      25.381   3.303  53.427  1.00  0.00    -0.360 OA
HETATM   24  H10 UNL     1      25.246   3.608  54.401  1.00  0.00     0.217 HD
ENDBRANCH  12  23
BRANCH  14  25
HETATM   25  S1  UNL     1      22.020   1.460  49.879  1.00  0.00    -0.141 SA
HETATM   26  H11 UNL     1      22.138   1.950  48.580  1.00  0.00     0.107 HD
ENDBRANCH  14  25
TORSDOF 4
ENDMDL
MODEL 2
REMARK VINA RESULT:      -6.7      2.546      4.570
REMARK  4 active torsions:
REMARK  status: ('A' for Active; 'I' for Inactive)
REMARK    1  A    between atoms: C3_4  and  O2_5 
REMARK    2  A    between atoms: C9_13  and  O4_14 
REMARK    3  A    between atoms: C11_16  and  S1_17 
REMARK    4  A    between atoms: C14_21  and  O6_22 
ROOT
HETATM    1  C1  UNL     1      26.557  -0.135  54.243  1.00  0.00     0.000 C 
HETATM    2  O1  UNL     1      26.043  -0.083  52.916  1.00  0.00     0.000 OA
HETATM    3  C2  UNL     1      24.933   0.703  52.682  1.00  0.00     0.031 A 
HETATM    4  C3  UNL     1      25.936   1.231  52.025  1.00  0.00     0.164 A 
HETATM    5  C4  UNL     1      26.019   2.433  51.219  1.00  0.00     0.360 C 
HETATM    6  N1  UNL     1      26.179   3.460  50.496  1.00  0.00    -0.303 NA
HETATM    7  O3  UNL     1      25.314   4.432  50.211  1.00  0.00    -0.286 OA
HETATM    8  C5  UNL     1      24.252   4.411  49.340  1.00  0.00     0.240 C 
HETATM    9  C6  UNL     1      23.298   3.359  49.752  1.00  0.00    -0.015 A 
HETATM   10  C7  UNL     1      22.879   2.536  48.737  1.00  0.00     0.013 A 
HETATM   11  C8  UNL     1      22.008   1.517  49.126  1.00  0.00     0.038 A 
HETATM   12  C9  UNL     1      21.705   1.503  50.512  1.00  0.00     0.081 A 
HETATM   13  C10 UNL     1      22.159   2.375  51.556  1.00  0.00     0.064 A 
HETATM   14  C11 UNL     1      23.005   3.347  51.089  1.00  0.00     0.023 A 
HETATM   15  C12 UNL     1      21.441   1.692  52.644  1.00  0.00     0.189 C 
HETATM   16  O5  UNL     1      20.277   2.112  52.668  1.00  0.00    -0.287 OA
HETATM   17  C13 UNL     1      22.502   0.802  53.158  1.00  0.00     0.092 C 
HETATM   18  C14 UNL     1      23.706   0.293  53.308  1.00  0.00     0.080 C 
ENDROOT
BRANCH   4  19
HETATM   19  O2  UNL     1      27.118   0.476  52.184  1.00  0.00    -0.375 OA
HETATM   20  H4  UNL     1      27.108  -0.221  52.908  1.00  0.00     0.211 HD
ENDBRANCH   4  19
BRANCH  18  21
HETATM   21  O6  UNL     1      23.748  -0.782  54.193  1.00  0.00    -0.360 OA
HETATM   22  H13 UNL     1      23.489  -0.735  55.158  1.00  0.00     0.217 HD
ENDBRANCH  18  21
BRANCH  12  23
HETATM   23  O4  UNL     1      20.811   0.389  50.643  1.00  0.00    -0.360 OA
HETATM   24  H10 UNL     1      20.150   0.288  49.859  1.00  0.00     0.217 HD
ENDBRANCH  12  23
BRANCH  14  25
HETATM   25  S1  UNL     1      23.563   4.498  52.325  1.00  0.00    -0.141 SA
HETATM   26  H11 UNL     1      23.018   5.770  52.167  1.00  0.00     0.107 HD
ENDBRANCH  14  25
TORSDOF 4
ENDMDL
MODEL 3
REMARK VINA RESULT:      -6.3     10.679     12.871
REMARK  4 active torsions:
REMARK  status: ('A' for Active; 'I' for Inactive)
REMARK    1  A    between atoms: C3_4  and  O2_5 
REMARK    2  A    between atoms: C9_13  and  O4_14 
REMARK    3  A    between atoms: C11_16  and  S1_17 
REMARK    4  A    between atoms: C14_21  and  O6_22 
ROOT
HETATM    1  C1  UNL     1      28.189   8.181  48.917  1.00  0.00     0.000 C 
HETATM    2  O1  UNL     1      29.560   8.249  49.297  1.00  0.00     0.000 OA
HETATM    3  C2  UNL     1      30.488   7.627  48.485  1.00  0.00     0.031 A 
HETATM    4  C3  UNL     1      30.719   8.916  48.433  1.00  0.00     0.164 A 
HETATM    5  C4  UNL     1      31.688   9.679  47.671  1.00  0.00     0.360 C 
HETATM    6  N1  UNL     1      32.502  10.422  47.049  1.00  0.00    -0.303 NA
HETATM    7  O3  UNL     1      33.409  10.093  46.131  1.00  0.00    -0.286 OA
HETATM    8  C5  UNL     1      34.631   9.489  46.307  1.00  0.00     0.240 C 
HETATM    9  C6  UNL     1      34.440   8.165  46.937  1.00  0.00    -0.015 A 
HETATM   10  C7  UNL     1      35.266   7.915  48.004  1.00  0.00     0.013 A 
HETATM   11  C8  UNL     1      35.065   6.683  48.627  1.00  0.00     0.038 A 
HETATM   12  C9  UNL     1      34.035   5.895  48.051  1.00  0.00     0.081 A 
HETATM   13  C10 UNL     1      33.183   6.182  46.934  1.00  0.00     0.064 A 
HETATM   14  C11 UNL     1      33.448   7.407  46.379  1.00  0.00     0.023 A 
HETATM   15  C12 UNL     1      32.414   4.929  47.008  1.00  0.00     0.189 C 
HETATM   16  O5  UNL     1      33.049   4.044  46.420  1.00  0.00    -0.287 OA
HETATM   17  C13 UNL     1      31.245   5.369  47.796  1.00  0.00     0.092 C 
HETATM   18  C14 UNL     1      30.420   6.193  48.405  1.00  0.00     0.080 C 
ENDROOT
BRANCH   4  19
HETATM   19  O2  UNL     1      29.830   9.638  49.258  1.00  0.00    -0.375 OA
HETATM   20  H4  UNL     1      28.855   9.578  49.023  1.00  0.00     0.211 HD
ENDBRANCH   4  19
BRANCH  18  21
HETATM   21  O6  UNL     1      29.361   5.550  49.042  1.00  0.00    -0.360 OA
HETATM   22  H13 UNL     1      28.797   5.959  49.760  1.00  0.00     0.217 HD
ENDBRANCH  18  21
BRANCH  12  23
HETATM   23  O4  UNL     1      34.037   4.709  48.856  1.00  0.00    -0.360 OA
HETATM   24  H10 UNL     1      33.684   3.872  48.371  1.00  0.00     0.217 HD
ENDBRANCH  12  23
BRANCH  14  25
HETATM   25  S1  UNL     1      32.461   7.801  44.953  1.00  0.00    -0.141 SA
HETATM   26  H11 UNL     1      32.398   6.758  44.032  1.00  0.00     0.107 HD
ENDBRANCH  14  25
TORSDOF 4
ENDMDL
MODEL 4
REMARK VINA RESULT:      -6.2      2.005      3.322
REMARK  4 active torsions:
REMARK  status: ('A' for Active; 'I' for Inactive)
REMARK    1  A    between atoms: C3_4  and  O2_5 
REMARK    2  A    between atoms: C9_13  and  O4_14 
REMARK    3  A    between atoms: C11_16  and  S1_17 
REMARK    4  A    between atoms: C14_21  and  O6_22 
ROOT
HETATM    1  C1  UNL     1      26.577  -0.492  52.462  1.00  0.00     0.000 C 
HETATM    2  O1  UNL     1      25.674   0.482  52.974  1.00  0.00     0.000 OA
HETATM    3  C2  UNL     1      25.080   1.349  52.078  1.00  0.00     0.031 A 
HETATM    4  C3  UNL     1      24.134   0.599  52.588  1.00  0.00     0.164 A 
HETATM    5  C4  UNL     1      22.712   0.544  52.314  1.00  0.00     0.360 C 
HETATM    6  N1  UNL     1      21.462   0.433  52.141  1.00  0.00    -0.303 NA
HETATM    7  O3  UNL     1      20.674   1.056  51.268  1.00  0.00    -0.286 OA
HETATM    8  C5  UNL     1      20.204   2.347  51.303  1.00  0.00     0.240 C 
HETATM    9  C6  UNL     1      21.344   3.287  51.305  1.00  0.00    -0.015 A 
HETATM   10  C7  UNL     1      21.268   4.278  52.252  1.00  0.00     0.013 A 
HETATM   11  C8  UNL     1      22.359   5.146  52.286  1.00  0.00     0.038 A 
HETATM   12  C9  UNL     1      23.370   4.855  51.333  1.00  0.00     0.081 A 
HETATM   13  C10 UNL     1      23.427   3.809  50.353  1.00  0.00     0.064 A 
HETATM   14  C11 UNL     1      22.317   3.006  50.385  1.00  0.00     0.023 A 
HETATM   15  C12 UNL     1      24.751   4.174  49.824  1.00  0.00     0.189 C 
HETATM   16  O5  UNL     1      24.603   5.078  48.990  1.00  0.00    -0.287 OA
HETATM   17  C13 UNL     1      25.619   3.264  50.598  1.00  0.00     0.092 C 
HETATM   18  C14 UNL     1      25.946   2.278  51.406  1.00  0.00     0.080 C 
ENDROOT
BRANCH   4  19
HETATM   19  O2  UNL     1      24.645  -0.307  53.541  1.00  0.00    -0.375 OA
HETATM   20  H4  UNL     1      25.555  -0.099  53.912  1.00  0.00     0.211 HD
ENDBRANCH   4  19
BRANCH  18  21
HETATM   21  O6  UNL     1      27.320   2.159  51.607  1.00  0.00    -0.360 OA
HETATM   22  H13 UNL     1      27.745   1.557  52.284  1.00  0.00     0.217 HD
ENDBRANCH  18  21
BRANCH  12  23
HETATM   23  O4  UNL     1      24.351   5.872  51.571  1.00  0.00    -0.360 OA
HETATM   24  H10 UNL     1      24.076   6.561  52.286  1.00  0.00     0.217 HD
ENDBRANCH  12  23
BRANCH  14  25
HETATM   25  S1  UNL     1      22.300   1.719  49.157  1.00  0.00    -0.141 SA
HETATM   26  H11 UNL     1      23.555   1.153  48.947  1.00  0.00     0.107 HD
ENDBRANCH  14  25
TORSDOF 4
ENDMDL
MODEL 5
REMARK VINA RESULT:      -6.2      2.549      4.896
REMARK  4 active torsions:
REMARK  status: ('A' for Active; 'I' for Inactive)
REMARK    1  A    between atoms: C3_4  and  O2_5 
REMARK    2  A    between atoms: C9_13  and  O4_14 
REMARK    3  A    between atoms: C11_16  and  S1_17 
REMARK    4  A    between atoms: C14_21  and  O6_22 
ROOT
HETATM    1  C1  UNL     1      22.030   3.442  46.832  1.00  0.00     0.000 C 
HETATM    2  O1  UNL     1      22.719   2.552  47.705  1.00  0.00     0.000 OA
HETATM    3  C2  UNL     1      22.693   2.825  49.058  1.00  0.00     0.031 A 
HETATM    4  C3  UNL     1      22.042   1.704  48.870  1.00  0.00     0.164 A 
HETATM    5  C4  UNL     1      21.336   0.845  49.800  1.00  0.00     0.360 C 
HETATM    6  N1  UNL     1      20.704   0.037  50.542  1.00  0.00    -0.303 NA
HETATM    7  O3  UNL     1      20.433   0.124  51.843  1.00  0.00    -0.286 OA
HETATM    8  C5  UNL     1      21.269  -0.091  52.912  1.00  0.00     0.240 C 
HETATM    9  C6  UNL     1      22.408   0.849  52.843  1.00  0.00    -0.015 A 
HETATM   10  C7  UNL     1      23.640   0.271  53.024  1.00  0.00     0.013 A 
HETATM   11  C8  UNL     1      24.722   1.146  52.923  1.00  0.00     0.038 A 
HETATM   12  C9  UNL     1      24.364   2.491  52.646  1.00  0.00     0.081 A 
HETATM   13  C10 UNL     1      23.066   3.071  52.459  1.00  0.00     0.064 A 
HETATM   14  C11 UNL     1      22.062   2.146  52.578  1.00  0.00     0.023 A 
HETATM   15  C12 UNL     1      23.550   4.436  52.196  1.00  0.00     0.189 C 
HETATM   16  O5  UNL     1      23.749   4.996  53.282  1.00  0.00    -0.287 OA
HETATM   17  C13 UNL     1      23.577   4.440  50.719  1.00  0.00     0.092 C 
HETATM   18  C14 UNL     1      23.367   4.019  49.491  1.00  0.00     0.080 C 
ENDROOT
BRANCH   4  19
HETATM   19  O2  UNL     1      22.037   1.328  47.510  1.00  0.00    -0.375 OA
HETATM   20  H4  UNL     1      22.311   0.382  47.307  1.00  0.00     0.211 HD
ENDBRANCH   4  19
BRANCH  18  21
HETATM   21  O6  UNL     1      23.883   4.870  48.516  1.00  0.00    -0.360 OA
HETATM   22  H13 UNL     1      23.339   5.324  47.811  1.00  0.00     0.217 HD
ENDBRANCH  18  21
BRANCH  12  23
HETATM   23  O4  UNL     1      25.629   3.165  52.597  1.00  0.00    -0.360 OA
HETATM   24  H10 UNL     1      26.424   2.549  52.377  1.00  0.00     0.217 HD
ENDBRANCH  12  23
BRANCH  14  25
HETATM   25  S1  UNL     1      20.421   2.811  52.410  1.00  0.00    -0.141 SA
HETATM   26  H11 UNL     1      19.470   1.838  52.107  1.00  0.00     0.107 HD
ENDBRANCH  14  25
TORSDOF 4
ENDMDL
MODEL 6
REMARK VINA RESULT:      -6.2     22.400     24.138
REMARK  4 active torsions:
REMARK  status: ('A' for Active; 'I' for Inactive)
REMARK    1  A    between atoms: C3_4  and  O2_5 
REMARK    2  A    between atoms: C9_13  and  O4_14 
REMARK    3  A    between atoms: C11_16  and  S1_17 
REMARK    4  A    between atoms: C14_21  and  O6_22 
ROOT
HETATM    1  C1  UNL     1      38.901  -6.180  66.426  1.00  0.00     0.000 C 
HETATM    2  O1  UNL     1      39.851  -5.167  66.744  1.00  0.00     0.000 OA
HETATM    3  C2  UNL     1      39.394  -4.023  67.366  1.00  0.00     0.031 A 
HETATM    4  C3  UNL     1      40.178  -4.644  68.211  1.00  0.00     0.164 A 
HETATM    5  C4  UNL     1      40.537  -4.334  69.581  1.00  0.00     0.360 C 
HETATM    6  N1  UNL     1      40.908  -4.137  70.776  1.00  0.00    -0.303 NA
HETATM    7  O3  UNL     1      40.529  -3.187  71.628  1.00  0.00    -0.286 OA
HETATM    8  C5  UNL     1      40.897  -1.864  71.662  1.00  0.00     0.240 C 
HETATM    9  C6  UNL     1      40.509  -1.212  70.393  1.00  0.00    -0.015 A 
HETATM   10  C7  UNL     1      41.495  -0.454  69.813  1.00  0.00     0.013 A 
HETATM   11  C8  UNL     1      41.148   0.133  68.596  1.00  0.00     0.038 A 
HETATM   12  C9  UNL     1      39.829  -0.156  68.161  1.00  0.00     0.081 A 
HETATM   13  C10 UNL     1      38.815  -0.956  68.786  1.00  0.00     0.064 A 
HETATM   14  C11 UNL     1      39.236  -1.490  69.976  1.00  0.00     0.023 A 
HETATM   15  C12 UNL     1      37.810  -0.777  67.726  1.00  0.00     0.189 C 
HETATM   16  O5  UNL     1      37.221   0.294  67.921  1.00  0.00    -0.287 OA
HETATM   17  C13 UNL     1      38.036  -1.996  66.923  1.00  0.00     0.092 C 
HETATM   18  C14 UNL     1      38.516  -3.178  66.602  1.00  0.00     0.080 C 
ENDROOT
BRANCH   4  19
HETATM   19  O2  UNL     1      40.718  -5.822  67.651  1.00  0.00    -0.375 OA
HETATM   20  H4  UNL     1      40.856  -5.820  66.656  1.00  0.00     0.211 HD
ENDBRANCH   4  19
BRANCH  18  21
HETATM   21  O6  UNL     1      38.095  -3.629  65.353  1.00  0.00    -0.360 OA
HETATM   22  H13 UNL     1      38.260  -4.547  64.994  1.00  0.00     0.217 HD
ENDBRANCH  18  21
BRANCH  12  23
HETATM   23  O4  UNL     1      39.728   0.553  66.919  1.00  0.00    -0.360 OA
HETATM   24  H10 UNL     1      40.637   0.810  66.508  1.00  0.00     0.217 HD
ENDBRANCH  12  23
BRANCH  14  25
HETATM   25  S1  UNL     1      38.007  -2.450  70.831  1.00  0.00    -0.141 SA
HETATM   26  H11 UNL     1      36.814  -2.559  70.120  1.00  0.00     0.107 HD
ENDBRANCH  14  25
TORSDOF 4
ENDMDL
MODEL 7
REMARK VINA RESULT:      -6.2     10.495     13.064
REMARK  4 active torsions:
REMARK  status: ('A' for Active; 'I' for Inactive)
REMARK    1  A    between atoms: C3_4  and  O2_5 
REMARK    2  A    between atoms: C9_13  and  O4_14 
REMARK    3  A    between atoms: C11_16  and  S1_17 
REMARK    4  A    between atoms: C14_21  and  O6_22 
ROOT
HETATM    1  C1  UNL     1      29.454  12.422  48.932  1.00  0.00     0.000 C 
HETATM    2  O1  UNL     1      30.533  11.522  49.167  1.00  0.00     0.000 OA
HETATM    3  C2  UNL     1      30.453  10.259  48.616  1.00  0.00     0.031 A 
HETATM    4  C3  UNL     1      31.453  10.878  48.039  1.00  0.00     0.164 A 
HETATM    5  C4  UNL     1      32.346  10.460  46.977  1.00  0.00     0.360 C 
HETATM    6  N1  UNL     1      33.172  10.175  46.060  1.00  0.00    -0.303 NA
HETATM    7  O3  UNL     1      33.239   9.087  45.296  1.00  0.00    -0.286 OA
HETATM    8  C5  UNL     1      33.699   7.834  45.622  1.00  0.00     0.240 C 
HETATM    9  C6  UNL     1      32.897   7.290  46.739  1.00  0.00    -0.015 A 
HETATM   10  C7  UNL     1      33.634   6.752  47.765  1.00  0.00     0.013 A 
HETATM   11  C8  UNL     1      32.886   6.272  48.839  1.00  0.00     0.038 A 
HETATM   12  C9  UNL     1      31.482   6.424  48.691  1.00  0.00     0.081 A 
HETATM   13  C10 UNL     1      30.735   6.993  47.607  1.00  0.00     0.064 A 
HETATM   14  C11 UNL     1      31.545   7.436  46.594  1.00  0.00     0.023 A 
HETATM   15  C12 UNL     1      29.412   6.804  48.224  1.00  0.00     0.189 C 
HETATM   16  O5  UNL     1      29.038   5.645  47.999  1.00  0.00    -0.287 OA
HETATM   17  C13 UNL     1      29.203   8.129  48.841  1.00  0.00     0.092 C 
HETATM   18  C14 UNL     1      29.418   9.397  49.119  1.00  0.00     0.080 C 
ENDROOT
BRANCH   4  19
HETATM   19  O2  UNL     1      31.630  12.178  48.560  1.00  0.00    -0.375 OA
HETATM   20  H4  UNL     1      31.599  12.266  49.560  1.00  0.00     0.211 HD
ENDBRANCH   4  19
BRANCH  18  21
HETATM   21  O6  UNL     1      28.503   9.930  50.025  1.00  0.00    -0.360 OA
HETATM   22  H13 UNL     1      27.532   9.693  50.058  1.00  0.00     0.217 HD
ENDBRANCH  18  21
BRANCH  12  23
HETATM   23  O4  UNL     1      30.959   5.861  49.901  1.00  0.00    -0.360 OA
HETATM   24  H10 UNL     1      30.093   5.318  49.771  1.00  0.00     0.217 HD
ENDBRANCH  12  23
BRANCH  14  25
HETATM   25  S1  UNL     1      30.677   8.105  45.193  1.00  0.00    -0.141 SA
HETATM   26  H11 UNL     1      29.298   7.923  45.272  1.00  0.00     0.107 HD
ENDBRANCH  14  25
TORSDOF 4
ENDMDL
MODEL 8
REMARK VINA RESULT:      -6.2      2.181      4.415
REMARK  4 active torsions:
REMARK  status: ('A' for Active; 'I' for Inactive)
REMARK    1  A    between atoms: C3_4  and  O2_5 
REMARK    2  A    between atoms: C9_13  and  O4_14 
REMARK    3  A    between atoms: C11_16  and  S1_17 
REMARK    4  A    between atoms: C14_21  and  O6_22 
ROOT
HETATM    1  C1  UNL     1      21.791  -0.945  54.646  1.00  0.00     0.000 C 
HETATM    2  O1  UNL     1      22.054  -0.845  53.250  1.00  0.00     0.000 OA
HETATM    3  C2  UNL     1      21.664   0.309  52.599  1.00  0.00     0.031 A 
HETATM    4  C3  UNL     1      22.972   0.260  52.566  1.00  0.00     0.164 A 
HETATM    5  C4  UNL     1      23.946   1.194  52.035  1.00  0.00     0.360 C 
HETATM    6  N1  UNL     1      24.862   1.948  51.594  1.00  0.00    -0.303 NA
HETATM    7  O3  UNL     1      24.766   3.154  51.037  1.00  0.00    -0.286 OA
HETATM    8  C5  UNL     1      24.360   3.485  49.767  1.00  0.00     0.240 C 
HETATM    9  C6  UNL     1      22.975   3.013  49.553  1.00  0.00    -0.015 A 
HETATM   10  C7  UNL     1      22.777   2.331  48.379  1.00  0.00     0.013 A 
HETATM   11  C8  UNL     1      21.482   1.850  48.188  1.00  0.00     0.038 A 
HETATM   12  C9  UNL     1      20.584   2.146  49.247  1.00  0.00     0.081 A 
HETATM   13  C10 UNL     1      20.818   2.860  50.469  1.00  0.00     0.064 A 
HETATM   14  C11 UNL     1      22.111   3.300  50.574  1.00  0.00     0.023 A 
HETATM   15  C12 UNL     1      19.453   2.700  50.997  1.00  0.00     0.189 C 
HETATM   16  O5  UNL     1      18.738   3.583  50.505  1.00  0.00    -0.287 OA
HETATM   17  C13 UNL     1      19.627   1.512  51.857  1.00  0.00     0.092 C 
HETATM   18  C14 UNL     1      20.250   0.555  52.509  1.00  0.00     0.080 C 
ENDROOT
BRANCH   4  19
HETATM   19  O2  UNL     1      23.466  -0.906  53.189  1.00  0.00    -0.375 OA
HETATM   20  H4  UNL     1      24.228  -0.779  53.832  1.00  0.00     0.211 HD
ENDBRANCH   4  19
BRANCH  18  21
HETATM   21  O6  UNL     1      19.390  -0.309  53.183  1.00  0.00    -0.360 OA
HETATM   22  H13 UNL     1      19.472  -0.556  54.149  1.00  0.00     0.217 HD
ENDBRANCH  18  21
BRANCH  12  23
HETATM   23  O4  UNL     1      19.352   1.557  48.811  1.00  0.00    -0.360 OA
HETATM   24  H10 UNL     1      18.658   2.239  48.475  1.00  0.00     0.217 HD
ENDBRANCH  12  23
BRANCH  14  25
HETATM   25  S1  UNL     1      22.454   4.241  52.044  1.00  0.00    -0.141 SA
HETATM   26  H11 UNL     1      21.301   4.607  52.735  1.00  0.00     0.107 HD
ENDBRANCH  14  25
TORSDOF 4
ENDMDL
MODEL 9
REMARK VINA RESULT:      -6.1      3.102      5.369
REMARK  4 active torsions:
REMARK  status: ('A' for Active; 'I' for Inactive)
REMARK    1  A    between atoms: C3_4  and  O2_5 
REMARK    2  A    between atoms: C9_13  and  O4_14 
REMARK    3  A    between atoms: C11_16  and  S1_17 
REMARK    4  A    between atoms: C14_21  and  O6_22 
ROOT
HETATM    1  C1  UNL     1      20.198   2.855  47.374  1.00  0.00     0.000 C 
HETATM    2  O1  UNL     1      21.470   2.326  47.737  1.00  0.00     0.000 OA
HETATM    3  C2  UNL     1      22.257   3.066  48.598  1.00  0.00     0.031 A 
HETATM    4  C3  UNL     1      21.923   1.962  49.219  1.00  0.00     0.164 A 
HETATM    5  C4  UNL     1      22.206   1.504  50.565  1.00  0.00     0.360 C 
HETATM    6  N1  UNL     1      22.410   1.025  51.719  1.00  0.00    -0.303 NA
HETATM    7  O3  UNL     1      23.028   1.576  52.762  1.00  0.00    -0.286 OA
HETATM    8  C5  UNL     1      24.375   1.746  52.973  1.00  0.00     0.240 C 
HETATM    9  C6  UNL     1      24.942   2.581  51.894  1.00  0.00    -0.015 A 
HETATM   10  C7  UNL     1      26.092   2.087  51.331  1.00  0.00     0.013 A 
HETATM   11  C8  UNL     1      26.612   2.851  50.286  1.00  0.00     0.038 A 
HETATM   12  C9  UNL     1      25.858   4.013  49.978  1.00  0.00     0.081 A 
HETATM   13  C10 UNL     1      24.654   4.507  50.581  1.00  0.00     0.064 A 
HETATM   14  C11 UNL     1      24.215   3.702  51.599  1.00  0.00     0.023 A 
HETATM   15  C12 UNL     1      24.519   5.680  49.702  1.00  0.00     0.189 C 
HETATM   16  O5  UNL     1      25.231   6.589  50.150  1.00  0.00    -0.287 OA
HETATM   17  C13 UNL     1      23.590   5.155  48.681  1.00  0.00     0.092 C 
HETATM   18  C14 UNL     1      22.746   4.325  48.106  1.00  0.00     0.080 C 
ENDROOT
BRANCH   4  19
HETATM   19  O2  UNL     1      21.134   1.124  48.403  1.00  0.00    -0.375 OA
HETATM   20  H4  UNL     1      20.268   1.510  48.072  1.00  0.00     0.211 HD
ENDBRANCH   4  19
BRANCH  18  21
HETATM   21  O6  UNL     1      22.298   4.763  46.862  1.00  0.00    -0.360 OA
HETATM   22  H13 UNL     1      22.773   4.601  45.997  1.00  0.00     0.217 HD
ENDBRANCH  18  21
BRANCH  12  23
HETATM   23  O4  UNL     1      26.592   4.606  48.898  1.00  0.00    -0.360 OA
HETATM   24  H10 UNL     1      26.039   5.259  48.324  1.00  0.00     0.217 HD
ENDBRANCH  12  23
BRANCH  14  25
HETATM   25  S1  UNL     1      22.754   4.288  52.427  1.00  0.00    -0.141 SA
HETATM   26  H11 UNL     1      21.871   3.262  52.760  1.00  0.00     0.107 HD
ENDBRANCH  14  25
TORSDOF 4
ENDMDL
