MODEL 1
REMARK VINA RESULT:      -9.7      0.000      0.000
REMARK  5 active torsions:
REMARK  status: ('A' for Active; 'I' for Inactive)
REMARK    1  A    between atoms: C2_2  and  N1_4 
REMARK    2  A    between atoms: C7_8  and  N2_9 
REMARK    3  A    between atoms: N2_9  and  C8_10 
REMARK    4  A    between atoms: C13_18  and  N5_19 
REMARK    5  A    between atoms: N5_19  and  C14_20 
ROOT
HETATM    1  N1  UNL     1      20.792   1.823  50.003  1.00  0.00     0.107 N 
HETATM    2  C4  UNL     1      19.422   1.427  50.282  1.00  0.00     0.367 C 
HETATM    3  C5  UNL     1      19.197   0.573  51.355  1.00  0.00    -0.069 C 
HETATM    4  C6  UNL     1      19.016  -0.152  52.232  1.00  0.00    -0.047 C 
HETATM    5  C7  UNL     1      18.806  -1.026  53.252  1.00  0.00     0.088 C 
HETATM    6  C9  UNL     1      19.978  -1.054  53.791  1.00  0.00     0.038 C 
HETATM    7  C10 UNL     1      20.819  -0.170  53.059  1.00  0.00     0.084 C 
HETATM    8  C11 UNL     1      22.145  -0.084  53.454  1.00  0.00     0.086 A 
HETATM    9  N3  UNL     1      22.237  -0.948  54.483  1.00  0.00    -0.268 NA
HETATM   10  C12 UNL     1      23.374  -1.202  55.183  1.00  0.00     0.230 A 
HETATM   11  N4  UNL     1      24.505  -0.573  54.861  1.00  0.00    -0.225 NA
HETATM   12  C13 UNL     1      24.501   0.296  53.863  1.00  0.00     0.134 A 
HETATM   13  C20 UNL     1      23.376   0.552  53.171  1.00  0.00     0.000 A 
HETATM   14  C21 UNL     1      23.017   1.473  52.284  1.00  0.00     0.031 C 
HETATM   15  C22 UNL     1      22.827   2.536  51.309  1.00  0.00     0.045 C 
HETATM   16  C23 UNL     1      21.391   2.754  50.857  1.00  0.00     0.221 C 
HETATM   17  C24 UNL     1      20.577   3.175  52.088  1.00  0.00     0.043 C 
ENDROOT
BRANCH  12  18
HETATM   18  N5  UNL     1      25.622   1.055  53.500  1.00  0.00    -0.341 N 
HETATM   19  H15 UNL     1      25.749   2.023  53.156  1.00  0.00     0.167 HD
BRANCH  18  20
HETATM   20  C14 UNL     1      26.905   0.470  53.562  1.00  0.00     0.035 A 
HETATM   21  C15 UNL     1      28.040   1.209  53.943  1.00  0.00     0.032 A 
HETATM   22  C16 UNL     1      29.344   0.801  54.050  1.00  0.00     0.046 A 
HETATM   23  C17 UNL     1      29.564  -0.520  53.735  1.00  0.00     0.138 A 
HETATM   24  F1  UNL     1      30.858  -0.955  53.841  1.00  0.00    -0.204 F 
HETATM   25  C18 UNL     1      28.514  -1.347  53.345  1.00  0.00     0.074 A 
HETATM   26 CL1  UNL     1      28.865  -3.025  52.962  1.00  0.00    -0.081 Cl
HETATM   27  C19 UNL     1      27.237  -0.838  53.271  1.00  0.00     0.056 A 
ENDBRANCH  18  20
ENDBRANCH  12  18
BRANCH   5  28
HETATM   28  N2  UNL     1      17.727  -1.767  53.705  1.00  0.00    -0.327 N 
HETATM   29  H10 UNL     1      17.734  -1.871  54.748  1.00  0.00     0.169 HD
BRANCH  28  30
HETATM   30  C8  UNL     1      16.650  -2.379  52.987  1.00  0.00     0.353 C 
HETATM   31  O1  UNL     1      16.571  -3.602  53.320  1.00  0.00    -0.283 OA
ENDBRANCH  28  30
ENDBRANCH   5  28
BRANCH   1  32
HETATM   32  C2  UNL     1      20.833   2.363  48.643  1.00  0.00     0.216 C 
HETATM   33  C1  UNL     1      22.150   1.968  47.950  1.00  0.00     0.042 C 
HETATM   34  C3  UNL     1      20.714   3.849  48.632  1.00  0.00     0.042 C 
ENDBRANCH   1  32
TORSDOF 5
ENDMDL
MODEL 2
REMARK VINA RESULT:      -9.3      4.216      7.008
REMARK  5 active torsions:
REMARK  status: ('A' for Active; 'I' for Inactive)
REMARK    1  A    between atoms: C2_2  and  N1_4 
REMARK    2  A    between atoms: C7_8  and  N2_9 
REMARK    3  A    between atoms: N2_9  and  C8_10 
REMARK    4  A    between atoms: C13_18  and  N5_19 
REMARK    5  A    between atoms: N5_19  and  C14_20 
ROOT
HETATM    1  N1  UNL     1      26.963   0.522  53.942  1.00  0.00     0.107 N 
HETATM    2  C4  UNL     1      26.126  -0.414  54.673  1.00  0.00     0.367 C 
HETATM    3  C5  UNL     1      24.759  -0.394  54.428  1.00  0.00    -0.069 C 
HETATM    4  C6  UNL     1      23.624  -0.360  54.238  1.00  0.00    -0.047 C 
HETATM    5  C7  UNL     1      22.280  -0.304  54.031  1.00  0.00     0.088 C 
HETATM    6  C9  UNL     1      22.225   0.501  53.023  1.00  0.00     0.038 C 
HETATM    7  C10 UNL     1      23.557   0.863  52.679  1.00  0.00     0.084 C 
HETATM    8  C11 UNL     1      23.719   1.764  51.637  1.00  0.00     0.086 A 
HETATM    9  N3  UNL     1      22.461   2.052  51.253  1.00  0.00    -0.268 NA
HETATM   10  C12 UNL     1      22.132   2.913  50.255  1.00  0.00     0.230 A 
HETATM   11  N4  UNL     1      23.094   3.541  49.579  1.00  0.00    -0.225 NA
HETATM   12  C13 UNL     1      24.359   3.312  49.889  1.00  0.00     0.134 A 
HETATM   13  C20 UNL     1      24.688   2.459  50.876  1.00  0.00     0.000 A 
HETATM   14  C21 UNL     1      25.819   1.892  51.279  1.00  0.00     0.031 C 
HETATM   15  C22 UNL     1      27.154   1.402  51.587  1.00  0.00     0.045 C 
HETATM   16  C23 UNL     1      27.211   0.260  52.591  1.00  0.00     0.221 C 
HETATM   17  C24 UNL     1      26.468  -0.933  51.978  1.00  0.00     0.043 C 
ENDROOT
BRANCH  12  18
HETATM   18  N5  UNL     1      25.436   3.872  49.189  1.00  0.00    -0.341 N 
HETATM   19  H15 UNL     1      26.119   3.496  48.508  1.00  0.00     0.167 HD
BRANCH  18  20
HETATM   20  C14 UNL     1      25.763   5.231  49.389  1.00  0.00     0.035 A 
HETATM   21  C15 UNL     1      25.065   6.034  50.311  1.00  0.00     0.032 A 
HETATM   22  C16 UNL     1      25.248   7.356  50.621  1.00  0.00     0.046 A 
HETATM   23  C17 UNL     1      26.259   7.979  49.925  1.00  0.00     0.138 A 
HETATM   24  F1  UNL     1      26.467   9.298  50.222  1.00  0.00    -0.204 F 
HETATM   25  C18 UNL     1      27.016   7.282  48.988  1.00  0.00     0.074 A 
HETATM   26 CL1  UNL     1      28.294   8.137  48.139  1.00  0.00    -0.081 Cl
HETATM   27  C19 UNL     1      26.752   5.951  48.750  1.00  0.00     0.056 A 
ENDBRANCH  18  20
ENDBRANCH  12  18
BRANCH   5  28
HETATM   28  N2  UNL     1      21.168  -0.863  54.637  1.00  0.00    -0.327 N 
HETATM   29  H10 UNL     1      21.114  -0.620  55.655  1.00  0.00     0.169 HD
BRANCH  28  30
HETATM   30  C8  UNL     1      20.126  -1.684  54.097  1.00  0.00     0.353 C 
HETATM   31  O1  UNL     1      19.208  -0.939  53.635  1.00  0.00    -0.283 OA
ENDBRANCH  28  30
ENDBRANCH   5  28
BRANCH   1  32
HETATM   32  C2  UNL     1      28.252   0.604  54.632  1.00  0.00     0.216 C 
HETATM   33  C1  UNL     1      28.940   1.946  54.322  1.00  0.00     0.042 C 
HETATM   34  C3  UNL     1      29.165  -0.505  54.236  1.00  0.00     0.042 C 
ENDBRANCH   1  32
TORSDOF 5
ENDMDL
MODEL 3
REMARK VINA RESULT:      -9.2      5.332      9.356
REMARK  5 active torsions:
REMARK  status: ('A' for Active; 'I' for Inactive)
REMARK    1  A    between atoms: C2_2  and  N1_4 
REMARK    2  A    between atoms: C7_8  and  N2_9 
REMARK    3  A    between atoms: N2_9  and  C8_10 
REMARK    4  A    between atoms: C13_18  and  N5_19 
REMARK    5  A    between atoms: N5_19  and  C14_20 
ROOT
HETATM    1  N1  UNL     1      25.221   0.710  52.188  1.00  0.00     0.107 N 
HETATM    2  C4  UNL     1      26.328   1.649  52.265  1.00  0.00     0.367 C 
HETATM    3  C5  UNL     1      26.362   2.691  51.347  1.00  0.00    -0.069 C 
HETATM    4  C6  UNL     1      26.400   3.541  50.571  1.00  0.00    -0.047 C 
HETATM    5  C7  UNL     1      26.456   4.531  49.639  1.00  0.00     0.088 C 
HETATM    6  C9  UNL     1      25.301   4.399  49.077  1.00  0.00     0.038 C 
HETATM    7  C10 UNL     1      24.615   3.337  49.730  1.00  0.00     0.084 C 
HETATM    8  C11 UNL     1      23.359   3.003  49.246  1.00  0.00     0.086 A 
HETATM    9  N3  UNL     1      23.170   3.846  48.213  1.00  0.00    -0.268 NA
HETATM   10  C12 UNL     1      22.064   3.871  47.425  1.00  0.00     0.230 A 
HETATM   11  N4  UNL     1      21.067   3.016  47.655  1.00  0.00    -0.225 NA
HETATM   12  C13 UNL     1      21.170   2.155  48.655  1.00  0.00     0.134 A 
HETATM   13  C20 UNL     1      22.263   2.129  49.438  1.00  0.00     0.000 A 
HETATM   14  C21 UNL     1      22.571   1.544  50.589  1.00  0.00     0.031 C 
HETATM   15  C22 UNL     1      22.727   0.796  51.827  1.00  0.00     0.045 C 
HETATM   16  C23 UNL     1      23.968   1.137  52.639  1.00  0.00     0.221 C 
HETATM   17  C24 UNL     1      23.858   2.608  53.060  1.00  0.00     0.043 C 
ENDROOT
BRANCH  12  18
HETATM   18  N5  UNL     1      20.145   1.269  49.015  1.00  0.00    -0.341 N 
HETATM   19  H15 UNL     1      19.937   0.283  48.779  1.00  0.00     0.167 HD
BRANCH  18  20
HETATM   20  C14 UNL     1      19.110   1.715  49.865  1.00  0.00     0.035 A 
HETATM   21  C15 UNL     1      18.914   3.080  50.142  1.00  0.00     0.032 A 
HETATM   22  C16 UNL     1      17.972   3.676  50.940  1.00  0.00     0.046 A 
HETATM   23  C17 UNL     1      17.099   2.806  51.553  1.00  0.00     0.138 A 
HETATM   24  F1  UNL     1      16.144   3.377  52.348  1.00  0.00    -0.204 F 
HETATM   25  C18 UNL     1      17.199   1.432  51.350  1.00  0.00     0.074 A 
HETATM   26 CL1  UNL     1      16.050   0.379  52.160  1.00  0.00    -0.081 Cl
HETATM   27  C19 UNL     1      18.184   0.934  50.527  1.00  0.00     0.056 A 
ENDBRANCH  18  20
ENDBRANCH  12  18
BRANCH   5  28
HETATM   28  N2  UNL     1      27.398   5.473  49.261  1.00  0.00    -0.327 N 
HETATM   29  H10 UNL     1      27.378   6.316  49.883  1.00  0.00     0.169 HD
BRANCH  28  30
HETATM   30  C8  UNL     1      28.355   5.458  48.196  1.00  0.00     0.353 C 
HETATM   31  O1  UNL     1      29.501   5.188  48.671  1.00  0.00    -0.283 OA
ENDBRANCH  28  30
ENDBRANCH   5  28
BRANCH   1  32
HETATM   32  C2  UNL     1      25.594  -0.484  52.948  1.00  0.00     0.216 C 
HETATM   33  C1  UNL     1      25.993  -0.101  54.385  1.00  0.00     0.042 C 
HETATM   34  C3  UNL     1      26.731  -1.212  52.315  1.00  0.00     0.042 C 
ENDBRANCH   1  32
TORSDOF 5
ENDMDL
MODEL 4
REMARK VINA RESULT:      -8.9      5.399      8.725
REMARK  5 active torsions:
REMARK  status: ('A' for Active; 'I' for Inactive)
REMARK    1  A    between atoms: C2_2  and  N1_4 
REMARK    2  A    between atoms: C7_8  and  N2_9 
REMARK    3  A    between atoms: N2_9  and  C8_10 
REMARK    4  A    between atoms: C13_18  and  N5_19 
REMARK    5  A    between atoms: N5_19  and  C14_20 
ROOT
HETATM    1  N1  UNL     1      21.605   3.113  50.528  1.00  0.00     0.107 N 
HETATM    2  C4  UNL     1      22.941   2.684  50.904  1.00  0.00     0.367 C 
HETATM    3  C5  UNL     1      23.059   1.616  51.785  1.00  0.00    -0.069 C 
HETATM    4  C6  UNL     1      23.153   0.744  52.530  1.00  0.00    -0.047 C 
HETATM    5  C7  UNL     1      23.263  -0.271  53.430  1.00  0.00     0.088 C 
HETATM    6  C9  UNL     1      22.036  -0.667  53.498  1.00  0.00     0.038 C 
HETATM    7  C10 UNL     1      21.267   0.135  52.610  1.00  0.00     0.084 C 
HETATM    8  C11 UNL     1      19.902  -0.103  52.563  1.00  0.00     0.086 A 
HETATM    9  N3  UNL     1      19.710  -1.090  53.458  1.00  0.00    -0.268 NA
HETATM   10  C12 UNL     1      18.505  -1.644  53.756  1.00  0.00     0.230 A 
HETATM   11  N4  UNL     1      17.406  -1.207  53.141  1.00  0.00    -0.225 NA
HETATM   12  C13 UNL     1      17.506  -0.241  52.243  1.00  0.00     0.134 A 
HETATM   13  C20 UNL     1      18.697   0.307  51.944  1.00  0.00     0.000 A 
HETATM   14  C21 UNL     1      19.136   1.121  50.991  1.00  0.00     0.031 C 
HETATM   15  C22 UNL     1      19.414   2.038  49.896  1.00  0.00     0.045 C 
HETATM   16  C23 UNL     1      20.888   2.311  49.635  1.00  0.00     0.221 C 
HETATM   17  C24 UNL     1      21.541   0.982  49.234  1.00  0.00     0.043 C 
ENDROOT
BRANCH  12  18
HETATM   18  N5  UNL     1      16.418   0.232  51.497  1.00  0.00    -0.341 N 
HETATM   19  H15 UNL     1      16.052   0.020  50.552  1.00  0.00     0.167 HD
BRANCH  18  20
HETATM   20  C14 UNL     1      15.580   1.226  52.046  1.00  0.00     0.035 A 
HETATM   21  C15 UNL     1      15.854   2.598  51.889  1.00  0.00     0.032 A 
HETATM   22  C16 UNL     1      15.156   3.681  52.356  1.00  0.00     0.046 A 
HETATM   23  C17 UNL     1      14.029   3.373  53.083  1.00  0.00     0.138 A 
HETATM   24  F1  UNL     1      13.310   4.437  53.554  1.00  0.00    -0.204 F 
HETATM   25  C18 UNL     1      13.660   2.048  53.302  1.00  0.00     0.074 A 
HETATM   26 CL1  UNL     1      12.207   1.725  54.235  1.00  0.00    -0.081 Cl
HETATM   27  C19 UNL     1      14.432   1.031  52.787  1.00  0.00     0.056 A 
ENDBRANCH  18  20
ENDBRANCH  12  18
BRANCH   5  28
HETATM   28  N2  UNL     1      24.299  -0.828  54.162  1.00  0.00    -0.327 N 
HETATM   29  H10 UNL     1      23.963  -1.596  54.792  1.00  0.00     0.169 HD
BRANCH  28  30
HETATM   30  C8  UNL     1      25.698  -0.524  54.176  1.00  0.00     0.353 C 
HETATM   31  O1  UNL     1      26.108  -0.515  55.377  1.00  0.00    -0.283 OA
ENDBRANCH  28  30
ENDBRANCH   5  28
BRANCH   1  32
HETATM   32  C2  UNL     1      21.711   4.453  49.950  1.00  0.00     0.216 C 
HETATM   33  C1  UNL     1      23.081   4.636  49.270  1.00  0.00     0.042 C 
HETATM   34  C3  UNL     1      21.543   5.517  50.980  1.00  0.00     0.042 C 
ENDBRANCH   1  32
TORSDOF 5
ENDMDL
MODEL 5
REMARK VINA RESULT:      -8.8      3.745      5.754
REMARK  5 active torsions:
REMARK  status: ('A' for Active; 'I' for Inactive)
REMARK    1  A    between atoms: C2_2  and  N1_4 
REMARK    2  A    between atoms: C7_8  and  N2_9 
REMARK    3  A    between atoms: N2_9  and  C8_10 
REMARK    4  A    between atoms: C13_18  and  N5_19 
REMARK    5  A    between atoms: N5_19  and  C14_20 
ROOT
HETATM    1  N1  UNL     1      24.413   6.040  48.825  1.00  0.00     0.107 N 
HETATM    2  C4  UNL     1      23.536   6.332  47.704  1.00  0.00     0.367 C 
HETATM    3  C5  UNL     1      22.538   5.415  47.402  1.00  0.00    -0.069 C 
HETATM    4  C6  UNL     1      21.724   4.642  47.141  1.00  0.00    -0.047 C 
HETATM    5  C7  UNL     1      20.779   3.718  46.819  1.00  0.00     0.088 C 
HETATM    6  C9  UNL     1      20.868   2.920  47.829  1.00  0.00     0.038 C 
HETATM    7  C10 UNL     1      21.861   3.435  48.709  1.00  0.00     0.084 C 
HETATM    8  C11 UNL     1      22.144   2.695  49.847  1.00  0.00     0.086 A 
HETATM    9  N3  UNL     1      21.335   1.623  49.751  1.00  0.00    -0.268 NA
HETATM   10  C12 UNL     1      21.280   0.609  50.655  1.00  0.00     0.230 A 
HETATM   11  N4  UNL     1      22.067   0.639  51.731  1.00  0.00    -0.225 NA
HETATM   12  C13 UNL     1      22.890   1.660  51.905  1.00  0.00     0.134 A 
HETATM   13  C20 UNL     1      22.945   2.665  51.013  1.00  0.00     0.000 A 
HETATM   14  C21 UNL     1      23.497   3.873  51.002  1.00  0.00     0.031 C 
HETATM   15  C22 UNL     1      24.201   5.135  51.169  1.00  0.00     0.045 C 
HETATM   16  C23 UNL     1      23.897   6.191  50.116  1.00  0.00     0.221 C 
HETATM   17  C24 UNL     1      22.406   6.535  50.220  1.00  0.00     0.043 C 
ENDROOT
BRANCH  12  18
HETATM   18  N5  UNL     1      23.700   1.810  53.038  1.00  0.00    -0.341 N 
HETATM   19  H15 UNL     1      23.577   2.290  53.946  1.00  0.00     0.167 HD
BRANCH  18  20
HETATM   20  C14 UNL     1      24.991   1.239  53.047  1.00  0.00     0.035 A 
HETATM   21  C15 UNL     1      26.132   1.990  53.387  1.00  0.00     0.032 A 
HETATM   22  C16 UNL     1      27.444   1.597  53.441  1.00  0.00     0.046 A 
HETATM   23  C17 UNL     1      27.667   0.279  53.113  1.00  0.00     0.138 A 
HETATM   24  F1  UNL     1      28.968  -0.141  53.167  1.00  0.00    -0.204 F 
HETATM   25  C18 UNL     1      26.611  -0.558  52.761  1.00  0.00     0.074 A 
HETATM   26 CL1  UNL     1      26.966  -2.231  52.359  1.00  0.00    -0.081 Cl
HETATM   27  C19 UNL     1      25.327  -0.064  52.739  1.00  0.00     0.056 A 
ENDBRANCH  18  20
ENDBRANCH  12  18
BRANCH   5  28
HETATM   28  N2  UNL     1      19.908   3.531  45.758  1.00  0.00    -0.327 N 
HETATM   29  H10 UNL     1      19.023   3.058  46.058  1.00  0.00     0.169 HD
BRANCH  28  30
HETATM   30  C8  UNL     1      20.037   3.880  44.375  1.00  0.00     0.353 C 
HETATM   31  O1  UNL     1      21.203   3.575  43.977  1.00  0.00    -0.283 OA
ENDBRANCH  28  30
ENDBRANCH   5  28
BRANCH   1  32
HETATM   32  C2  UNL     1      25.594   6.897  48.705  1.00  0.00     0.216 C 
HETATM   33  C1  UNL     1      25.478   7.795  47.459  1.00  0.00     0.042 C 
HETATM   34  C3  UNL     1      26.850   6.100  48.605  1.00  0.00     0.042 C 
ENDBRANCH   1  32
TORSDOF 5
ENDMDL
MODEL 6
REMARK VINA RESULT:      -8.7      4.882      8.055
REMARK  5 active torsions:
REMARK  status: ('A' for Active; 'I' for Inactive)
REMARK    1  A    between atoms: C2_2  and  N1_4 
REMARK    2  A    between atoms: C7_8  and  N2_9 
REMARK    3  A    between atoms: N2_9  and  C8_10 
REMARK    4  A    between atoms: C13_18  and  N5_19 
REMARK    5  A    between atoms: N5_19  and  C14_20 
ROOT
HETATM    1  N1  UNL     1      24.820   4.464  50.270  1.00  0.00     0.107 N 
HETATM    2  C4  UNL     1      26.123   3.824  50.198  1.00  0.00     0.367 C 
HETATM    3  C5  UNL     1      26.320   2.664  50.937  1.00  0.00    -0.069 C 
HETATM    4  C6  UNL     1      26.486   1.714  51.567  1.00  0.00    -0.047 C 
HETATM    5  C7  UNL     1      26.690   0.606  52.329  1.00  0.00     0.088 C 
HETATM    6  C9  UNL     1      25.489   0.372  52.741  1.00  0.00     0.038 C 
HETATM    7  C10 UNL     1      24.633   1.358  52.176  1.00  0.00     0.084 C 
HETATM    8  C11 UNL     1      23.293   1.311  52.529  1.00  0.00     0.086 A 
HETATM    9  N3  UNL     1      23.215   0.270  53.380  1.00  0.00    -0.268 NA
HETATM   10  C12 UNL     1      22.076  -0.145  53.995  1.00  0.00     0.230 A 
HETATM   11  N4  UNL     1      20.929   0.496  53.767  1.00  0.00    -0.225 NA
HETATM   12  C13 UNL     1      20.917   1.528  52.940  1.00  0.00     0.134 A 
HETATM   13  C20 UNL     1      22.042   1.940  52.329  1.00  0.00     0.000 A 
HETATM   14  C21 UNL     1      22.309   2.782  51.337  1.00  0.00     0.031 C 
HETATM   15  C22 UNL     1      22.399   3.762  50.266  1.00  0.00     0.045 C 
HETATM   16  C23 UNL     1      23.758   3.862  49.589  1.00  0.00     0.221 C 
HETATM   17  C24 UNL     1      24.048   2.507  48.931  1.00  0.00     0.043 C 
ENDROOT
BRANCH  12  18
HETATM   18  N5  UNL     1      19.748   2.216  52.587  1.00  0.00    -0.341 N 
HETATM   19  H15 UNL     1      19.331   3.115  52.884  1.00  0.00     0.167 HD
BRANCH  18  20
HETATM   20  C14 UNL     1      18.866   1.647  51.643  1.00  0.00     0.035 A 
HETATM   21  C15 UNL     1      18.381   0.333  51.780  1.00  0.00     0.032 A 
HETATM   22  C16 UNL     1      17.532  -0.367  50.963  1.00  0.00     0.046 A 
HETATM   23  C17 UNL     1      17.101   0.321  49.852  1.00  0.00     0.138 A 
HETATM   24  F1  UNL     1      16.246  -0.353  49.023  1.00  0.00    -0.204 F 
HETATM   25  C18 UNL     1      17.516   1.629  49.615  1.00  0.00     0.074 A 
HETATM   26 CL1  UNL     1      16.923   2.451  48.180  1.00  0.00    -0.081 Cl
HETATM   27  C19 UNL     1      18.372   2.244  50.501  1.00  0.00     0.056 A 
ENDBRANCH  18  20
ENDBRANCH  12  18
BRANCH   5  28
HETATM   28  N2  UNL     1      27.792  -0.158  52.679  1.00  0.00    -0.327 N 
HETATM   29  H10 UNL     1      28.068  -0.819  51.914  1.00  0.00     0.169 HD
BRANCH  28  30
HETATM   30  C8  UNL     1      28.574  -0.169  53.879  1.00  0.00     0.353 C 
HETATM   31  O1  UNL     1      27.808  -0.363  54.872  1.00  0.00    -0.283 OA
ENDBRANCH  28  30
ENDBRANCH   5  28
BRANCH   1  32
HETATM   32  C2  UNL     1      24.965   5.831  49.766  1.00  0.00     0.216 C 
HETATM   33  C1  UNL     1      26.320   5.997  49.053  1.00  0.00     0.042 C 
HETATM   34  C3  UNL     1      24.875   6.838  50.862  1.00  0.00     0.042 C 
ENDBRANCH   1  32
TORSDOF 5
ENDMDL
MODEL 7
REMARK VINA RESULT:      -8.6      4.875      6.180
REMARK  5 active torsions:
REMARK  status: ('A' for Active; 'I' for Inactive)
REMARK    1  A    between atoms: C2_2  and  N1_4 
REMARK    2  A    between atoms: C7_8  and  N2_9 
REMARK    3  A    between atoms: N2_9  and  C8_10 
REMARK    4  A    between atoms: C13_18  and  N5_19 
REMARK    5  A    between atoms: N5_19  and  C14_20 
ROOT
HETATM    1  N1  UNL     1      20.359   3.059  49.782  1.00  0.00     0.107 N 
HETATM    2  C4  UNL     1      19.916   2.281  50.927  1.00  0.00     0.367 C 
HETATM    3  C5  UNL     1      20.887   1.709  51.740  1.00  0.00    -0.069 C 
HETATM    4  C6  UNL     1      21.694   1.220  52.400  1.00  0.00    -0.047 C 
HETATM    5  C7  UNL     1      22.646   0.622  53.166  1.00  0.00     0.088 C 
HETATM    6  C9  UNL     1      23.716   1.159  52.682  1.00  0.00     0.038 C 
HETATM    7  C10 UNL     1      23.326   2.067  51.659  1.00  0.00     0.084 C 
HETATM    8  C11 UNL     1      24.339   2.724  50.976  1.00  0.00     0.086 A 
HETATM    9  N3  UNL     1      25.470   2.248  51.529  1.00  0.00    -0.268 NA
HETATM   10  C12 UNL     1      26.727   2.609  51.159  1.00  0.00     0.230 A 
HETATM   11  N4  UNL     1      26.898   3.499  50.181  1.00  0.00    -0.225 NA
HETATM   12  C13 UNL     1      25.838   4.020  49.586  1.00  0.00     0.134 A 
HETATM   13  C20 UNL     1      24.593   3.665  49.951  1.00  0.00     0.000 A 
HETATM   14  C21 UNL     1      23.377   4.133  49.694  1.00  0.00     0.031 C 
HETATM   15  C22 UNL     1      22.139   4.767  49.268  1.00  0.00     0.045 C 
HETATM   16  C23 UNL     1      20.892   4.329  50.020  1.00  0.00     0.221 C 
HETATM   17  C24 UNL     1      21.073   4.729  51.491  1.00  0.00     0.043 C 
ENDROOT
BRANCH  12  18
HETATM   18  N5  UNL     1      25.920   5.012  48.599  1.00  0.00    -0.341 N 
HETATM   19  H15 UNL     1      25.591   5.075  47.619  1.00  0.00     0.167 HD
BRANCH  18  20
HETATM   20  C14 UNL     1      26.589   6.221  48.885  1.00  0.00     0.035 A 
HETATM   21  C15 UNL     1      26.030   7.197  49.732  1.00  0.00     0.032 A 
HETATM   22  C16 UNL     1      26.537   8.413  50.107  1.00  0.00     0.046 A 
HETATM   23  C17 UNL     1      27.769   8.716  49.572  1.00  0.00     0.138 A 
HETATM   24  F1  UNL     1      28.301   9.922  49.937  1.00  0.00    -0.204 F 
HETATM   25  C18 UNL     1      28.417   7.825  48.721  1.00  0.00     0.074 A 
HETATM   26 CL1  UNL     1      29.989   8.272  48.077  1.00  0.00    -0.081 Cl
HETATM   27  C19 UNL     1      27.820   6.624  48.407  1.00  0.00     0.056 A 
ENDBRANCH  18  20
ENDBRANCH  12  18
BRANCH   5  28
HETATM   28  N2  UNL     1      22.642  -0.315  54.186  1.00  0.00    -0.327 N 
HETATM   29  H10 UNL     1      23.577  -0.384  54.656  1.00  0.00     0.169 HD
BRANCH  28  30
HETATM   30  C8  UNL     1      21.593  -1.160  54.671  1.00  0.00     0.353 C 
HETATM   31  O1  UNL     1      22.103  -2.132  55.307  1.00  0.00    -0.283 OA
ENDBRANCH  28  30
ENDBRANCH   5  28
BRANCH   1  32
HETATM   32  C2  UNL     1      19.219   3.208  48.875  1.00  0.00     0.216 C 
HETATM   33  C1  UNL     1      18.088   2.241  49.273  1.00  0.00     0.042 C 
HETATM   34  C3  UNL     1      19.598   2.942  47.458  1.00  0.00     0.042 C 
ENDBRANCH   1  32
TORSDOF 5
ENDMDL
MODEL 8
REMARK VINA RESULT:      -8.5      2.810      3.652
REMARK  5 active torsions:
REMARK  status: ('A' for Active; 'I' for Inactive)
REMARK    1  A    between atoms: C2_2  and  N1_4 
REMARK    2  A    between atoms: C7_8  and  N2_9 
REMARK    3  A    between atoms: N2_9  and  C8_10 
REMARK    4  A    between atoms: C13_18  and  N5_19 
REMARK    5  A    between atoms: N5_19  and  C14_20 
ROOT
HETATM    1  N1  UNL     1      21.741   4.648  47.899  1.00  0.00     0.107 N 
HETATM    2  C4  UNL     1      20.380   5.043  48.219  1.00  0.00     0.367 C 
HETATM    3  C5  UNL     1      19.791   4.494  49.351  1.00  0.00    -0.069 C 
HETATM    4  C6  UNL     1      19.299   4.021  50.278  1.00  0.00    -0.047 C 
HETATM    5  C7  UNL     1      18.710   3.443  51.360  1.00  0.00     0.088 C 
HETATM    6  C9  UNL     1      19.719   2.836  51.888  1.00  0.00     0.038 C 
HETATM    7  C10 UNL     1      20.863   3.108  51.087  1.00  0.00     0.084 C 
HETATM    8  C11 UNL     1      22.055   2.508  51.463  1.00  0.00     0.086 A 
HETATM    9  N3  UNL     1      21.730   1.782  52.549  1.00  0.00    -0.268 NA
HETATM   10  C12 UNL     1      22.598   1.009  53.254  1.00  0.00     0.230 A 
HETATM   11  N4  UNL     1      23.875   0.936  52.877  1.00  0.00    -0.225 NA
HETATM   12  C13 UNL     1      24.280   1.622  51.821  1.00  0.00     0.134 A 
HETATM   13  C20 UNL     1      23.424   2.389  51.123  1.00  0.00     0.000 A 
HETATM   14  C21 UNL     1      23.557   3.312  50.177  1.00  0.00     0.031 C 
HETATM   15  C22 UNL     1      23.906   4.261  49.132  1.00  0.00     0.045 C 
HETATM   16  C23 UNL     1      22.775   5.173  48.679  1.00  0.00     0.221 C 
HETATM   17  C24 UNL     1      22.357   6.025  49.885  1.00  0.00     0.043 C 
ENDROOT
BRANCH  12  18
HETATM   18  N5  UNL     1      25.614   1.661  51.395  1.00  0.00    -0.341 N 
HETATM   19  H15 UNL     1      26.093   2.085  50.581  1.00  0.00     0.167 HD
BRANCH  18  20
HETATM   20  C14 UNL     1      26.603   0.997  52.152  1.00  0.00     0.035 A 
HETATM   21  C15 UNL     1      27.455   1.690  53.032  1.00  0.00     0.032 A 
HETATM   22  C16 UNL     1      28.459   1.206  53.829  1.00  0.00     0.046 A 
HETATM   23  C17 UNL     1      28.657  -0.153  53.748  1.00  0.00     0.138 A 
HETATM   24  F1  UNL     1      29.649  -0.663  54.539  1.00  0.00    -0.204 F 
HETATM   25  C18 UNL     1      27.872  -0.941  52.909  1.00  0.00     0.074 A 
HETATM   26 CL1  UNL     1      28.175  -2.671  52.858  1.00  0.00    -0.081 Cl
HETATM   27  C19 UNL     1      26.886  -0.354  52.149  1.00  0.00     0.056 A 
ENDBRANCH  18  20
ENDBRANCH  12  18
BRANCH   5  28
HETATM   28  N2  UNL     1      17.424   3.402  51.874  1.00  0.00    -0.327 N 
HETATM   29  H10 UNL     1      17.192   2.461  52.271  1.00  0.00     0.169 HD
BRANCH  28  30
HETATM   30  C8  UNL     1      16.417   4.417  51.944  1.00  0.00     0.353 C 
HETATM   31  O1  UNL     1      15.640   4.165  52.916  1.00  0.00    -0.283 OA
ENDBRANCH  28  30
ENDBRANCH   5  28
BRANCH   1  32
HETATM   32  C2  UNL     1      21.996   5.011  46.504  1.00  0.00     0.216 C 
HETATM   33  C1  UNL     1      21.000   6.090  46.041  1.00  0.00     0.042 C 
HETATM   34  C3  UNL     1      21.884   3.835  45.595  1.00  0.00     0.042 C 
ENDBRANCH   1  32
TORSDOF 5
ENDMDL
MODEL 9
REMARK VINA RESULT:      -8.4      9.061     12.042
REMARK  5 active torsions:
REMARK  status: ('A' for Active; 'I' for Inactive)
REMARK    1  A    between atoms: C2_2  and  N1_4 
REMARK    2  A    between atoms: C7_8  and  N2_9 
REMARK    3  A    between atoms: N2_9  and  C8_10 
REMARK    4  A    between atoms: C13_18  and  N5_19 
REMARK    5  A    between atoms: N5_19  and  C14_20 
ROOT
HETATM    1  N1  UNL     1      31.908   6.759  46.493  1.00  0.00     0.107 N 
HETATM    2  C4  UNL     1      32.419   8.098  46.728  1.00  0.00     0.367 C 
HETATM    3  C5  UNL     1      31.585   9.012  47.359  1.00  0.00    -0.069 C 
HETATM    4  C6  UNL     1      30.884   9.773  47.864  1.00  0.00    -0.047 C 
HETATM    5  C7  UNL     1      30.047  10.679  48.438  1.00  0.00     0.088 C 
HETATM    6  C9  UNL     1      29.066   9.915  48.784  1.00  0.00     0.038 C 
HETATM    7  C10 UNL     1      29.392   8.584  48.404  1.00  0.00     0.084 C 
HETATM    8  C11 UNL     1      28.443   7.604  48.651  1.00  0.00     0.086 A 
HETATM    9  N3  UNL     1      27.415   8.275  49.205  1.00  0.00    -0.268 NA
HETATM   10  C12 UNL     1      26.245   7.710  49.603  1.00  0.00     0.230 A 
HETATM   11  N4  UNL     1      26.058   6.399  49.453  1.00  0.00    -0.225 NA
HETATM   12  C13 UNL     1      27.020   5.663  48.921  1.00  0.00     0.134 A 
HETATM   13  C20 UNL     1      28.180   6.219  48.528  1.00  0.00     0.000 A 
HETATM   14  C21 UNL     1      29.363   5.743  48.156  1.00  0.00     0.031 C 
HETATM   15  C22 UNL     1      30.564   5.032  47.745  1.00  0.00     0.045 C 
HETATM   16  C23 UNL     1      31.807   5.895  47.588  1.00  0.00     0.221 C 
HETATM   17  C24 UNL     1      32.133   6.494  48.963  1.00  0.00     0.043 C 
ENDROOT
BRANCH  12  18
HETATM   18  N5  UNL     1      26.940   4.270  48.790  1.00  0.00    -0.341 N 
HETATM   19  H15 UNL     1      27.343   3.591  48.122  1.00  0.00     0.167 HD
BRANCH  18  20
HETATM   20  C14 UNL     1      26.155   3.532  49.702  1.00  0.00     0.035 A 
HETATM   21  C15 UNL     1      24.788   3.286  49.475  1.00  0.00     0.032 A 
HETATM   22  C16 UNL     1      23.890   2.600  50.251  1.00  0.00     0.046 A 
HETATM   23  C17 UNL     1      24.409   2.085  51.416  1.00  0.00     0.138 A 
HETATM   24  F1  UNL     1      23.534   1.389  52.206  1.00  0.00    -0.204 F 
HETATM   25  C18 UNL     1      25.750   2.266  51.744  1.00  0.00     0.074 A 
HETATM   26 CL1  UNL     1      26.347   1.577  53.246  1.00  0.00    -0.081 Cl
HETATM   27  C19 UNL     1      26.570   2.972  50.894  1.00  0.00     0.056 A 
ENDBRANCH  18  20
ENDBRANCH  12  18
BRANCH   5  28
HETATM   28  N2  UNL     1      30.077  12.047  48.653  1.00  0.00    -0.327 N 
HETATM   29  H10 UNL     1      30.999  12.362  49.039  1.00  0.00     0.169 HD
BRANCH  28  30
HETATM   30  C8  UNL     1      29.076  13.047  48.430  1.00  0.00     0.353 C 
HETATM   31  O1  UNL     1      28.362  13.160  49.473  1.00  0.00    -0.283 OA
ENDBRANCH  28  30
ENDBRANCH   5  28
BRANCH   1  32
HETATM   32  C2  UNL     1      32.764   6.122  45.490  1.00  0.00     0.216 C 
HETATM   33  C1  UNL     1      33.623   5.021  46.141  1.00  0.00     0.042 C 
HETATM   34  C3  UNL     1      33.669   7.105  44.829  1.00  0.00     0.042 C 
ENDBRANCH   1  32
TORSDOF 5
ENDMDL
