MODEL 1
REMARK VINA RESULT:      -7.4      0.000      0.000
REMARK  5 active torsions:
REMARK  status: ('A' for Active; 'I' for Inactive)
REMARK    1  A    between atoms: C3_3  and  C4_4 
REMARK    2  A    between atoms: C3_3  and  S1_19 
REMARK    3  A    between atoms: C5_5  and  C6_6 
REMARK    4  A    between atoms: C8_10  and  C9_11 
REMARK    5  A    between atoms: C10_12  and  C11_13 
ROOT
HETATM    1  C6  UNL     1      23.091   0.253  53.526  1.00  0.00     0.064 C 
HETATM    2  N1  UNL     1      22.972  -0.810  54.297  1.00  0.00    -0.266 NA
HETATM    3  C7  UNL     1      21.536  -0.989  54.488  1.00  0.00     0.318 C 
HETATM    4  O1  UNL     1      21.008   0.305  54.356  1.00  0.00    -0.355 OA
HETATM    5  C8  UNL     1      21.746   0.751  53.231  1.00  0.00     0.198 C 
ENDROOT
BRANCH   1   6
HETATM    6  C5  UNL     1      24.574   0.320  53.413  1.00  0.00     0.031 C 
HETATM    7  C4  UNL     1      25.537  -0.576  53.112  1.00  0.00     0.023 C 
BRANCH   7   8
HETATM    8  C3  UNL     1      26.728   0.289  53.220  1.00  0.00     0.027 C 
HETATM    9  C2  UNL     1      27.407  -0.833  52.768  1.00  0.00    -0.010 C 
HETATM   10  C1  UNL     1      26.740  -2.120  52.448  1.00  0.00     0.037 C 
BRANCH   8  11
HETATM   11  S1  UNL     1      28.119   1.298  53.346  1.00  0.00     0.045 S 
HETATM   12  C16 UNL     1      29.646   0.454  53.733  1.00  0.00     0.133 C 
HETATM   13  O3  UNL     1      27.896   2.544  54.187  1.00  0.00    -0.253 OA
ENDBRANCH   8  11
ENDBRANCH   7   8
ENDBRANCH   1   6
BRANCH   5  14
HETATM   14  C9  UNL     1      21.159   0.112  52.028  1.00  0.00     0.014 C 
HETATM   15  C10 UNL     1      21.289   0.349  50.745  1.00  0.00     0.036 C 
BRANCH  15  16
HETATM   16  C11 UNL     1      22.085   1.358  50.063  1.00  0.00     0.075 A 
HETATM   17  C12 UNL     1      21.857   2.012  48.871  1.00  0.00     0.039 A 
HETATM   18  C13 UNL     1      22.867   2.905  48.574  1.00  0.00     0.035 A 
HETATM   19  C14 UNL     1      23.708   2.730  49.678  1.00  0.00     0.050 A 
HETATM   20  C15 UNL     1      24.994   3.474  49.878  1.00  0.00     0.076 C 
HETATM   21  O2  UNL     1      23.215   1.849  50.478  1.00  0.00    -0.316 OA
ENDBRANCH  15  16
ENDBRANCH   5  14
TORSDOF 5
ENDMDL
MODEL 2
REMARK VINA RESULT:      -7.4      1.790      2.659
REMARK  5 active torsions:
REMARK  status: ('A' for Active; 'I' for Inactive)
REMARK    1  A    between atoms: C3_3  and  C4_4 
REMARK    2  A    between atoms: C3_3  and  S1_19 
REMARK    3  A    between atoms: C5_5  and  C6_6 
REMARK    4  A    between atoms: C8_10  and  C9_11 
REMARK    5  A    between atoms: C10_12  and  C11_13 
ROOT
HETATM    1  C6  UNL     1      24.034   1.473  52.429  1.00  0.00     0.064 C 
HETATM    2  N1  UNL     1      23.350   0.393  52.746  1.00  0.00    -0.266 NA
HETATM    3  C7  UNL     1      21.953   0.729  52.488  1.00  0.00     0.318 C 
HETATM    4  O1  UNL     1      21.899   2.122  52.659  1.00  0.00    -0.355 OA
HETATM    5  C8  UNL     1      23.085   2.494  51.977  1.00  0.00     0.198 C 
ENDROOT
BRANCH   1   6
HETATM    6  C5  UNL     1      25.412   1.000  52.733  1.00  0.00     0.031 C 
HETATM    7  C4  UNL     1      26.037  -0.193  52.653  1.00  0.00     0.023 C 
BRANCH   7   8
HETATM    8  C3  UNL     1      27.377   0.192  53.139  1.00  0.00     0.027 C 
HETATM    9  C2  UNL     1      27.692  -1.135  52.888  1.00  0.00    -0.010 C 
HETATM   10  C1  UNL     1      26.721  -2.120  52.350  1.00  0.00     0.037 C 
BRANCH   8  11
HETATM   11  S1  UNL     1      28.942   0.641  53.705  1.00  0.00     0.045 S 
HETATM   12  C16 UNL     1      30.156  -0.670  53.721  1.00  0.00     0.133 C 
HETATM   13  O3  UNL     1      28.917   1.448  54.993  1.00  0.00    -0.253 OA
ENDBRANCH   8  11
ENDBRANCH   7   8
ENDBRANCH   1   6
BRANCH   5  14
HETATM   14  C9  UNL     1      22.811   2.404  50.523  1.00  0.00     0.014 C 
HETATM   15  C10 UNL     1      23.471   2.822  49.469  1.00  0.00     0.036 C 
BRANCH  15  16
HETATM   16  C11 UNL     1      24.736   3.537  49.387  1.00  0.00     0.075 A 
HETATM   17  C12 UNL     1      26.018   3.104  49.646  1.00  0.00     0.039 A 
HETATM   18  C13 UNL     1      26.948   4.105  49.446  1.00  0.00     0.035 A 
HETATM   19  C14 UNL     1      26.119   5.161  49.052  1.00  0.00     0.050 A 
HETATM   20  C15 UNL     1      26.618   6.531  48.701  1.00  0.00     0.076 C 
HETATM   21  O2  UNL     1      24.889   4.780  49.038  1.00  0.00    -0.316 OA
ENDBRANCH  15  16
ENDBRANCH   5  14
TORSDOF 5
ENDMDL
MODEL 3
REMARK VINA RESULT:      -7.2      2.732      5.685
REMARK  5 active torsions:
REMARK  status: ('A' for Active; 'I' for Inactive)
REMARK    1  A    between atoms: C3_3  and  C4_4 
REMARK    2  A    between atoms: C3_3  and  S1_19 
REMARK    3  A    between atoms: C5_5  and  C6_6 
REMARK    4  A    between atoms: C8_10  and  C9_11 
REMARK    5  A    between atoms: C10_12  and  C11_13 
ROOT
HETATM    1  C6  UNL     1      27.070   1.962  52.819  1.00  0.00     0.064 C 
HETATM    2  N1  UNL     1      28.381   1.883  52.711  1.00  0.00    -0.266 NA
HETATM    3  C7  UNL     1      28.814   1.072  53.845  1.00  0.00     0.318 C 
HETATM    4  O1  UNL     1      27.829   1.294  54.822  1.00  0.00    -0.355 OA
HETATM    5  C8  UNL     1      26.668   1.213  54.012  1.00  0.00     0.198 C 
ENDROOT
BRANCH   1   6
HETATM    6  C5  UNL     1      26.767   2.797  51.625  1.00  0.00     0.031 C 
HETATM    7  C4  UNL     1      25.803   2.776  50.681  1.00  0.00     0.023 C 
BRANCH   7   8
HETATM    8  C3  UNL     1      26.223   3.932  49.866  1.00  0.00     0.027 C 
HETATM    9  C2  UNL     1      24.908   3.916  49.424  1.00  0.00    -0.010 C 
HETATM   10  C1  UNL     1      23.898   2.936  49.895  1.00  0.00     0.037 C 
BRANCH   8  11
HETATM   11  S1  UNL     1      26.713   5.282  48.914  1.00  0.00     0.045 S 
HETATM   12  C16 UNL     1      28.421   5.271  48.390  1.00  0.00     0.133 C 
HETATM   13  O3  UNL     1      26.271   6.622  49.480  1.00  0.00    -0.253 OA
ENDBRANCH   8  11
ENDBRANCH   7   8
ENDBRANCH   1   6
BRANCH   5  14
HETATM   14  C9  UNL     1      26.423  -0.220  53.723  1.00  0.00     0.014 C 
HETATM   15  C10 UNL     1      25.332  -0.897  53.454  1.00  0.00     0.036 C 
BRANCH  15  16
HETATM   16  C11 UNL     1      23.956  -0.437  53.348  1.00  0.00     0.075 A 
HETATM   17  C12 UNL     1      23.449   0.735  52.829  1.00  0.00     0.039 A 
HETATM   18  C13 UNL     1      22.072   0.784  52.922  1.00  0.00     0.035 A 
HETATM   19  C14 UNL     1      21.804  -0.445  53.534  1.00  0.00     0.050 A 
HETATM   20  C15 UNL     1      20.426  -0.926  53.880  1.00  0.00     0.076 C 
HETATM   21  O2  UNL     1      22.902  -1.085  53.748  1.00  0.00    -0.316 OA
ENDBRANCH  15  16
ENDBRANCH   5  14
TORSDOF 5
ENDMDL
MODEL 4
REMARK VINA RESULT:      -7.2      1.995      4.142
REMARK  5 active torsions:
REMARK  status: ('A' for Active; 'I' for Inactive)
REMARK    1  A    between atoms: C3_3  and  C4_4 
REMARK    2  A    between atoms: C3_3  and  S1_19 
REMARK    3  A    between atoms: C5_5  and  C6_6 
REMARK    4  A    between atoms: C8_10  and  C9_11 
REMARK    5  A    between atoms: C10_12  and  C11_13 
ROOT
HETATM    1  C6  UNL     1      25.023   2.376  51.063  1.00  0.00     0.064 C 
HETATM    2  N1  UNL     1      25.555   3.581  51.024  1.00  0.00    -0.266 NA
HETATM    3  C7  UNL     1      24.601   4.402  50.284  1.00  0.00     0.318 C 
HETATM    4  O1  UNL     1      23.945   3.490  49.441  1.00  0.00    -0.355 OA
HETATM    5  C8  UNL     1      23.742   2.424  50.353  1.00  0.00     0.198 C 
ENDROOT
BRANCH   1   6
HETATM    6  C5  UNL     1      26.076   1.657  51.829  1.00  0.00     0.031 C 
HETATM    7  C4  UNL     1      26.260   0.373  52.201  1.00  0.00     0.023 C 
BRANCH   7   8
HETATM    8  C3  UNL     1      27.539   0.501  52.928  1.00  0.00     0.027 C 
HETATM    9  C2  UNL     1      27.515  -0.885  52.924  1.00  0.00    -0.010 C 
HETATM   10  C1  UNL     1      26.428  -1.685  52.306  1.00  0.00     0.037 C 
BRANCH   8  11
HETATM   11  S1  UNL     1      29.031   0.651  53.776  1.00  0.00     0.045 S 
HETATM   12  C16 UNL     1      30.089  -0.788  53.724  1.00  0.00     0.133 C 
HETATM   13  O3  UNL     1      28.886   1.235  55.171  1.00  0.00    -0.253 OA
ENDBRANCH   8  11
ENDBRANCH   7   8
ENDBRANCH   1   6
BRANCH   5  14
HETATM   14  C9  UNL     1      22.618   2.804  51.242  1.00  0.00     0.014 C 
HETATM   15  C10 UNL     1      22.038   2.194  52.249  1.00  0.00     0.036 C 
BRANCH  15  16
HETATM   16  C11 UNL     1      22.326   0.896  52.839  1.00  0.00     0.075 A 
HETATM   17  C12 UNL     1      21.808  -0.347  52.546  1.00  0.00     0.039 A 
HETATM   18  C13 UNL     1      22.352  -1.332  53.347  1.00  0.00     0.035 A 
HETATM   19  C14 UNL     1      23.228  -0.578  54.134  1.00  0.00     0.050 A 
HETATM   20  C15 UNL     1      24.102  -1.159  55.206  1.00  0.00     0.076 C 
HETATM   21  O2  UNL     1      23.169   0.665  53.802  1.00  0.00    -0.316 OA
ENDBRANCH  15  16
ENDBRANCH   5  14
TORSDOF 5
ENDMDL
MODEL 5
REMARK VINA RESULT:      -7.1      1.338      1.561
REMARK  5 active torsions:
REMARK  status: ('A' for Active; 'I' for Inactive)
REMARK    1  A    between atoms: C3_3  and  C4_4 
REMARK    2  A    between atoms: C3_3  and  S1_19 
REMARK    3  A    between atoms: C5_5  and  C6_6 
REMARK    4  A    between atoms: C8_10  and  C9_11 
REMARK    5  A    between atoms: C10_12  and  C11_13 
ROOT
HETATM    1  C6  UNL     1      22.935   0.121  53.539  1.00  0.00     0.064 C 
HETATM    2  N1  UNL     1      22.744  -0.944  54.291  1.00  0.00    -0.266 NA
HETATM    3  C7  UNL     1      21.301  -1.016  54.501  1.00  0.00     0.318 C 
HETATM    4  O1  UNL     1      20.873   0.318  54.401  1.00  0.00    -0.355 OA
HETATM    5  C8  UNL     1      21.628   0.727  53.273  1.00  0.00     0.198 C 
ENDROOT
BRANCH   1   6
HETATM    6  C5  UNL     1      24.416   0.076  53.405  1.00  0.00     0.031 C 
HETATM    7  C4  UNL     1      25.297   0.574  52.511  1.00  0.00     0.023 C 
BRANCH   7   8
HETATM    8  C3  UNL     1      26.558   0.081  53.099  1.00  0.00     0.027 C 
HETATM    9  C2  UNL     1      27.148   1.000  52.245  1.00  0.00    -0.010 C 
HETATM   10  C1  UNL     1      26.379   1.877  51.327  1.00  0.00     0.037 C 
BRANCH   8  11
HETATM   11  S1  UNL     1      28.030  -0.494  53.785  1.00  0.00     0.045 S 
HETATM   12  C16 UNL     1      29.408   0.640  53.703  1.00  0.00     0.133 C 
HETATM   13  O3  UNL     1      28.393  -1.907  53.357  1.00  0.00    -0.253 OA
ENDBRANCH   8  11
ENDBRANCH   7   8
ENDBRANCH   1   6
BRANCH   5  14
HETATM   14  C9  UNL     1      20.977   0.158  52.068  1.00  0.00     0.014 C 
HETATM   15  C10 UNL     1      21.065   0.448  50.792  1.00  0.00     0.036 C 
BRANCH  15  16
HETATM   16  C11 UNL     1      21.864   1.464  50.123  1.00  0.00     0.075 A 
HETATM   17  C12 UNL     1      22.109   1.659  48.781  1.00  0.00     0.039 A 
HETATM   18  C13 UNL     1      22.929   2.749  48.562  1.00  0.00     0.035 A 
HETATM   19  C14 UNL     1      23.149   3.182  49.873  1.00  0.00     0.050 A 
HETATM   20  C15 UNL     1      23.995   4.366  50.233  1.00  0.00     0.076 C 
HETATM   21  O2  UNL     1      22.525   2.421  50.705  1.00  0.00    -0.316 OA
ENDBRANCH  15  16
ENDBRANCH   5  14
TORSDOF 5
ENDMDL
MODEL 6
REMARK VINA RESULT:      -7.1      2.582      6.112
REMARK  5 active torsions:
REMARK  status: ('A' for Active; 'I' for Inactive)
REMARK    1  A    between atoms: C3_3  and  C4_4 
REMARK    2  A    between atoms: C3_3  and  S1_19 
REMARK    3  A    between atoms: C5_5  and  C6_6 
REMARK    4  A    between atoms: C8_10  and  C9_11 
REMARK    5  A    between atoms: C10_12  and  C11_13 
ROOT
HETATM    1  C6  UNL     1      26.097   2.239  52.513  1.00  0.00     0.064 C 
HETATM    2  N1  UNL     1      27.320   2.400  52.049  1.00  0.00    -0.266 NA
HETATM    3  C7  UNL     1      28.203   2.011  53.144  1.00  0.00     0.318 C 
HETATM    4  O1  UNL     1      27.451   2.274  54.301  1.00  0.00    -0.355 OA
HETATM    5  C8  UNL     1      26.196   1.757  53.893  1.00  0.00     0.198 C 
ENDROOT
BRANCH   1   6
HETATM    6  C5  UNL     1      25.315   2.661  51.319  1.00  0.00     0.031 C 
HETATM    7  C4  UNL     1      25.613   3.334  50.187  1.00  0.00     0.023 C 
BRANCH   7   8
HETATM    8  C3  UNL     1      24.287   3.331  49.537  1.00  0.00     0.027 C 
HETATM    9  C2  UNL     1      24.680   4.571  49.056  1.00  0.00    -0.010 C 
HETATM   10  C1  UNL     1      25.995   5.189  49.361  1.00  0.00     0.037 C 
BRANCH   8  11
HETATM   11  S1  UNL     1      22.741   3.328  48.777  1.00  0.00     0.045 S 
HETATM   12  C16 UNL     1      22.067   1.714  48.416  1.00  0.00     0.133 C 
HETATM   13  O3  UNL     1      22.632   4.296  47.609  1.00  0.00    -0.253 OA
ENDBRANCH   8  11
ENDBRANCH   7   8
ENDBRANCH   1   6
BRANCH   5  14
HETATM   14  C9  UNL     1      26.274   0.278  53.969  1.00  0.00     0.014 C 
HETATM   15  C10 UNL     1      25.362  -0.663  53.910  1.00  0.00     0.036 C 
BRANCH  15  16
HETATM   16  C11 UNL     1      23.921  -0.550  53.743  1.00  0.00     0.075 A 
HETATM   17  C12 UNL     1      22.897  -0.954  54.574  1.00  0.00     0.039 A 
HETATM   18  C13 UNL     1      21.658  -0.659  54.041  1.00  0.00     0.035 A 
HETATM   19  C14 UNL     1      22.026  -0.053  52.835  1.00  0.00     0.050 A 
HETATM   20  C15 UNL     1      21.046   0.476  51.831  1.00  0.00     0.076 C 
HETATM   21  O2  UNL     1      23.309  -0.021  52.726  1.00  0.00    -0.316 OA
ENDBRANCH  15  16
ENDBRANCH   5  14
TORSDOF 5
ENDMDL
MODEL 7
REMARK VINA RESULT:      -7.0      2.740      5.764
REMARK  5 active torsions:
REMARK  status: ('A' for Active; 'I' for Inactive)
REMARK    1  A    between atoms: C3_3  and  C4_4 
REMARK    2  A    between atoms: C3_3  and  S1_19 
REMARK    3  A    between atoms: C5_5  and  C6_6 
REMARK    4  A    between atoms: C8_10  and  C9_11 
REMARK    5  A    between atoms: C10_12  and  C11_13 
ROOT
HETATM    1  C6  UNL     1      23.250   2.947  51.719  1.00  0.00     0.064 C 
HETATM    2  N1  UNL     1      22.215   3.145  50.928  1.00  0.00    -0.266 NA
HETATM    3  C7  UNL     1      22.517   4.371  50.195  1.00  0.00     0.318 C 
HETATM    4  O1  UNL     1      23.360   5.088  51.060  1.00  0.00    -0.355 OA
HETATM    5  C8  UNL     1      24.203   4.037  51.498  1.00  0.00     0.198 C 
ENDROOT
BRANCH   1   6
HETATM    6  C5  UNL     1      22.819   1.692  52.392  1.00  0.00     0.031 C 
HETATM    7  C4  UNL     1      23.437   0.783  53.176  1.00  0.00     0.023 C 
BRANCH   7   8
HETATM    8  C3  UNL     1      22.315  -0.146  53.417  1.00  0.00     0.027 C 
HETATM    9  C2  UNL     1      23.242  -0.840  54.180  1.00  0.00    -0.010 C 
HETATM   10  C1  UNL     1      24.648  -0.400  54.360  1.00  0.00     0.037 C 
BRANCH   8  11
HETATM   11  S1  UNL     1      21.006  -1.230  53.699  1.00  0.00     0.045 S 
HETATM   12  C16 UNL     1      19.381  -0.576  53.349  1.00  0.00     0.133 C 
HETATM   13  O3  UNL     1      21.086  -1.950  55.035  1.00  0.00    -0.253 OA
ENDBRANCH   8  11
ENDBRANCH   7   8
ENDBRANCH   1   6
BRANCH   5  14
HETATM   14  C9  UNL     1      25.155   3.740  50.401  1.00  0.00     0.014 C 
HETATM   15  C10 UNL     1      26.228   2.988  50.336  1.00  0.00     0.036 C 
BRANCH  15  16
HETATM   16  C11 UNL     1      26.852   2.170  51.365  1.00  0.00     0.075 A 
HETATM   17  C12 UNL     1      26.701   0.828  51.645  1.00  0.00     0.039 A 
HETATM   18  C13 UNL     1      27.482   0.437  52.715  1.00  0.00     0.035 A 
HETATM   19  C14 UNL     1      28.103   1.646  53.045  1.00  0.00     0.050 A 
HETATM   20  C15 UNL     1      29.084   1.803  54.169  1.00  0.00     0.076 C 
HETATM   21  O2  UNL     1      27.709   2.581  52.252  1.00  0.00    -0.316 OA
ENDBRANCH  15  16
ENDBRANCH   5  14
TORSDOF 5
ENDMDL
MODEL 8
REMARK VINA RESULT:      -6.8      3.545      6.801
REMARK  5 active torsions:
REMARK  status: ('A' for Active; 'I' for Inactive)
REMARK    1  A    between atoms: C3_3  and  C4_4 
REMARK    2  A    between atoms: C3_3  and  S1_19 
REMARK    3  A    between atoms: C5_5  and  C6_6 
REMARK    4  A    between atoms: C8_10  and  C9_11 
REMARK    5  A    between atoms: C10_12  and  C11_13 
ROOT
HETATM    1  C6  UNL     1      25.090   3.576  50.487  1.00  0.00     0.064 C 
HETATM    2  N1  UNL     1      24.012   4.334  50.461  1.00  0.00    -0.266 NA
HETATM    3  C7  UNL     1      22.993   3.580  51.187  1.00  0.00     0.318 C 
HETATM    4  O1  UNL     1      23.367   2.238  51.008  1.00  0.00    -0.355 OA
HETATM    5  C8  UNL     1      24.764   2.349  51.217  1.00  0.00     0.198 C 
ENDROOT
BRANCH   1   6
HETATM    6  C5  UNL     1      26.030   4.446  49.729  1.00  0.00     0.031 C 
HETATM    7  C4  UNL     1      25.876   5.486  48.882  1.00  0.00     0.023 C 
BRANCH   7   8
HETATM    8  C3  UNL     1      27.292   5.774  48.578  1.00  0.00     0.027 C 
HETATM    9  C2  UNL     1      26.786   6.941  48.025  1.00  0.00    -0.010 C 
HETATM   10  C1  UNL     1      25.341   7.282  48.010  1.00  0.00     0.037 C 
BRANCH   8  11
HETATM   11  S1  UNL     1      28.944   6.112  48.224  1.00  0.00     0.045 S 
HETATM   12  C16 UNL     1      29.221   7.396  47.013  1.00  0.00     0.133 C 
HETATM   13  O3  UNL     1      29.783   4.868  47.978  1.00  0.00    -0.253 OA
ENDBRANCH   8  11
ENDBRANCH   7   8
ENDBRANCH   1   6
BRANCH   5  14
HETATM   14  C9  UNL     1      24.989   2.485  52.677  1.00  0.00     0.014 C 
HETATM   15  C10 UNL     1      25.678   1.776  53.538  1.00  0.00     0.036 C 
BRANCH  15  16
HETATM   16  C11 UNL     1      26.478   0.578  53.327  1.00  0.00     0.075 A 
HETATM   17  C12 UNL     1      26.116  -0.654  52.826  1.00  0.00     0.039 A 
HETATM   18  C13 UNL     1      27.185  -1.526  52.789  1.00  0.00     0.035 A 
HETATM   19  C14 UNL     1      28.204  -0.719  53.305  1.00  0.00     0.050 A 
HETATM   20  C15 UNL     1      29.621  -1.175  53.492  1.00  0.00     0.076 C 
HETATM   21  O2  UNL     1      27.745   0.451  53.588  1.00  0.00    -0.316 OA
ENDBRANCH  15  16
ENDBRANCH   5  14
TORSDOF 5
ENDMDL
MODEL 9
REMARK VINA RESULT:      -6.8      3.433      6.978
REMARK  5 active torsions:
REMARK  status: ('A' for Active; 'I' for Inactive)
REMARK    1  A    between atoms: C3_3  and  C4_4 
REMARK    2  A    between atoms: C3_3  and  S1_19 
REMARK    3  A    between atoms: C5_5  and  C6_6 
REMARK    4  A    between atoms: C8_10  and  C9_11 
REMARK    5  A    between atoms: C10_12  and  C11_13 
ROOT
HETATM    1  C6  UNL     1      24.986   3.070  51.027  1.00  0.00     0.064 C 
HETATM    2  N1  UNL     1      23.673   3.155  51.098  1.00  0.00    -0.266 NA
HETATM    3  C7  UNL     1      23.253   1.998  51.885  1.00  0.00     0.318 C 
HETATM    4  O1  UNL     1      24.256   1.043  51.652  1.00  0.00    -0.355 OA
HETATM    5  C8  UNL     1      25.403   1.870  51.756  1.00  0.00     0.198 C 
ENDROOT
BRANCH   1   6
HETATM    6  C5  UNL     1      25.275   4.284  50.216  1.00  0.00     0.031 C 
HETATM    7  C4  UNL     1      26.255   4.631  49.355  1.00  0.00     0.023 C 
BRANCH   7   8
HETATM    8  C3  UNL     1      25.804   5.989  48.994  1.00  0.00     0.027 C 
HETATM    9  C2  UNL     1      27.085   6.123  48.480  1.00  0.00    -0.010 C 
HETATM   10  C1  UNL     1      28.102   5.042  48.524  1.00  0.00     0.037 C 
BRANCH   8  11
HETATM   11  S1  UNL     1      25.278   7.575  48.573  1.00  0.00     0.045 S 
HETATM   12  C16 UNL     1      25.911   8.891  49.602  1.00  0.00     0.133 C 
HETATM   13  O3  UNL     1      23.782   7.678  48.325  1.00  0.00    -0.253 OA
ENDBRANCH   8  11
ENDBRANCH   7   8
ENDBRANCH   1   6
BRANCH   5  14
HETATM   14  C9  UNL     1      25.634   2.137  53.196  1.00  0.00     0.014 C 
HETATM   15  C10 UNL     1      26.552   1.726  54.038  1.00  0.00     0.036 C 
BRANCH  15  16
HETATM   16  C11 UNL     1      27.685   0.841  53.818  1.00  0.00     0.075 A 
HETATM   17  C12 UNL     1      29.035   1.120  53.778  1.00  0.00     0.039 A 
HETATM   18  C13 UNL     1      29.786  -0.014  53.541  1.00  0.00     0.035 A 
HETATM   19  C14 UNL     1      28.781  -0.982  53.443  1.00  0.00     0.050 A 
HETATM   20  C15 UNL     1      29.041  -2.436  53.183  1.00  0.00     0.076 C 
HETATM   21  O2  UNL     1      27.624  -0.440  53.608  1.00  0.00    -0.316 OA
ENDBRANCH  15  16
ENDBRANCH   5  14
TORSDOF 5
ENDMDL
