MODEL 1
REMARK VINA RESULT:      -8.2      0.000      0.000
REMARK  3 active torsions:
REMARK  status: ('A' for Active; 'I' for Inactive)
REMARK    1  A    between atoms: C6_9  and  N2_10 
REMARK       I    between atoms: N2_10  and  C7_11 
REMARK    2  A    between atoms: C7_11  and  C8_13 
REMARK    3  A    between atoms: N3_15  and  C10_16 
ROOT
HETATM    1  N2  UNL     1      25.057  -0.061  52.957  1.00  0.00    -0.344 N 
HETATM    2  C7  UNL     1      23.882   0.530  52.428  1.00  0.00     0.274 C 
HETATM    3  O1  UNL     1      23.919   1.287  51.423  1.00  0.00    -0.266 OA
HETATM    4  H7  UNL     1      25.020  -0.681  53.781  1.00  0.00     0.163 HD
ENDROOT
BRANCH   2   5
HETATM    5  C8  UNL     1      22.574   0.288  53.024  1.00  0.00     0.165 A 
HETATM    6  C9  UNL     1      21.421   0.055  52.293  1.00  0.00     0.159 A 
HETATM    7  N3  UNL     1      20.388  -0.131  53.136  1.00  0.00    -0.224 N 
HETATM    8  N4  UNL     1      20.896  -0.015  54.365  1.00  0.00    -0.060 NA
HETATM    9  N5  UNL     1      22.189   0.233  54.310  1.00  0.00    -0.125 NA
BRANCH   7  10
HETATM   10  C10 UNL     1      19.041  -0.396  52.765  1.00  0.00     0.059 A 
HETATM   11  C11 UNL     1      18.325  -1.431  53.318  1.00  0.00     0.031 A 
HETATM   12  C12 UNL     1      17.016  -1.721  52.985  1.00  0.00     0.002 A 
HETATM   13  C13 UNL     1      16.418  -0.896  52.030  1.00  0.00     0.000 A 
HETATM   14  C14 UNL     1      17.115   0.164  51.448  1.00  0.00     0.002 A 
HETATM   15  C15 UNL     1      18.434   0.410  51.823  1.00  0.00     0.031 A 
ENDBRANCH   7  10
ENDBRANCH   2   5
BRANCH   1  16
HETATM   16  C6  UNL     1      26.352   0.211  52.324  1.00  0.00     0.144 A 
HETATM   17  C2  UNL     1      27.341  -0.855  52.631  1.00  0.00    -0.019 A 
HETATM   18  C1  UNL     1      27.030  -2.247  52.145  1.00  0.00     0.049 C 
HETATM   19  C3  UNL     1      28.489  -0.729  53.297  1.00  0.00     0.110 A 
HETATM   20 CL1  UNL     1      29.515  -2.120  53.552  1.00  0.00    -0.064 Cl
HETATM   21  N1  UNL     1      28.807   0.577  53.768  1.00  0.00    -0.323 N 
HETATM   22  C4  UNL     1      27.968   1.706  53.557  1.00  0.00     0.188 A 
HETATM   23  H4  UNL     1      29.686   0.685  54.280  1.00  0.00     0.169 HD
HETATM   24  F1  UNL     1      28.275   2.947  54.007  1.00  0.00    -0.186 F 
HETATM   25  C5  UNL     1      26.854   1.473  52.887  1.00  0.00     0.064 A 
ENDBRANCH   1  16
TORSDOF 3
ENDMDL
MODEL 2
REMARK VINA RESULT:      -8.2      5.733      8.176
REMARK  3 active torsions:
REMARK  status: ('A' for Active; 'I' for Inactive)
REMARK    1  A    between atoms: C6_9  and  N2_10 
REMARK       I    between atoms: N2_10  and  C7_11 
REMARK    2  A    between atoms: C7_11  and  C8_13 
REMARK    3  A    between atoms: N3_15  and  C10_16 
ROOT
HETATM    1  N2  UNL     1      26.001   4.522  50.466  1.00  0.00    -0.344 N 
HETATM    2  C7  UNL     1      25.172   3.391  50.671  1.00  0.00     0.274 C 
HETATM    3  O1  UNL     1      24.123   3.212  49.999  1.00  0.00    -0.266 OA
HETATM    4  H7  UNL     1      26.860   4.663  51.021  1.00  0.00     0.163 HD
ENDROOT
BRANCH   2   5
HETATM    5  C8  UNL     1      25.496   2.380  51.670  1.00  0.00     0.165 A 
HETATM    6  C9  UNL     1      26.557   1.497  51.561  1.00  0.00     0.159 A 
HETATM    7  N3  UNL     1      26.584   0.695  52.643  1.00  0.00    -0.224 N 
HETATM    8  N4  UNL     1      25.558   1.080  53.405  1.00  0.00    -0.060 NA
HETATM    9  N5  UNL     1      24.907   2.076  52.838  1.00  0.00    -0.125 NA
BRANCH   7  10
HETATM   10  C10 UNL     1      27.526  -0.340  52.897  1.00  0.00     0.059 A 
HETATM   11  C11 UNL     1      28.781  -0.074  53.388  1.00  0.00     0.031 A 
HETATM   12  C12 UNL     1      29.724  -1.050  53.648  1.00  0.00     0.002 A 
HETATM   13  C13 UNL     1      29.346  -2.368  53.385  1.00  0.00     0.000 A 
HETATM   14  C14 UNL     1      28.079  -2.674  52.885  1.00  0.00     0.002 A 
HETATM   15  C15 UNL     1      27.168  -1.648  52.643  1.00  0.00     0.031 A 
ENDBRANCH   7  10
ENDBRANCH   2   5
BRANCH   1  16
HETATM   16  C6  UNL     1      25.635   5.514  49.449  1.00  0.00     0.144 A 
HETATM   17  C2  UNL     1      26.816   6.305  49.014  1.00  0.00    -0.019 A 
HETATM   18  C1  UNL     1      27.940   5.558  48.345  1.00  0.00     0.049 C 
HETATM   19  C3  UNL     1      27.005   7.618  49.145  1.00  0.00     0.110 A 
HETATM   20 CL1  UNL     1      28.476   8.357  48.560  1.00  0.00    -0.064 Cl
HETATM   21  N1  UNL     1      25.956   8.349  49.773  1.00  0.00    -0.323 N 
HETATM   22  C4  UNL     1      24.761   7.742  50.247  1.00  0.00     0.188 A 
HETATM   23  H4  UNL     1      26.091   9.358  49.879  1.00  0.00     0.169 HD
HETATM   24  F1  UNL     1      23.765   8.441  50.845  1.00  0.00    -0.186 F 
HETATM   25  C5  UNL     1      24.672   6.436  50.069  1.00  0.00     0.064 A 
ENDBRANCH   1  16
TORSDOF 3
ENDMDL
MODEL 3
REMARK VINA RESULT:      -8.0      5.289      7.837
REMARK  3 active torsions:
REMARK  status: ('A' for Active; 'I' for Inactive)
REMARK    1  A    between atoms: C6_9  and  N2_10 
REMARK       I    between atoms: N2_10  and  C7_11 
REMARK    2  A    between atoms: C7_11  and  C8_13 
REMARK    3  A    between atoms: N3_15  and  C10_16 
ROOT
HETATM    1  N2  UNL     1      26.798   1.470  52.087  1.00  0.00    -0.344 N 
HETATM    2  C7  UNL     1      25.569   2.097  51.766  1.00  0.00     0.274 C 
HETATM    3  O1  UNL     1      24.495   1.781  52.343  1.00  0.00    -0.266 OA
HETATM    4  H7  UNL     1      27.674   1.734  51.610  1.00  0.00     0.163 HD
ENDROOT
BRANCH   2   5
HETATM    5  C8  UNL     1      25.489   3.140  50.750  1.00  0.00     0.165 A 
HETATM    6  C9  UNL     1      26.583   3.848  50.280  1.00  0.00     0.159 A 
HETATM    7  N3  UNL     1      26.175   4.734  49.352  1.00  0.00    -0.224 N 
HETATM    8  N4  UNL     1      24.854   4.573  49.251  1.00  0.00    -0.060 NA
HETATM    9  N5  UNL     1      24.437   3.632  50.074  1.00  0.00    -0.125 NA
BRANCH   7  10
HETATM   10  C10 UNL     1      27.006   5.642  48.639  1.00  0.00     0.059 A 
HETATM   11  C11 UNL     1      28.339   5.390  48.422  1.00  0.00     0.031 A 
HETATM   12  C12 UNL     1      29.178   6.245  47.735  1.00  0.00     0.002 A 
HETATM   13  C13 UNL     1      28.607   7.422  47.248  1.00  0.00     0.000 A 
HETATM   14  C14 UNL     1      27.256   7.711  47.449  1.00  0.00     0.002 A 
HETATM   15  C15 UNL     1      26.457   6.810  48.150  1.00  0.00     0.031 A 
ENDBRANCH   7  10
ENDBRANCH   2   5
BRANCH   1  16
HETATM   16  C6  UNL     1      26.831   0.425  53.117  1.00  0.00     0.144 A 
HETATM   17  C2  UNL     1      28.215   0.179  53.596  1.00  0.00    -0.019 A 
HETATM   18  C1  UNL     1      28.926   1.322  54.274  1.00  0.00     0.049 C 
HETATM   19  C3  UNL     1      28.919  -0.950  53.498  1.00  0.00     0.110 A 
HETATM   20 CL1  UNL     1      30.545  -1.029  54.132  1.00  0.00    -0.064 Cl
HETATM   21  N1  UNL     1      28.270  -2.046  52.862  1.00  0.00    -0.323 N 
HETATM   22  C4  UNL     1      26.946  -1.975  52.348  1.00  0.00     0.188 A 
HETATM   23  H4  UNL     1      28.801  -2.917  52.782  1.00  0.00     0.169 HD
HETATM   24  F1  UNL     1      26.333  -3.021  51.743  1.00  0.00    -0.186 F 
HETATM   25  C5  UNL     1      26.337  -0.813  52.495  1.00  0.00     0.064 A 
ENDBRANCH   1  16
TORSDOF 3
ENDMDL
MODEL 4
REMARK VINA RESULT:      -7.8      5.712      7.129
REMARK  3 active torsions:
REMARK  status: ('A' for Active; 'I' for Inactive)
REMARK    1  A    between atoms: C6_9  and  N2_10 
REMARK       I    between atoms: N2_10  and  C7_11 
REMARK    2  A    between atoms: C7_11  and  C8_13 
REMARK    3  A    between atoms: N3_15  and  C10_16 
ROOT
HETATM    1  N2  UNL     1      27.324   5.210  49.408  1.00  0.00    -0.344 N 
HETATM    2  C7  UNL     1      26.084   4.538  49.547  1.00  0.00     0.274 C 
HETATM    3  O1  UNL     1      25.047   4.936  48.955  1.00  0.00    -0.266 OA
HETATM    4  H7  UNL     1      28.171   4.877  49.896  1.00  0.00     0.163 HD
ENDROOT
BRANCH   2   5
HETATM    5  C8  UNL     1      25.952   3.351  50.383  1.00  0.00     0.165 A 
HETATM    6  C9  UNL     1      24.741   2.854  50.836  1.00  0.00     0.159 A 
HETATM    7  N3  UNL     1      24.961   1.754  51.581  1.00  0.00    -0.224 N 
HETATM    8  N4  UNL     1      26.283   1.576  51.585  1.00  0.00    -0.060 NA
HETATM    9  N5  UNL     1      26.880   2.515  50.879  1.00  0.00    -0.125 NA
BRANCH   7  10
HETATM   10  C10 UNL     1      23.966   0.962  52.219  1.00  0.00     0.059 A 
HETATM   11  C11 UNL     1      22.656   0.969  51.805  1.00  0.00     0.031 A 
HETATM   12  C12 UNL     1      21.662   0.215  52.398  1.00  0.00     0.002 A 
HETATM   13  C13 UNL     1      22.044  -0.587  53.474  1.00  0.00     0.000 A 
HETATM   14  C14 UNL     1      23.366  -0.619  53.921  1.00  0.00     0.002 A 
HETATM   15  C15 UNL     1      24.328   0.163  53.284  1.00  0.00     0.031 A 
ENDBRANCH   7  10
ENDBRANCH   2   5
BRANCH   1  16
HETATM   16  C6  UNL     1      27.411   6.401  48.555  1.00  0.00     0.144 A 
HETATM   17  C2  UNL     1      28.820   6.831  48.367  1.00  0.00    -0.019 A 
HETATM   18  C1  UNL     1      29.750   5.871  47.673  1.00  0.00     0.049 C 
HETATM   19  C3  UNL     1      29.373   7.985  48.743  1.00  0.00     0.110 A 
HETATM   20 CL1  UNL     1      31.062   8.296  48.424  1.00  0.00    -0.064 Cl
HETATM   21  N1  UNL     1      28.515   8.912  49.401  1.00  0.00    -0.323 N 
HETATM   22  C4  UNL     1      27.140   8.653  49.658  1.00  0.00     0.188 A 
HETATM   23  H4  UNL     1      28.929   9.801  49.694  1.00  0.00     0.169 HD
HETATM   24  F1  UNL     1      26.328   9.539  50.285  1.00  0.00    -0.186 F 
HETATM   25  C5  UNL     1      26.692   7.482  49.246  1.00  0.00     0.064 A 
ENDBRANCH   1  16
TORSDOF 3
ENDMDL
MODEL 5
REMARK VINA RESULT:      -7.8      4.166      7.955
REMARK  3 active torsions:
REMARK  status: ('A' for Active; 'I' for Inactive)
REMARK    1  A    between atoms: C6_9  and  N2_10 
REMARK       I    between atoms: N2_10  and  C7_11 
REMARK    2  A    between atoms: C7_11  and  C8_13 
REMARK    3  A    between atoms: N3_15  and  C10_16 
ROOT
HETATM    1  N2  UNL     1      22.705   1.816  52.092  1.00  0.00    -0.344 N 
HETATM    2  C7  UNL     1      22.604   0.715  52.979  1.00  0.00     0.274 C 
HETATM    3  O1  UNL     1      21.489   0.226  53.299  1.00  0.00    -0.266 OA
HETATM    4  H7  UNL     1      23.622   2.213  51.834  1.00  0.00     0.163 HD
ENDROOT
BRANCH   2   5
HETATM    5  C8  UNL     1      23.788   0.096  53.561  1.00  0.00     0.165 A 
HETATM    6  C9  UNL     1      25.085   0.390  53.175  1.00  0.00     0.159 A 
HETATM    7  N3  UNL     1      25.946  -0.348  53.902  1.00  0.00    -0.224 N 
HETATM    8  N4  UNL     1      25.192  -1.082  54.722  1.00  0.00    -0.060 NA
HETATM    9  N5  UNL     1      23.913  -0.828  54.529  1.00  0.00    -0.125 NA
BRANCH   7  10
HETATM   10  C10 UNL     1      27.364  -0.327  53.796  1.00  0.00     0.059 A 
HETATM   11  C11 UNL     1      28.103   0.771  54.166  1.00  0.00     0.031 A 
HETATM   12  C12 UNL     1      29.480   0.831  54.079  1.00  0.00     0.002 A 
HETATM   13  C13 UNL     1      30.125  -0.304  53.584  1.00  0.00     0.000 A 
HETATM   14  C14 UNL     1      29.405  -1.437  53.200  1.00  0.00     0.002 A 
HETATM   15  C15 UNL     1      28.016  -1.441  53.310  1.00  0.00     0.031 A 
ENDBRANCH   7  10
ENDBRANCH   2   5
BRANCH   1  16
HETATM   16  C6  UNL     1      21.486   2.407  51.529  1.00  0.00     0.144 A 
HETATM   17  C2  UNL     1      21.473   2.315  50.047  1.00  0.00    -0.019 A 
HETATM   18  C1  UNL     1      21.472   0.936  49.440  1.00  0.00     0.049 C 
HETATM   19  C3  UNL     1      21.462   3.322  49.171  1.00  0.00     0.110 A 
HETATM   20 CL1  UNL     1      21.448   2.993  47.456  1.00  0.00    -0.064 Cl
HETATM   21  N1  UNL     1      21.462   4.636  49.719  1.00  0.00    -0.323 N 
HETATM   22  C4  UNL     1      21.473   4.896  51.117  1.00  0.00     0.188 A 
HETATM   23  H4  UNL     1      21.453   5.415  49.056  1.00  0.00     0.169 HD
HETATM   24  F1  UNL     1      21.473   6.150  51.634  1.00  0.00    -0.186 F 
HETATM   25  C5  UNL     1      21.484   3.831  51.898  1.00  0.00     0.064 A 
ENDBRANCH   1  16
TORSDOF 3
ENDMDL
MODEL 6
REMARK VINA RESULT:      -7.8      6.122      7.952
REMARK  3 active torsions:
REMARK  status: ('A' for Active; 'I' for Inactive)
REMARK    1  A    between atoms: C6_9  and  N2_10 
REMARK       I    between atoms: N2_10  and  C7_11 
REMARK    2  A    between atoms: C7_11  and  C8_13 
REMARK    3  A    between atoms: N3_15  and  C10_16 
ROOT
HETATM    1  N2  UNL     1      27.315   5.953  49.329  1.00  0.00    -0.344 N 
HETATM    2  C7  UNL     1      25.947   5.596  49.222  1.00  0.00     0.274 C 
HETATM    3  O1  UNL     1      25.204   6.088  48.334  1.00  0.00    -0.266 OA
HETATM    4  H7  UNL     1      27.919   5.545  50.060  1.00  0.00     0.163 HD
ENDROOT
BRANCH   2   5
HETATM    5  C8  UNL     1      25.337   4.639  50.138  1.00  0.00     0.165 A 
HETATM    6  C9  UNL     1      25.919   3.437  50.502  1.00  0.00     0.159 A 
HETATM    7  N3  UNL     1      25.105   2.787  51.356  1.00  0.00    -0.224 N 
HETATM    8  N4  UNL     1      24.041   3.577  51.515  1.00  0.00    -0.060 NA
HETATM    9  N5  UNL     1      24.168   4.676  50.799  1.00  0.00    -0.125 NA
BRANCH   7  10
HETATM   10  C10 UNL     1      25.355   1.520  51.952  1.00  0.00     0.059 A 
HETATM   11  C11 UNL     1      24.417   0.888  52.733  1.00  0.00     0.031 A 
HETATM   12  C12 UNL     1      24.621  -0.342  53.329  1.00  0.00     0.002 A 
HETATM   13  C13 UNL     1      25.859  -0.947  53.104  1.00  0.00     0.000 A 
HETATM   14  C14 UNL     1      26.834  -0.333  52.316  1.00  0.00     0.002 A 
HETATM   15  C15 UNL     1      26.573   0.908  51.739  1.00  0.00     0.031 A 
ENDBRANCH   7  10
ENDBRANCH   2   5
BRANCH   1  16
HETATM   16  C6  UNL     1      27.887   6.920  48.385  1.00  0.00     0.144 A 
HETATM   17  C2  UNL     1      29.367   6.804  48.320  1.00  0.00    -0.019 A 
HETATM   18  C1  UNL     1      29.937   5.499  47.829  1.00  0.00     0.049 C 
HETATM   19  C3  UNL     1      30.268   7.730  48.649  1.00  0.00     0.110 A 
HETATM   20 CL1  UNL     1      31.974   7.389  48.497  1.00  0.00    -0.064 Cl
HETATM   21  N1  UNL     1      29.755   8.974  49.116  1.00  0.00    -0.323 N 
HETATM   22  C4  UNL     1      28.364   9.246  49.237  1.00  0.00     0.188 A 
HETATM   23  H4  UNL     1      30.438   9.692  49.371  1.00  0.00     0.169 HD
HETATM   24  F1  UNL     1      27.881  10.432  49.682  1.00  0.00    -0.186 F 
HETATM   25  C5  UNL     1      27.556   8.262  48.886  1.00  0.00     0.064 A 
ENDBRANCH   1  16
TORSDOF 3
ENDMDL
MODEL 7
REMARK VINA RESULT:      -7.7      4.474      8.317
REMARK  3 active torsions:
REMARK  status: ('A' for Active; 'I' for Inactive)
REMARK    1  A    between atoms: C6_9  and  N2_10 
REMARK       I    between atoms: N2_10  and  C7_11 
REMARK    2  A    between atoms: C7_11  and  C8_13 
REMARK    3  A    between atoms: N3_15  and  C10_16 
ROOT
HETATM    1  N2  UNL     1      23.028   2.440  51.194  1.00  0.00    -0.344 N 
HETATM    2  C7  UNL     1      24.247   3.046  51.590  1.00  0.00     0.274 C 
HETATM    3  O1  UNL     1      24.579   4.189  51.180  1.00  0.00    -0.266 OA
HETATM    4  H7  UNL     1      22.762   1.503  51.534  1.00  0.00     0.163 HD
ENDROOT
BRANCH   2   5
HETATM    5  C8  UNL     1      25.173   2.374  52.493  1.00  0.00     0.165 A 
HETATM    6  C9  UNL     1      25.946   1.282  52.137  1.00  0.00     0.159 A 
HETATM    7  N3  UNL     1      26.690   0.899  53.192  1.00  0.00    -0.224 N 
HETATM    8  N4  UNL     1      26.381   1.741  54.180  1.00  0.00    -0.060 NA
HETATM    9  N5  UNL     1      25.484   2.619  53.777  1.00  0.00    -0.125 NA
BRANCH   7  10
HETATM   10  C10 UNL     1      27.611  -0.185  53.219  1.00  0.00     0.059 A 
HETATM   11  C11 UNL     1      28.920  -0.016  53.599  1.00  0.00     0.031 A 
HETATM   12  C12 UNL     1      29.845  -1.042  53.638  1.00  0.00     0.002 A 
HETATM   13  C13 UNL     1      29.388  -2.308  53.265  1.00  0.00     0.000 A 
HETATM   14  C14 UNL     1      28.064  -2.515  52.874  1.00  0.00     0.002 A 
HETATM   15  C15 UNL     1      27.176  -1.442  52.854  1.00  0.00     0.031 A 
ENDBRANCH   7  10
ENDBRANCH   2   5
BRANCH   1  16
HETATM   16  C6  UNL     1      22.126   3.154  50.283  1.00  0.00     0.144 A 
HETATM   17  C2  UNL     1      20.737   2.637  50.381  1.00  0.00    -0.019 A 
HETATM   18  C1  UNL     1      20.037   2.783  51.707  1.00  0.00     0.049 C 
HETATM   19  C3  UNL     1      20.020   2.050  49.421  1.00  0.00     0.110 A 
HETATM   20 CL1  UNL     1      18.391   1.512  49.747  1.00  0.00    -0.064 Cl
HETATM   21  N1  UNL     1      20.659   1.901  48.157  1.00  0.00    -0.323 N 
HETATM   22  C4  UNL     1      21.986   2.342  47.899  1.00  0.00     0.188 A 
HETATM   23  H4  UNL     1      20.118   1.452  47.414  1.00  0.00     0.169 HD
HETATM   24  F1  UNL     1      22.589   2.197  46.693  1.00  0.00    -0.186 F 
HETATM   25  C5  UNL     1      22.608   2.910  48.915  1.00  0.00     0.064 A 
ENDBRANCH   1  16
TORSDOF 3
ENDMDL
MODEL 8
REMARK VINA RESULT:      -7.6      2.606      3.613
REMARK  3 active torsions:
REMARK  status: ('A' for Active; 'I' for Inactive)
REMARK    1  A    between atoms: C6_9  and  N2_10 
REMARK       I    between atoms: N2_10  and  C7_11 
REMARK    2  A    between atoms: C7_11  and  C8_13 
REMARK    3  A    between atoms: N3_15  and  C10_16 
ROOT
HETATM    1  N2  UNL     1      22.718   0.360  52.926  1.00  0.00    -0.344 N 
HETATM    2  C7  UNL     1      21.667  -0.014  53.800  1.00  0.00     0.274 C 
HETATM    3  O1  UNL     1      21.851  -0.135  55.039  1.00  0.00    -0.266 OA
HETATM    4  H7  UNL     1      22.560   0.457  51.910  1.00  0.00     0.163 HD
ENDROOT
BRANCH   2   5
HETATM    5  C8  UNL     1      20.321  -0.275  53.304  1.00  0.00     0.165 A 
HETATM    6  C9  UNL     1      19.596  -1.418  53.597  1.00  0.00     0.159 A 
HETATM    7  N3  UNL     1      18.397  -1.355  52.989  1.00  0.00    -0.224 N 
HETATM    8  N4  UNL     1      18.383  -0.192  52.334  1.00  0.00    -0.060 NA
HETATM    9  N5  UNL     1      19.517   0.455  52.513  1.00  0.00    -0.125 NA
BRANCH   7  10
HETATM   10  C10 UNL     1      17.372  -2.339  53.051  1.00  0.00     0.059 A 
HETATM   11  C11 UNL     1      17.535  -3.513  53.747  1.00  0.00     0.031 A 
HETATM   12  C12 UNL     1      16.566  -4.494  53.831  1.00  0.00     0.002 A 
HETATM   13  C13 UNL     1      15.366  -4.245  53.162  1.00  0.00     0.000 A 
HETATM   14  C14 UNL     1      15.166  -3.063  52.447  1.00  0.00     0.002 A 
HETATM   15  C15 UNL     1      16.180  -2.109  52.396  1.00  0.00     0.031 A 
ENDBRANCH   7  10
ENDBRANCH   2   5
BRANCH   1  16
HETATM   16  C6  UNL     1      24.057   0.614  53.469  1.00  0.00     0.144 A 
HETATM   17  C2  UNL     1      24.774   1.649  52.682  1.00  0.00    -0.019 A 
HETATM   18  C1  UNL     1      24.174   3.031  52.646  1.00  0.00     0.049 C 
HETATM   19  C3  UNL     1      25.905   1.503  51.990  1.00  0.00     0.110 A 
HETATM   20 CL1  UNL     1      26.588   2.859  51.126  1.00  0.00    -0.064 Cl
HETATM   21  N1  UNL     1      26.494   0.207  52.007  1.00  0.00    -0.323 N 
HETATM   22  C4  UNL     1      25.933  -0.893  52.713  1.00  0.00     0.188 A 
HETATM   23  H4  UNL     1      27.362   0.084  51.480  1.00  0.00     0.169 HD
HETATM   24  F1  UNL     1      26.497  -2.126  52.726  1.00  0.00    -0.186 F 
HETATM   25  C5  UNL     1      24.813  -0.643  53.365  1.00  0.00     0.064 A 
ENDBRANCH   1  16
TORSDOF 3
ENDMDL
MODEL 9
REMARK VINA RESULT:      -7.5      5.149      8.381
REMARK  3 active torsions:
REMARK  status: ('A' for Active; 'I' for Inactive)
REMARK    1  A    between atoms: C6_9  and  N2_10 
REMARK       I    between atoms: N2_10  and  C7_11 
REMARK    2  A    between atoms: C7_11  and  C8_13 
REMARK    3  A    between atoms: N3_15  and  C10_16 
ROOT
HETATM    1  N2  UNL     1      21.978   1.383  52.134  1.00  0.00    -0.344 N 
HETATM    2  C7  UNL     1      22.471   2.003  50.959  1.00  0.00     0.274 C 
HETATM    3  O1  UNL     1      22.549   1.379  49.868  1.00  0.00    -0.266 OA
HETATM    4  H7  UNL     1      21.916   1.901  53.026  1.00  0.00     0.163 HD
ENDROOT
BRANCH   2   5
HETATM    5  C8  UNL     1      22.909   3.393  50.957  1.00  0.00     0.165 A 
HETATM    6  C9  UNL     1      24.044   3.846  50.305  1.00  0.00     0.159 A 
HETATM    7  N3  UNL     1      24.169   5.173  50.497  1.00  0.00    -0.224 N 
HETATM    8  N4  UNL     1      23.129   5.530  51.253  1.00  0.00    -0.060 NA
HETATM    9  N5  UNL     1      22.377   4.485  51.532  1.00  0.00    -0.125 NA
BRANCH   7  10
HETATM   10  C10 UNL     1      25.207   6.000  49.984  1.00  0.00     0.059 A 
HETATM   11  C11 UNL     1      26.069   5.561  49.009  1.00  0.00     0.031 A 
HETATM   12  C12 UNL     1      27.089   6.332  48.485  1.00  0.00     0.002 A 
HETATM   13  C13 UNL     1      27.221   7.624  48.998  1.00  0.00     0.000 A 
HETATM   14  C14 UNL     1      26.362   8.102  49.989  1.00  0.00     0.002 A 
HETATM   15  C15 UNL     1      25.351   7.279  50.480  1.00  0.00     0.031 A 
ENDBRANCH   7  10
ENDBRANCH   2   5
BRANCH   1  16
HETATM   16  C6  UNL     1      21.547  -0.018  52.089  1.00  0.00     0.144 A 
HETATM   17  C2  UNL     1      20.074  -0.138  52.240  1.00  0.00    -0.019 A 
HETATM   18  C1  UNL     1      19.216   0.497  51.177  1.00  0.00     0.049 C 
HETATM   19  C3  UNL     1      19.406  -0.750  53.219  1.00  0.00     0.110 A 
HETATM   20 CL1  UNL     1      17.659  -0.775  53.209  1.00  0.00    -0.064 Cl
HETATM   21  N1  UNL     1      20.193  -1.359  54.237  1.00  0.00    -0.323 N 
HETATM   22  C4  UNL     1      21.615  -1.335  54.240  1.00  0.00     0.188 A 
HETATM   23  H4  UNL     1      19.691  -1.831  54.993  1.00  0.00     0.169 HD
HETATM   24  F1  UNL     1      22.361  -1.917  55.211  1.00  0.00    -0.186 F 
HETATM   25  C5  UNL     1      22.179  -0.703  53.226  1.00  0.00     0.064 A 
ENDBRANCH   1  16
TORSDOF 3
ENDMDL
