MODEL 1
REMARK VINA RESULT:      -8.8      0.000      0.000
REMARK  7 active torsions:
REMARK  status: ('A' for Active; 'I' for Inactive)
REMARK    1  A    between atoms: C2_2  and  C3_4 
REMARK    2  A    between atoms: C4_6  and  C5_7 
REMARK    3  A    between atoms: C5_7  and  C6_8 
REMARK    4  A    between atoms: C14_20  and  N3_21 
REMARK    5  A    between atoms: C15_23  and  C16_24 
REMARK    6  A    between atoms: C16_24  and  C17_25 
REMARK    7  A    between atoms: C17_25  and  N5_26 
ROOT
HETATM    1  C6  UNL     1      26.856   6.335  48.941  1.00  0.00     0.057 C 
HETATM    2  C7  UNL     1      27.257   5.091  48.707  1.00  0.00     0.026 C 
HETATM    3  C8  UNL     1      26.656   3.840  49.297  1.00  0.00     0.003 C 
HETATM    4  C9  UNL     1      25.863   3.029  50.001  1.00  0.00     0.137 C 
HETATM    5  N1  UNL     1      24.725   3.025  50.899  1.00  0.00    -0.332 N 
HETATM    6  C10 UNL     1      23.381   2.936  50.327  1.00  0.00     0.244 C 
HETATM    7  O1  UNL     1      23.451   2.819  49.053  1.00  0.00    -0.271 OA
HETATM    8  C11 UNL     1      22.034   2.968  51.026  1.00  0.00     0.271 C 
HETATM    9  O2  UNL     1      22.168   3.632  52.240  1.00  0.00    -0.369 OA
HETATM   10  C12 UNL     1      23.407   4.178  52.453  1.00  0.00     0.186 C 
HETATM   11  C13 UNL     1      23.774   5.274  51.493  1.00  0.00     0.143 C 
HETATM   12  N2  UNL     1      23.729   6.158  50.545  1.00  0.00    -0.077 NA
HETATM   13  C14 UNL     1      24.858   7.013  50.214  1.00  0.00     0.720 C 
HETATM   14  N4  UNL     1      25.961   7.093  49.654  1.00  0.00    -0.068 NA
HETATM   15  C15 UNL     1      24.528   3.131  52.362  1.00  0.00     0.123 C 
ENDROOT
BRANCH  15  16
HETATM   16  C16 UNL     1      24.484   1.939  53.137  1.00  0.00     0.058 C 
BRANCH  16  17
HETATM   17  C17 UNL     1      25.428   0.816  53.002  1.00  0.00     0.274 C 
BRANCH  17  18
HETATM   18  N5  UNL     1      26.626   1.170  53.754  1.00  0.00     0.092 N 
HETATM   19  C18 UNL     1      27.033   0.149  54.658  1.00  0.00     0.298 C 
HETATM   20  C19 UNL     1      28.541   0.252  54.937  1.00  0.00     0.198 C 
HETATM   21  O3  UNL     1      28.833   1.612  55.009  1.00  0.00    -0.388 OA
HETATM   22  C20 UNL     1      28.870   2.093  53.697  1.00  0.00     0.198 C 
HETATM   23  C21 UNL     1      27.677   1.642  52.892  1.00  0.00     0.298 C 
ENDBRANCH  17  18
ENDBRANCH  16  17
ENDBRANCH  15  16
BRANCH  13  24
HETATM   24  N3  UNL     1      24.568   8.304  50.770  1.00  0.00    -0.231 N 
HETATM   25  H15 UNL     1      24.956   9.214  50.398  1.00  0.00     0.174 HD
HETATM   26  H16 UNL     1      23.929   8.334  51.598  1.00  0.00     0.174 HD
ENDBRANCH  13  24
BRANCH   1  27
HETATM   27  C5  UNL     1      27.625   7.377  48.225  1.00  0.00     0.090 C 
BRANCH  27  28
HETATM   28  C4  UNL     1      29.065   6.953  48.195  1.00  0.00     0.020 C 
HETATM   29  C3  UNL     1      30.203   7.416  48.683  1.00  0.00     0.123 C 
HETATM   30  F2  UNL     1      29.800   8.547  49.350  1.00  0.00    -0.208 F 
BRANCH  29  31
HETATM   31  C2  UNL     1      31.670   7.461  48.957  1.00  0.00     0.227 C 
HETATM   32  C1  UNL     1      32.400   8.131  47.836  1.00  0.00     0.052 C 
HETATM   33  F1  UNL     1      31.905   8.190  50.129  1.00  0.00    -0.242 F 
ENDBRANCH  29  31
ENDBRANCH  27  28
ENDBRANCH   1  27
TORSDOF 7
ENDMDL
MODEL 2
REMARK VINA RESULT:      -8.3      2.207      2.760
REMARK  7 active torsions:
REMARK  status: ('A' for Active; 'I' for Inactive)
REMARK    1  A    between atoms: C2_2  and  C3_4 
REMARK    2  A    between atoms: C4_6  and  C5_7 
REMARK    3  A    between atoms: C5_7  and  C6_8 
REMARK    4  A    between atoms: C14_20  and  N3_21 
REMARK    5  A    between atoms: C15_23  and  C16_24 
REMARK    6  A    between atoms: C16_24  and  C17_25 
REMARK    7  A    between atoms: C17_25  and  N5_26 
ROOT
HETATM    1  C6  UNL     1      27.107   6.208  48.884  1.00  0.00     0.057 C 
HETATM    2  C7  UNL     1      27.358   4.920  48.685  1.00  0.00     0.026 C 
HETATM    3  C8  UNL     1      26.588   3.765  49.277  1.00  0.00     0.003 C 
HETATM    4  C9  UNL     1      25.680   3.073  49.967  1.00  0.00     0.137 C 
HETATM    5  N1  UNL     1      24.522   3.230  50.826  1.00  0.00    -0.332 N 
HETATM    6  C10 UNL     1      23.196   3.295  50.211  1.00  0.00     0.244 C 
HETATM    7  O1  UNL     1      23.291   3.142  48.942  1.00  0.00    -0.271 OA
HETATM    8  C11 UNL     1      21.842   3.507  50.864  1.00  0.00     0.271 C 
HETATM    9  O2  UNL     1      22.019   4.175  52.070  1.00  0.00    -0.369 OA
HETATM   10  C12 UNL     1      23.309   4.569  52.314  1.00  0.00     0.186 C 
HETATM   11  C13 UNL     1      23.838   5.590  51.348  1.00  0.00     0.143 C 
HETATM   12  N2  UNL     1      23.933   6.452  50.384  1.00  0.00    -0.077 NA
HETATM   13  C14 UNL     1      25.169   7.155  50.077  1.00  0.00     0.720 C 
HETATM   14  N4  UNL     1      26.290   7.086  49.552  1.00  0.00    -0.068 NA
HETATM   15  C15 UNL     1      24.294   3.390  52.280  1.00  0.00     0.123 C 
ENDROOT
BRANCH  15  16
HETATM   16  C16 UNL     1      24.078   2.230  53.074  1.00  0.00     0.058 C 
BRANCH  16  17
HETATM   17  C17 UNL     1      24.459   0.862  52.680  1.00  0.00     0.274 C 
BRANCH  17  18
HETATM   18  N5  UNL     1      23.406  -0.030  53.152  1.00  0.00     0.092 N 
HETATM   19  C18 UNL     1      23.804  -0.806  54.277  1.00  0.00     0.298 C 
HETATM   20  C19 UNL     1      22.575  -1.221  55.101  1.00  0.00     0.198 C 
HETATM   21  O3  UNL     1      21.568  -1.513  54.183  1.00  0.00    -0.388 OA
HETATM   22  C20 UNL     1      21.063  -0.293  53.725  1.00  0.00     0.198 C 
HETATM   23  C21 UNL     1      22.159   0.665  53.330  1.00  0.00     0.298 C 
ENDBRANCH  17  18
ENDBRANCH  16  17
ENDBRANCH  15  16
BRANCH  13  24
HETATM   24  N3  UNL     1      25.024   8.484  50.600  1.00  0.00    -0.231 N 
HETATM   25  H15 UNL     1      25.714   8.945  51.254  1.00  0.00     0.174 HD
HETATM   26  H16 UNL     1      24.175   9.021  50.307  1.00  0.00     0.174 HD
ENDBRANCH  13  24
BRANCH   1  27
HETATM   27  C5  UNL     1      28.021   7.132  48.176  1.00  0.00     0.090 C 
BRANCH  27  28
HETATM   28  C4  UNL     1      29.373   6.482  48.102  1.00  0.00     0.020 C 
HETATM   29  C3  UNL     1      30.580   6.742  48.573  1.00  0.00     0.123 C 
HETATM   30  F2  UNL     1      30.380   7.905  49.275  1.00  0.00    -0.208 F 
BRANCH  29  31
HETATM   31  C2  UNL     1      32.040   6.542  48.812  1.00  0.00     0.227 C 
HETATM   32  C1  UNL     1      32.754   7.855  48.873  1.00  0.00     0.052 C 
HETATM   33  F1  UNL     1      32.229   5.884  50.034  1.00  0.00    -0.242 F 
ENDBRANCH  29  31
ENDBRANCH  27  28
ENDBRANCH   1  27
TORSDOF 7
ENDMDL
MODEL 3
REMARK VINA RESULT:      -8.3      1.886      2.713
REMARK  7 active torsions:
REMARK  status: ('A' for Active; 'I' for Inactive)
REMARK    1  A    between atoms: C2_2  and  C3_4 
REMARK    2  A    between atoms: C4_6  and  C5_7 
REMARK    3  A    between atoms: C5_7  and  C6_8 
REMARK    4  A    between atoms: C14_20  and  N3_21 
REMARK    5  A    between atoms: C15_23  and  C16_24 
REMARK    6  A    between atoms: C16_24  and  C17_25 
REMARK    7  A    between atoms: C17_25  and  N5_26 
ROOT
HETATM    1  C6  UNL     1      26.869   6.347  48.987  1.00  0.00     0.057 C 
HETATM    2  C7  UNL     1      27.259   5.105  48.725  1.00  0.00     0.026 C 
HETATM    3  C8  UNL     1      26.652   3.847  49.293  1.00  0.00     0.003 C 
HETATM    4  C9  UNL     1      25.857   3.028  49.985  1.00  0.00     0.137 C 
HETATM    5  N1  UNL     1      24.723   3.015  50.889  1.00  0.00    -0.332 N 
HETATM    6  C10 UNL     1      23.376   2.949  50.324  1.00  0.00     0.244 C 
HETATM    7  O1  UNL     1      23.437   2.857  49.047  1.00  0.00    -0.271 OA
HETATM    8  C11 UNL     1      22.033   2.977  51.032  1.00  0.00     0.271 C 
HETATM    9  O2  UNL     1      22.179   3.614  52.259  1.00  0.00    -0.369 OA
HETATM   10  C12 UNL     1      23.424   4.146  52.475  1.00  0.00     0.186 C 
HETATM   11  C13 UNL     1      23.794   5.258  51.535  1.00  0.00     0.143 C 
HETATM   12  N2  UNL     1      23.751   6.162  50.606  1.00  0.00    -0.077 NA
HETATM   13  C14 UNL     1      24.885   7.015  50.286  1.00  0.00     0.720 C 
HETATM   14  N4  UNL     1      25.985   7.097  49.720  1.00  0.00    -0.068 NA
HETATM   15  C15 UNL     1      24.537   3.092  52.356  1.00  0.00     0.123 C 
ENDROOT
BRANCH  15  16
HETATM   16  C16 UNL     1      24.487   1.885  53.106  1.00  0.00     0.058 C 
BRANCH  16  17
HETATM   17  C17 UNL     1      25.444   0.773  52.969  1.00  0.00     0.274 C 
BRANCH  17  18
HETATM   18  N5  UNL     1      26.632   1.132  53.735  1.00  0.00     0.092 N 
HETATM   19  C18 UNL     1      27.064   0.090  54.603  1.00  0.00     0.298 C 
HETATM   20  C19 UNL     1      28.569   0.223  54.888  1.00  0.00     0.198 C 
HETATM   21  O3  UNL     1      28.825   1.587  55.008  1.00  0.00    -0.388 OA
HETATM   22  C20 UNL     1      28.849   2.116  53.715  1.00  0.00     0.198 C 
HETATM   23  C21 UNL     1      27.669   1.662  52.892  1.00  0.00     0.298 C 
ENDBRANCH  17  18
ENDBRANCH  16  17
ENDBRANCH  15  16
BRANCH  13  24
HETATM   24  N3  UNL     1      24.608   8.296  50.871  1.00  0.00    -0.231 N 
HETATM   25  H15 UNL     1      24.279   9.140  50.327  1.00  0.00     0.174 HD
HETATM   26  H16 UNL     1      24.745   8.389  51.903  1.00  0.00     0.174 HD
ENDBRANCH  13  24
BRANCH   1  27
HETATM   27  C5  UNL     1      27.643   7.398  48.288  1.00  0.00     0.090 C 
BRANCH  27  28
HETATM   28  C4  UNL     1      26.688   8.201  47.453  1.00  0.00     0.020 C 
HETATM   29  C3  UNL     1      26.639   8.618  46.201  1.00  0.00     0.123 C 
HETATM   30  F2  UNL     1      27.803   8.112  45.675  1.00  0.00    -0.208 F 
BRANCH  29  31
HETATM   31  C2  UNL     1      26.088   9.308  44.997  1.00  0.00     0.227 C 
HETATM   32  C1  UNL     1      26.298   8.482  43.767  1.00  0.00     0.052 C 
HETATM   33  F1  UNL     1      24.712   9.507  45.159  1.00  0.00    -0.242 F 
ENDBRANCH  29  31
ENDBRANCH  27  28
ENDBRANCH   1  27
TORSDOF 7
ENDMDL
MODEL 4
REMARK VINA RESULT:      -7.9      4.952      7.960
REMARK  7 active torsions:
REMARK  status: ('A' for Active; 'I' for Inactive)
REMARK    1  A    between atoms: C2_2  and  C3_4 
REMARK    2  A    between atoms: C4_6  and  C5_7 
REMARK    3  A    between atoms: C5_7  and  C6_8 
REMARK    4  A    between atoms: C14_20  and  N3_21 
REMARK    5  A    between atoms: C15_23  and  C16_24 
REMARK    6  A    between atoms: C16_24  and  C17_25 
REMARK    7  A    between atoms: C17_25  and  N5_26 
ROOT
HETATM    1  C6  UNL     1      24.201  -0.026  53.598  1.00  0.00     0.057 C 
HETATM    2  C7  UNL     1      24.816   0.739  52.705  1.00  0.00     0.026 C 
HETATM    3  C8  UNL     1      24.146   1.608  51.670  1.00  0.00     0.003 C 
HETATM    4  C9  UNL     1      23.200   2.216  50.950  1.00  0.00     0.137 C 
HETATM    5  N1  UNL     1      21.763   2.349  50.817  1.00  0.00    -0.332 N 
HETATM    6  C10 UNL     1      21.082   3.397  51.576  1.00  0.00     0.244 C 
HETATM    7  O1  UNL     1      21.936   4.092  52.231  1.00  0.00    -0.271 OA
HETATM    8  C11 UNL     1      19.600   3.716  51.660  1.00  0.00     0.271 C 
HETATM    9  O2  UNL     1      18.871   2.571  51.359  1.00  0.00    -0.369 OA
HETATM   10  C12 UNL     1      19.634   1.446  51.180  1.00  0.00     0.186 C 
HETATM   11  C13 UNL     1      20.370   0.994  52.410  1.00  0.00     0.143 C 
HETATM   12  N2  UNL     1      20.805   0.895  53.626  1.00  0.00    -0.077 NA
HETATM   13  C14 UNL     1      21.777  -0.108  54.034  1.00  0.00     0.720 C 
HETATM   14  N4  UNL     1      22.969  -0.447  54.033  1.00  0.00    -0.068 NA
HETATM   15  C15 UNL     1      20.695   1.630  50.084  1.00  0.00     0.123 C 
ENDROOT
BRANCH  15  16
HETATM   16  C16 UNL     1      20.335   2.076  48.782  1.00  0.00     0.058 C 
BRANCH  16  17
HETATM   17  C17 UNL     1      21.294   2.363  47.700  1.00  0.00     0.274 C 
BRANCH  17  18
HETATM   18  N5  UNL     1      21.304   3.809  47.508  1.00  0.00     0.092 N 
HETATM   19  C18 UNL     1      20.142   4.443  48.030  1.00  0.00     0.298 C 
HETATM   20  C19 UNL     1      20.445   5.908  48.382  1.00  0.00     0.198 C 
HETATM   21  O3  UNL     1      21.293   6.382  47.384  1.00  0.00    -0.388 OA
HETATM   22  C20 UNL     1      22.567   5.875  47.652  1.00  0.00     0.198 C 
HETATM   23  C21 UNL     1      22.541   4.397  47.948  1.00  0.00     0.298 C 
ENDBRANCH  17  18
ENDBRANCH  16  17
ENDBRANCH  15  16
BRANCH  13  24
HETATM   24  N3  UNL     1      21.043  -1.128  54.728  1.00  0.00    -0.231 N 
HETATM   25  H15 UNL     1      20.665  -1.026  55.710  1.00  0.00     0.174 HD
HETATM   26  H16 UNL     1      20.878  -2.026  54.219  1.00  0.00     0.174 HD
ENDBRANCH  13  24
BRANCH   1  27
HETATM   27  C5  UNL     1      25.106  -0.775  54.499  1.00  0.00     0.090 C 
BRANCH  27  28
HETATM   28  C4  UNL     1      26.357   0.036  54.679  1.00  0.00     0.020 C 
HETATM   29  C3  UNL     1      27.603  -0.029  54.244  1.00  0.00     0.123 C 
HETATM   30  F2  UNL     1      27.581  -1.151  53.451  1.00  0.00    -0.208 F 
BRANCH  29  31
HETATM   31  C2  UNL     1      29.031   0.374  54.083  1.00  0.00     0.227 C 
HETATM   32  C1  UNL     1      29.869  -0.789  53.655  1.00  0.00     0.052 C 
HETATM   33  F1  UNL     1      29.130   1.368  53.102  1.00  0.00    -0.242 F 
ENDBRANCH  29  31
ENDBRANCH  27  28
ENDBRANCH   1  27
TORSDOF 7
ENDMDL
MODEL 5
REMARK VINA RESULT:      -7.8      3.410      5.371
REMARK  7 active torsions:
REMARK  status: ('A' for Active; 'I' for Inactive)
REMARK    1  A    between atoms: C2_2  and  C3_4 
REMARK    2  A    between atoms: C4_6  and  C5_7 
REMARK    3  A    between atoms: C5_7  and  C6_8 
REMARK    4  A    between atoms: C14_20  and  N3_21 
REMARK    5  A    between atoms: C15_23  and  C16_24 
REMARK    6  A    between atoms: C16_24  and  C17_25 
REMARK    7  A    between atoms: C17_25  and  N5_26 
ROOT
HETATM    1  C6  UNL     1      31.006   7.049  48.642  1.00  0.00     0.057 C 
HETATM    2  C7  UNL     1      30.353   5.992  48.175  1.00  0.00     0.026 C 
HETATM    3  C8  UNL     1      28.855   5.812  48.158  1.00  0.00     0.003 C 
HETATM    4  C9  UNL     1      27.551   6.050  48.320  1.00  0.00     0.137 C 
HETATM    5  N1  UNL     1      26.613   7.047  48.797  1.00  0.00    -0.332 N 
HETATM    6  C10 UNL     1      26.115   8.050  47.855  1.00  0.00     0.244 C 
HETATM    7  O1  UNL     1      26.588   7.827  46.685  1.00  0.00    -0.271 OA
HETATM    8  C11 UNL     1      25.183   9.222  48.102  1.00  0.00     0.271 C 
HETATM    9  O2  UNL     1      25.253   9.586  49.441  1.00  0.00    -0.369 OA
HETATM   10  C12 UNL     1      26.197   8.902  50.163  1.00  0.00     0.186 C 
HETATM   11  C13 UNL     1      27.613   9.155  49.729  1.00  0.00     0.143 C 
HETATM   12  N2  UNL     1      28.658   9.624  49.121  1.00  0.00    -0.077 NA
HETATM   13  C14 UNL     1      30.007   9.166  49.411  1.00  0.00     0.720 C 
HETATM   14  N4  UNL     1      30.847   8.268  49.252  1.00  0.00    -0.068 NA
HETATM   15  C15 UNL     1      25.991   7.380  50.099  1.00  0.00     0.123 C 
ENDROOT
BRANCH  15  16
HETATM   16  C16 UNL     1      24.738   6.795  50.431  1.00  0.00     0.058 C 
BRANCH  16  17
HETATM   17  C17 UNL     1      24.274   5.481  49.952  1.00  0.00     0.274 C 
BRANCH  17  18
HETATM   18  N5  UNL     1      24.908   4.470  50.790  1.00  0.00     0.092 N 
HETATM   19  C18 UNL     1      24.006   3.874  51.715  1.00  0.00     0.298 C 
HETATM   20  C19 UNL     1      24.490   2.467  52.102  1.00  0.00     0.198 C 
HETATM   21  O3  UNL     1      25.877   2.544  52.202  1.00  0.00    -0.388 OA
HETATM   22  C20 UNL     1      26.383   2.546  50.899  1.00  0.00     0.198 C 
HETATM   23  C21 UNL     1      25.658   3.523  50.008  1.00  0.00     0.298 C 
ENDBRANCH  17  18
ENDBRANCH  16  17
ENDBRANCH  15  16
BRANCH  13  24
HETATM   24  N3  UNL     1      30.619  10.184  50.217  1.00  0.00    -0.231 N 
HETATM   25  H15 UNL     1      31.470  10.032  50.824  1.00  0.00     0.174 HD
HETATM   26  H16 UNL     1      30.186  11.136  50.193  1.00  0.00     0.174 HD
ENDBRANCH  13  24
BRANCH   1  27
HETATM   27  C5  UNL     1      32.480   6.961  48.532  1.00  0.00     0.090 C 
BRANCH  27  28
HETATM   28  C4  UNL     1      32.861   5.509  48.529  1.00  0.00     0.020 C 
HETATM   29  C3  UNL     1      33.868   4.791  48.064  1.00  0.00     0.123 C 
HETATM   30  F2  UNL     1      34.667   5.745  47.482  1.00  0.00    -0.208 F 
BRANCH  29  31
HETATM   31  C2  UNL     1      34.677   3.568  47.784  1.00  0.00     0.227 C 
HETATM   32  C1  UNL     1      33.814   2.346  47.792  1.00  0.00     0.052 C 
HETATM   33  F1  UNL     1      35.268   3.677  46.519  1.00  0.00    -0.242 F 
ENDBRANCH  29  31
ENDBRANCH  27  28
ENDBRANCH   1  27
TORSDOF 7
ENDMDL
MODEL 6
REMARK VINA RESULT:      -7.7      4.500      8.332
REMARK  7 active torsions:
REMARK  status: ('A' for Active; 'I' for Inactive)
REMARK    1  A    between atoms: C2_2  and  C3_4 
REMARK    2  A    between atoms: C4_6  and  C5_7 
REMARK    3  A    between atoms: C5_7  and  C6_8 
REMARK    4  A    between atoms: C14_20  and  N3_21 
REMARK    5  A    between atoms: C15_23  and  C16_24 
REMARK    6  A    between atoms: C16_24  and  C17_25 
REMARK    7  A    between atoms: C17_25  and  N5_26 
ROOT
HETATM    1  C6  UNL     1      26.876   7.277  49.091  1.00  0.00     0.057 C 
HETATM    2  C7  UNL     1      27.170   6.026  48.759  1.00  0.00     0.026 C 
HETATM    3  C8  UNL     1      28.521   5.521  48.316  1.00  0.00     0.003 C 
HETATM    4  C9  UNL     1      29.815   5.491  47.992  1.00  0.00     0.137 C 
HETATM    5  N1  UNL     1      30.998   6.324  47.898  1.00  0.00    -0.332 N 
HETATM    6  C10 UNL     1      31.862   6.452  49.072  1.00  0.00     0.244 C 
HETATM    7  O1  UNL     1      31.421   5.718  50.025  1.00  0.00    -0.271 OA
HETATM    8  C11 UNL     1      33.113   7.292  49.259  1.00  0.00     0.271 C 
HETATM    9  O2  UNL     1      33.079   8.362  48.373  1.00  0.00    -0.369 OA
HETATM   10  C12 UNL     1      31.916   8.464  47.654  1.00  0.00     0.186 C 
HETATM   11  C13 UNL     1      30.697   8.749  48.485  1.00  0.00     0.143 C 
HETATM   12  N2  UNL     1      29.910   9.015  49.480  1.00  0.00    -0.077 NA
HETATM   13  C14 UNL     1      28.469   9.142  49.331  1.00  0.00     0.720 C 
HETATM   14  N4  UNL     1      27.391   8.545  49.193  1.00  0.00    -0.068 NA
HETATM   15  C15 UNL     1      31.608   7.185  46.859  1.00  0.00     0.123 C 
ENDROOT
BRANCH  15  16
HETATM   16  C16 UNL     1      32.571   6.620  45.977  1.00  0.00     0.058 C 
BRANCH  16  17
HETATM   17  C17 UNL     1      32.483   5.268  45.397  1.00  0.00     0.274 C 
BRANCH  17  18
HETATM   18  N5  UNL     1      33.410   4.422  46.140  1.00  0.00     0.092 N 
HETATM   19  C18 UNL     1      34.431   5.165  46.797  1.00  0.00     0.298 C 
HETATM   20  C19 UNL     1      34.961   4.386  48.011  1.00  0.00     0.198 C 
HETATM   21  O3  UNL     1      35.000   3.047  47.630  1.00  0.00    -0.388 OA
HETATM   22  C20 UNL     1      33.688   2.568  47.680  1.00  0.00     0.198 C 
HETATM   23  C21 UNL     1      32.717   3.496  46.995  1.00  0.00     0.298 C 
ENDBRANCH  17  18
ENDBRANCH  16  17
ENDBRANCH  15  16
BRANCH  13  24
HETATM   24  N3  UNL     1      28.179  10.547  49.355  1.00  0.00    -0.231 N 
HETATM   25  H15 UNL     1      27.203  10.954  49.376  1.00  0.00     0.174 HD
HETATM   26  H16 UNL     1      28.994  11.202  49.351  1.00  0.00     0.174 HD
ENDBRANCH  13  24
BRANCH   1  27
HETATM   27  C5  UNL     1      25.467   7.495  49.492  1.00  0.00     0.090 C 
BRANCH  27  28
HETATM   28  C4  UNL     1      24.882   6.166  49.874  1.00  0.00     0.020 C 
HETATM   29  C3  UNL     1      24.292   5.660  50.942  1.00  0.00     0.123 C 
HETATM   30  F2  UNL     1      24.285   6.725  51.810  1.00  0.00    -0.208 F 
BRANCH  29  31
HETATM   31  C2  UNL     1      23.620   4.630  51.789  1.00  0.00     0.227 C 
HETATM   32  C1  UNL     1      24.403   3.354  51.797  1.00  0.00     0.052 C 
HETATM   33  F1  UNL     1      23.529   5.094  53.107  1.00  0.00    -0.242 F 
ENDBRANCH  29  31
ENDBRANCH  27  28
ENDBRANCH   1  27
TORSDOF 7
ENDMDL
MODEL 7
REMARK VINA RESULT:      -7.5      5.059      8.032
REMARK  7 active torsions:
REMARK  status: ('A' for Active; 'I' for Inactive)
REMARK    1  A    between atoms: C2_2  and  C3_4 
REMARK    2  A    between atoms: C4_6  and  C5_7 
REMARK    3  A    between atoms: C5_7  and  C6_8 
REMARK    4  A    between atoms: C14_20  and  N3_21 
REMARK    5  A    between atoms: C15_23  and  C16_24 
REMARK    6  A    between atoms: C16_24  and  C17_25 
REMARK    7  A    between atoms: C17_25  and  N5_26 
ROOT
HETATM    1  C6  UNL     1      24.894   2.016  53.319  1.00  0.00     0.057 C 
HETATM    2  C7  UNL     1      24.556   0.765  53.032  1.00  0.00     0.026 C 
HETATM    3  C8  UNL     1      23.257   0.318  52.409  1.00  0.00     0.003 C 
HETATM    4  C9  UNL     1      22.038   0.352  51.866  1.00  0.00     0.137 C 
HETATM    5  N1  UNL     1      20.981   1.259  51.465  1.00  0.00    -0.332 N 
HETATM    6  C10 UNL     1      20.998   1.801  50.107  1.00  0.00     0.244 C 
HETATM    7  O1  UNL     1      21.982   1.309  49.449  1.00  0.00    -0.271 OA
HETATM    8  C11 UNL     1      20.057   2.799  49.457  1.00  0.00     0.271 C 
HETATM    9  O2  UNL     1      19.465   3.576  50.445  1.00  0.00    -0.369 OA
HETATM   10  C12 UNL     1      19.941   3.342  51.709  1.00  0.00     0.186 C 
HETATM   11  C13 UNL     1      21.388   3.700  51.901  1.00  0.00     0.143 C 
HETATM   12  N2  UNL     1      22.594   4.134  51.705  1.00  0.00    -0.077 NA
HETATM   13  C14 UNL     1      23.635   4.047  52.717  1.00  0.00     0.720 C 
HETATM   14  N4  UNL     1      24.451   3.315  53.296  1.00  0.00    -0.068 NA
HETATM   15  C15 UNL     1      19.802   1.869  52.122  1.00  0.00     0.123 C 
ENDROOT
BRANCH  15  16
HETATM   16  C16 UNL     1      18.549   1.201  52.042  1.00  0.00     0.058 C 
BRANCH  16  17
HETATM   17  C17 UNL     1      18.259   0.069  51.144  1.00  0.00     0.274 C 
BRANCH  17  18
HETATM   18  N5  UNL     1      17.294   0.540  50.158  1.00  0.00     0.092 N 
HETATM   19  C18 UNL     1      16.523  -0.514  49.592  1.00  0.00     0.298 C 
HETATM   20  C19 UNL     1      15.174   0.023  49.086  1.00  0.00     0.198 C 
HETATM   21  O3  UNL     1      15.434   1.274  48.532  1.00  0.00    -0.388 OA
HETATM   22  C20 UNL     1      15.587   2.170  49.594  1.00  0.00     0.198 C 
HETATM   23  C21 UNL     1      16.509   1.636  50.660  1.00  0.00     0.298 C 
ENDBRANCH  17  18
ENDBRANCH  16  17
ENDBRANCH  15  16
BRANCH  13  24
HETATM   24  N3  UNL     1      23.772   5.363  53.275  1.00  0.00    -0.231 N 
HETATM   25  H15 UNL     1      22.966   6.026  53.442  1.00  0.00     0.174 HD
HETATM   26  H16 UNL     1      24.737   5.674  53.530  1.00  0.00     0.174 HD
ENDBRANCH  13  24
BRANCH   1  27
HETATM   27  C5  UNL     1      26.235   2.170  53.926  1.00  0.00     0.090 C 
BRANCH  27  28
HETATM   28  C4  UNL     1      26.897   0.822  53.940  1.00  0.00     0.020 C 
HETATM   29  C3  UNL     1      28.139   0.373  53.951  1.00  0.00     0.123 C 
HETATM   30  F2  UNL     1      28.874   1.534  53.956  1.00  0.00    -0.208 F 
BRANCH  29  31
HETATM   31  C2  UNL     1      29.243  -0.632  53.964  1.00  0.00     0.227 C 
HETATM   32  C1  UNL     1      28.877  -1.836  53.154  1.00  0.00     0.052 C 
HETATM   33  F1  UNL     1      30.398  -0.067  53.409  1.00  0.00    -0.242 F 
ENDBRANCH  29  31
ENDBRANCH  27  28
ENDBRANCH   1  27
TORSDOF 7
ENDMDL
MODEL 8
REMARK VINA RESULT:      -7.4      4.718      9.016
REMARK  7 active torsions:
REMARK  status: ('A' for Active; 'I' for Inactive)
REMARK    1  A    between atoms: C2_2  and  C3_4 
REMARK    2  A    between atoms: C4_6  and  C5_7 
REMARK    3  A    between atoms: C5_7  and  C6_8 
REMARK    4  A    between atoms: C14_20  and  N3_21 
REMARK    5  A    between atoms: C15_23  and  C16_24 
REMARK    6  A    between atoms: C16_24  and  C17_25 
REMARK    7  A    between atoms: C17_25  and  N5_26 
ROOT
HETATM    1  C6  UNL     1      26.610   5.513  49.252  1.00  0.00     0.057 C 
HETATM    2  C7  UNL     1      27.636   5.038  48.557  1.00  0.00     0.026 C 
HETATM    3  C8  UNL     1      28.754   5.855  47.957  1.00  0.00     0.003 C 
HETATM    4  C9  UNL     1      29.515   6.896  47.614  1.00  0.00     0.137 C 
HETATM    5  N1  UNL     1      29.626   8.336  47.750  1.00  0.00    -0.332 N 
HETATM    6  C10 UNL     1      30.363   8.878  48.891  1.00  0.00     0.244 C 
HETATM    7  O1  UNL     1      30.856   7.924  49.591  1.00  0.00    -0.271 OA
HETATM    8  C11 UNL     1      30.581  10.325  49.296  1.00  0.00     0.271 C 
HETATM    9  O2  UNL     1      29.557  11.103  48.771  1.00  0.00    -0.369 OA
HETATM   10  C12 UNL     1      28.572  10.390  48.137  1.00  0.00     0.186 C 
HETATM   11  C13 UNL     1      27.794   9.473  49.038  1.00  0.00     0.143 C 
HETATM   12  N2  UNL     1      27.342   8.852  50.083  1.00  0.00    -0.077 NA
HETATM   13  C14 UNL     1      26.302   7.839  50.006  1.00  0.00     0.720 C 
HETATM   14  N4  UNL     1      26.027   6.665  49.718  1.00  0.00    -0.068 NA
HETATM   15  C15 UNL     1      29.126   9.513  47.003  1.00  0.00     0.123 C 
ENDROOT
BRANCH  15  16
HETATM   16  C16 UNL     1      29.936  10.069  45.974  1.00  0.00     0.058 C 
BRANCH  16  17
HETATM   17  C17 UNL     1      30.703   9.280  44.994  1.00  0.00     0.274 C 
BRANCH  17  18
HETATM   18  N5  UNL     1      32.114   9.432  45.331  1.00  0.00     0.092 N 
HETATM   19  C18 UNL     1      32.378  10.612  46.082  1.00  0.00     0.298 C 
HETATM   20  C19 UNL     1      33.651  10.436  46.924  1.00  0.00     0.198 C 
HETATM   21  O3  UNL     1      34.545   9.716  46.136  1.00  0.00    -0.388 OA
HETATM   22  C20 UNL     1      34.135   8.380  46.164  1.00  0.00     0.198 C 
HETATM   23  C21 UNL     1      32.655   8.234  45.913  1.00  0.00     0.298 C 
ENDBRANCH  17  18
ENDBRANCH  16  17
ENDBRANCH  15  16
BRANCH  13  24
HETATM   24  N3  UNL     1      25.090   8.463  50.454  1.00  0.00    -0.231 N 
HETATM   25  H15 UNL     1      24.141   7.999  50.441  1.00  0.00     0.174 HD
HETATM   26  H16 UNL     1      25.164   9.442  50.815  1.00  0.00     0.174 HD
ENDBRANCH  13  24
BRANCH   1  27
HETATM   27  C5  UNL     1      25.657   4.484  49.727  1.00  0.00     0.090 C 
BRANCH  27  28
HETATM   28  C4  UNL     1      26.444   3.396  50.398  1.00  0.00     0.020 C 
HETATM   29  C3  UNL     1      26.176   2.397  51.220  1.00  0.00     0.123 C 
HETATM   30  F2  UNL     1      24.819   2.518  51.400  1.00  0.00    -0.208 F 
BRANCH  29  31
HETATM   31  C2  UNL     1      26.447   1.206  52.079  1.00  0.00     0.227 C 
HETATM   32  C1  UNL     1      25.221   0.808  52.839  1.00  0.00     0.052 C 
HETATM   33  F1  UNL     1      26.832   0.127  51.276  1.00  0.00    -0.242 F 
ENDBRANCH  29  31
ENDBRANCH  27  28
ENDBRANCH   1  27
TORSDOF 7
ENDMDL
MODEL 9
REMARK VINA RESULT:      -7.3      5.557      8.584
REMARK  7 active torsions:
REMARK  status: ('A' for Active; 'I' for Inactive)
REMARK    1  A    between atoms: C2_2  and  C3_4 
REMARK    2  A    between atoms: C4_6  and  C5_7 
REMARK    3  A    between atoms: C5_7  and  C6_8 
REMARK    4  A    between atoms: C14_20  and  N3_21 
REMARK    5  A    between atoms: C15_23  and  C16_24 
REMARK    6  A    between atoms: C16_24  and  C17_25 
REMARK    7  A    between atoms: C17_25  and  N5_26 
ROOT
HETATM    1  C6  UNL     1      23.036   0.268  53.148  1.00  0.00     0.057 C 
HETATM    2  C7  UNL     1      22.012  -0.413  52.649  1.00  0.00     0.026 C 
HETATM    3  C8  UNL     1      20.934   0.138  51.749  1.00  0.00     0.003 C 
HETATM    4  C9  UNL     1      20.222   0.984  51.001  1.00  0.00     0.137 C 
HETATM    5  N1  UNL     1      20.186   2.356  50.532  1.00  0.00    -0.332 N 
HETATM    6  C10 UNL     1      20.863   2.687  49.279  1.00  0.00     0.244 C 
HETATM    7  O1  UNL     1      21.361   1.629  48.754  1.00  0.00    -0.271 OA
HETATM    8  C11 UNL     1      21.023   4.035  48.599  1.00  0.00     0.271 C 
HETATM    9  O2  UNL     1      20.921   5.040  49.553  1.00  0.00    -0.369 OA
HETATM   10  C12 UNL     1      20.820   4.587  50.843  1.00  0.00     0.186 C 
HETATM   11  C13 UNL     1      22.034   3.854  51.338  1.00  0.00     0.143 C 
HETATM   12  N2  UNL     1      23.217   3.329  51.422  1.00  0.00    -0.077 NA
HETATM   13  C14 UNL     1      23.666   2.584  52.587  1.00  0.00     0.720 C 
HETATM   14  N4  UNL     1      23.613   1.512  53.208  1.00  0.00    -0.068 NA
HETATM   15  C15 UNL     1      19.631   3.633  51.035  1.00  0.00     0.123 C 
ENDROOT
BRANCH  15  16
HETATM   16  C16 UNL     1      18.316   4.012  50.645  1.00  0.00     0.058 C 
BRANCH  16  17
HETATM   17  C17 UNL     1      17.133   3.955  51.522  1.00  0.00     0.274 C 
BRANCH  17  18
HETATM   18  N5  UNL     1      16.581   2.610  51.410  1.00  0.00     0.092 N 
HETATM   19  C18 UNL     1      15.363   2.452  52.130  1.00  0.00     0.298 C 
HETATM   20  C19 UNL     1      14.522   1.322  51.514  1.00  0.00     0.198 C 
HETATM   21  O3  UNL     1      15.420   0.325  51.140  1.00  0.00    -0.388 OA
HETATM   22  C20 UNL     1      16.031   0.747  49.956  1.00  0.00     0.198 C 
HETATM   23  C21 UNL     1      16.514   2.173  50.041  1.00  0.00     0.298 C 
ENDBRANCH  17  18
ENDBRANCH  16  17
ENDBRANCH  15  16
BRANCH  13  24
HETATM   24  N3  UNL     1      24.533   3.460  53.322  1.00  0.00    -0.231 N 
HETATM   25  H15 UNL     1      24.602   3.484  54.376  1.00  0.00     0.174 HD
HETATM   26  H16 UNL     1      25.132   4.114  52.766  1.00  0.00     0.174 HD
ENDBRANCH  13  24
BRANCH   1  27
HETATM   27  C5  UNL     1      23.947  -0.524  54.004  1.00  0.00     0.090 C 
BRANCH  27  28
HETATM   28  C4  UNL     1      25.293  -0.563  53.339  1.00  0.00     0.020 C 
HETATM   29  C3  UNL     1      26.525  -0.217  53.666  1.00  0.00     0.123 C 
HETATM   30  F2  UNL     1      26.368   0.268  54.942  1.00  0.00    -0.208 F 
BRANCH  29  31
HETATM   31  C2  UNL     1      27.997  -0.030  53.498  1.00  0.00     0.227 C 
HETATM   32  C1  UNL     1      28.671   0.115  54.825  1.00  0.00     0.052 C 
HETATM   33  F1  UNL     1      28.540  -1.147  52.852  1.00  0.00    -0.242 F 
ENDBRANCH  29  31
ENDBRANCH  27  28
ENDBRANCH   1  27
TORSDOF 7
ENDMDL
