MODEL 1
REMARK VINA RESULT:      -8.7      0.000      0.000
REMARK  5 active torsions:
REMARK  status: ('A' for Active; 'I' for Inactive)
REMARK    1  A    between atoms: C8_11  and  C9_12 
REMARK    2  A    between atoms: C10_13  and  O3_14 
REMARK    3  A    between atoms: C12_16  and  C13_17 
REMARK    4  A    between atoms: C15_21  and  C16_22 
REMARK    5  A    between atoms: C16_22  and  N1_23 
ROOT
HETATM    1  C1  UNL     1      22.452   4.105  48.388  1.00  0.00     0.000 C 
HETATM    2  O1  UNL     1      22.120   3.749  49.674  1.00  0.00     0.000 OA
HETATM    3  C2  UNL     1      22.830   3.156  50.670  1.00  0.00     0.011 A 
HETATM    4  C3  UNL     1      24.115   2.834  50.394  1.00  0.00     0.049 A 
HETATM    5  C4  UNL     1      25.109   2.214  51.175  1.00  0.00     0.127 A 
HETATM    6  C5  UNL     1      23.796   2.490  51.648  1.00  0.00     0.056 A 
HETATM    7  C6  UNL     1      22.478   2.804  52.014  1.00  0.00     0.096 A 
HETATM    8  C7  UNL     1      21.567   3.415  51.096  1.00  0.00     0.072 A 
HETATM    9  S1  UNL     1      20.447   2.972  52.391  1.00  0.00    -0.026 S 
HETATM   10  O2  UNL     1      19.100   3.532  52.032  1.00  0.00    -0.268 OA
HETATM   11  C8  UNL     1      20.277   1.150  52.542  1.00  0.00     0.116 C 
HETATM   12  C11 UNL     1      21.316   0.451  53.241  1.00  0.00     0.004 C 
HETATM   13  C12 UNL     1      22.516   0.006  53.730  1.00  0.00    -0.012 C 
HETATM   14  C14 UNL     1      23.948   0.145  53.643  1.00  0.00     0.067 C 
HETATM   15  C15 UNL     1      25.173   0.563  53.244  1.00  0.00    -0.010 C 
HETATM   16  C19 UNL     1      25.848   1.471  52.245  1.00  0.00     0.089 A 
HETATM   17  O6  UNL     1      26.520   2.181  51.486  1.00  0.00    -0.333 OA
ENDROOT
BRANCH  11  18
HETATM   18  C9  UNL     1      19.786   0.550  51.281  1.00  0.00     0.018 C 
HETATM   19  C10 UNL     1      18.517   0.229  50.963  1.00  0.00     0.128 C 
BRANCH  19  20
HETATM   20  O3  UNL     1      17.887   0.628  52.137  1.00  0.00    -0.373 OA
HETATM   21  H10 UNL     1      18.301   1.078  52.917  1.00  0.00     0.216 HD
ENDBRANCH  19  20
ENDBRANCH  11  18
BRANCH  13  22
HETATM   22  C13 UNL     1      22.565  -1.105  54.722  1.00  0.00     0.150 A 
HETATM   23  O4  UNL     1      21.969  -2.140  55.044  1.00  0.00    -0.188 OA
HETATM   24  O5  UNL     1      23.046  -1.820  55.783  1.00  0.00     0.000 OA
HETATM   25  H12 UNL     1      23.995  -1.766  56.166  1.00  0.00     0.000 HD
ENDBRANCH  13  22
BRANCH  15  26
HETATM   26  C16 UNL     1      26.213  -0.115  54.034  1.00  0.00     0.309 C 
BRANCH  26  27
HETATM   27  N1  UNL     1      27.369  -0.558  53.317  1.00  0.00     0.083 N 
HETATM   28  C17 UNL     1      28.625  -0.500  54.001  1.00  0.00     0.309 C 
HETATM   29  C18 UNL     1      27.166  -1.908  52.832  1.00  0.00     0.309 C 
ENDBRANCH  26  27
ENDBRANCH  15  26
TORSDOF 5
ENDMDL
MODEL 2
REMARK VINA RESULT:      -8.4      1.475      4.554
REMARK  5 active torsions:
REMARK  status: ('A' for Active; 'I' for Inactive)
REMARK    1  A    between atoms: C8_11  and  C9_12 
REMARK    2  A    between atoms: C10_13  and  O3_14 
REMARK    3  A    between atoms: C12_16  and  C13_17 
REMARK    4  A    between atoms: C15_21  and  C16_22 
REMARK    5  A    between atoms: C16_22  and  N1_23 
ROOT
HETATM    1  C1  UNL     1      18.205   0.723  51.890  1.00  0.00     0.000 C 
HETATM    2  O1  UNL     1      19.367   0.828  51.162  1.00  0.00     0.000 OA
HETATM    3  C2  UNL     1      20.663   0.553  51.466  1.00  0.00     0.011 A 
HETATM    4  C3  UNL     1      20.911   0.083  52.710  1.00  0.00     0.049 A 
HETATM    5  C4  UNL     1      22.112  -0.286  53.345  1.00  0.00     0.127 A 
HETATM    6  C5  UNL     1      22.043   0.180  52.003  1.00  0.00     0.056 A 
HETATM    7  C6  UNL     1      21.866   0.651  50.692  1.00  0.00     0.096 A 
HETATM    8  C7  UNL     1      20.577   1.013  50.192  1.00  0.00     0.072 A 
HETATM    9  S1  UNL     1      21.601   1.662  48.904  1.00  0.00    -0.026 S 
HETATM   10  O2  UNL     1      20.693   2.172  47.821  1.00  0.00    -0.268 OA
HETATM   11  C8  UNL     1      22.617   3.072  49.495  1.00  0.00     0.116 C 
HETATM   12  C11 UNL     1      23.803   2.757  50.240  1.00  0.00     0.004 C 
HETATM   13  C12 UNL     1      24.723   2.215  51.097  1.00  0.00    -0.012 C 
HETATM   14  C14 UNL     1      24.926   1.262  52.159  1.00  0.00     0.067 C 
HETATM   15  C15 UNL     1      24.679   0.315  53.096  1.00  0.00    -0.010 C 
HETATM   16  C19 UNL     1      23.553  -0.489  53.700  1.00  0.00     0.089 A 
HETATM   17  O6  UNL     1      22.725  -1.211  54.271  1.00  0.00    -0.333 OA
ENDROOT
BRANCH  11  18
HETATM   18  C9  UNL     1      21.767   4.170  50.007  1.00  0.00     0.018 C 
HETATM   19  C10 UNL     1      21.355   5.267  49.344  1.00  0.00     0.128 C 
BRANCH  19  20
HETATM   20  O3  UNL     1      21.957   5.022  48.115  1.00  0.00    -0.373 OA
HETATM   21  H10 UNL     1      22.105   4.142  47.684  1.00  0.00     0.216 HD
ENDBRANCH  19  20
ENDBRANCH  11  18
BRANCH  13  22
HETATM   22  C13 UNL     1      26.122   2.729  51.131  1.00  0.00     0.150 A 
HETATM   23  O4  UNL     1      27.231   2.481  51.617  1.00  0.00    -0.188 OA
HETATM   24  O5  UNL     1      27.158   3.570  50.833  1.00  0.00     0.000 OA
HETATM   25  H12 UNL     1      27.202   4.214  50.036  1.00  0.00     0.000 HD
ENDBRANCH  13  22
BRANCH  15  26
HETATM   26  C16 UNL     1      25.928  -0.041  53.787  1.00  0.00     0.309 C 
BRANCH  26  27
HETATM   27  N1  UNL     1      26.999  -0.512  52.964  1.00  0.00     0.083 N 
HETATM   28  C17 UNL     1      28.330  -0.346  53.463  1.00  0.00     0.309 C 
HETATM   29  C18 UNL     1      26.796  -1.908  52.635  1.00  0.00     0.309 C 
ENDBRANCH  26  27
ENDBRANCH  15  26
TORSDOF 5
ENDMDL
MODEL 3
REMARK VINA RESULT:      -8.1      2.697      6.876
REMARK  5 active torsions:
REMARK  status: ('A' for Active; 'I' for Inactive)
REMARK    1  A    between atoms: C8_11  and  C9_12 
REMARK    2  A    between atoms: C10_13  and  O3_14 
REMARK    3  A    between atoms: C12_16  and  C13_17 
REMARK    4  A    between atoms: C15_21  and  C16_22 
REMARK    5  A    between atoms: C16_22  and  N1_23 
ROOT
HETATM    1  C1  UNL     1      21.719  -1.993  54.099  1.00  0.00     0.000 C 
HETATM    2  O1  UNL     1      22.743  -1.075  54.086  1.00  0.00     0.000 OA
HETATM    3  C2  UNL     1      22.897   0.113  53.443  1.00  0.00     0.011 A 
HETATM    4  C3  UNL     1      21.876   0.514  52.652  1.00  0.00     0.049 A 
HETATM    5  C4  UNL     1      21.712   1.661  51.852  1.00  0.00     0.127 A 
HETATM    6  C5  UNL     1      22.869   1.412  52.640  1.00  0.00     0.056 A 
HETATM    7  C6  UNL     1      23.963   1.071  53.450  1.00  0.00     0.096 A 
HETATM    8  C7  UNL     1      23.998  -0.151  54.192  1.00  0.00     0.072 A 
HETATM    9  S1  UNL     1      25.678   0.369  54.377  1.00  0.00    -0.026 S 
HETATM   10  O2  UNL     1      26.348  -0.598  55.312  1.00  0.00    -0.268 OA
HETATM   11  C8  UNL     1      26.579   0.321  52.779  1.00  0.00     0.116 C 
HETATM   12  C11 UNL     1      26.370   1.416  51.876  1.00  0.00     0.004 C 
HETATM   13  C12 UNL     1      25.836   2.425  51.120  1.00  0.00    -0.012 C 
HETATM   14  C14 UNL     1      24.616   3.087  50.731  1.00  0.00     0.067 C 
HETATM   15  C15 UNL     1      23.300   3.389  50.625  1.00  0.00    -0.010 C 
HETATM   16  C19 UNL     1      21.936   2.920  51.071  1.00  0.00     0.089 A 
HETATM   17  O6  UNL     1      20.767   2.645  51.373  1.00  0.00    -0.333 OA
ENDROOT
BRANCH  11  18
HETATM   18  C9  UNL     1      26.578  -1.042  52.202  1.00  0.00     0.018 C 
HETATM   19  C10 UNL     1      27.435  -2.048  52.467  1.00  0.00     0.128 C 
BRANCH  19  20
HETATM   20  O3  UNL     1      28.248  -1.406  53.395  1.00  0.00    -0.373 OA
HETATM   21  H10 UNL     1      28.727  -1.818  54.159  1.00  0.00     0.216 HD
ENDBRANCH  19  20
ENDBRANCH  11  18
BRANCH  13  22
HETATM   22  C13 UNL     1      26.705   3.247  50.230  1.00  0.00     0.150 A 
HETATM   23  O4  UNL     1      27.107   3.310  49.062  1.00  0.00    -0.188 OA
HETATM   24  O5  UNL     1      27.549   4.268  49.896  1.00  0.00     0.000 OA
HETATM   25  H12 UNL     1      27.668   5.147  50.411  1.00  0.00     0.000 HD
ENDBRANCH  13  22
BRANCH  15  26
HETATM   26  C16 UNL     1      23.126   4.563  49.756  1.00  0.00     0.309 C 
BRANCH  26  27
HETATM   27  N1  UNL     1      24.046   5.642  49.951  1.00  0.00     0.083 N 
HETATM   28  C17 UNL     1      24.585   6.262  48.779  1.00  0.00     0.309 C 
HETATM   29  C18 UNL     1      23.445   6.664  50.783  1.00  0.00     0.309 C 
ENDBRANCH  26  27
ENDBRANCH  15  26
TORSDOF 5
ENDMDL
MODEL 4
REMARK VINA RESULT:      -7.5      1.623      1.812
REMARK  5 active torsions:
REMARK  status: ('A' for Active; 'I' for Inactive)
REMARK    1  A    between atoms: C8_11  and  C9_12 
REMARK    2  A    between atoms: C10_13  and  O3_14 
REMARK    3  A    between atoms: C12_16  and  C13_17 
REMARK    4  A    between atoms: C15_21  and  C16_22 
REMARK    5  A    between atoms: C16_22  and  N1_23 
ROOT
HETATM    1  C1  UNL     1      24.618   5.787  48.426  1.00  0.00     0.000 C 
HETATM    2  O1  UNL     1      23.944   5.245  49.494  1.00  0.00     0.000 OA
HETATM    3  C2  UNL     1      24.310   4.341  50.442  1.00  0.00     0.011 A 
HETATM    4  C3  UNL     1      25.568   3.851  50.363  1.00  0.00     0.049 A 
HETATM    5  C4  UNL     1      26.255   2.913  51.158  1.00  0.00     0.127 A 
HETATM    6  C5  UNL     1      24.917   3.324  51.407  1.00  0.00     0.056 A 
HETATM    7  C6  UNL     1      23.603   3.794  51.563  1.00  0.00     0.096 A 
HETATM    8  C7  UNL     1      23.028   4.736  50.654  1.00  0.00     0.072 A 
HETATM    9  S1  UNL     1      21.583   4.253  51.551  1.00  0.00    -0.026 S 
HETATM   10  O2  UNL     1      20.448   5.112  51.072  1.00  0.00    -0.268 OA
HETATM   11  C8  UNL     1      21.139   2.502  51.223  1.00  0.00     0.116 C 
HETATM   12  C11 UNL     1      21.879   1.496  51.930  1.00  0.00     0.004 C 
HETATM   13  C12 UNL     1      22.856   0.748  52.530  1.00  0.00    -0.012 C 
HETATM   14  C14 UNL     1      24.273   0.635  52.770  1.00  0.00     0.067 C 
HETATM   15  C15 UNL     1      25.602   0.893  52.740  1.00  0.00    -0.010 C 
HETATM   16  C19 UNL     1      26.612   1.845  52.145  1.00  0.00     0.089 A 
HETATM   17  O6  UNL     1      27.534   2.559  51.730  1.00  0.00    -0.333 OA
ENDROOT
BRANCH  11  18
HETATM   18  C9  UNL     1      20.888   2.272  49.783  1.00  0.00     0.018 C 
HETATM   19  C10 UNL     1      19.700   2.259  49.148  1.00  0.00     0.128 C 
BRANCH  19  20
HETATM   20  O3  UNL     1      18.867   2.519  50.231  1.00  0.00    -0.373 OA
HETATM   21  H10 UNL     1      17.937   2.859  50.205  1.00  0.00     0.216 HD
ENDBRANCH  19  20
ENDBRANCH  11  18
BRANCH  13  22
HETATM   22  C13 UNL     1      22.518  -0.531  53.216  1.00  0.00     0.150 A 
HETATM   23  O4  UNL     1      23.033  -1.436  53.884  1.00  0.00    -0.188 OA
HETATM   24  O5  UNL     1      21.717  -1.557  53.637  1.00  0.00     0.000 OA
HETATM   25  H12 UNL     1      20.695  -1.531  53.713  1.00  0.00     0.000 HD
ENDBRANCH  13  22
BRANCH  15  26
HETATM   26  C16 UNL     1      26.324  -0.111  53.537  1.00  0.00     0.309 C 
BRANCH  26  27
HETATM   27  N1  UNL     1      27.409  -0.781  52.888  1.00  0.00     0.083 N 
HETATM   28  C17 UNL     1      28.675  -0.773  53.555  1.00  0.00     0.309 C 
HETATM   29  C18 UNL     1      27.045  -2.152  52.598  1.00  0.00     0.309 C 
ENDBRANCH  26  27
ENDBRANCH  15  26
TORSDOF 5
ENDMDL
MODEL 5
REMARK VINA RESULT:      -7.4      2.838      6.296
REMARK  5 active torsions:
REMARK  status: ('A' for Active; 'I' for Inactive)
REMARK    1  A    between atoms: C8_11  and  C9_12 
REMARK    2  A    between atoms: C10_13  and  O3_14 
REMARK    3  A    between atoms: C12_16  and  C13_17 
REMARK    4  A    between atoms: C15_21  and  C16_22 
REMARK    5  A    between atoms: C16_22  and  N1_23 
ROOT
HETATM    1  C1  UNL     1      25.696   0.165  52.538  1.00  0.00     0.000 C 
HETATM    2  O1  UNL     1      24.544   0.889  52.342  1.00  0.00     0.000 OA
HETATM    3  C2  UNL     1      23.250   0.658  52.688  1.00  0.00     0.011 A 
HETATM    4  C3  UNL     1      22.994  -0.492  53.355  1.00  0.00     0.049 A 
HETATM    5  C4  UNL     1      21.791  -1.037  53.844  1.00  0.00     0.127 A 
HETATM    6  C5  UNL     1      21.870   0.212  53.170  1.00  0.00     0.056 A 
HETATM    7  C6  UNL     1      22.057   1.428  52.494  1.00  0.00     0.096 A 
HETATM    8  C7  UNL     1      23.345   1.841  52.030  1.00  0.00     0.072 A 
HETATM    9  S1  UNL     1      22.327   3.029  51.206  1.00  0.00    -0.026 S 
HETATM   10  O2  UNL     1      23.239   4.000  50.512  1.00  0.00    -0.268 OA
HETATM   11  C8  UNL     1      21.269   2.242  49.929  1.00  0.00     0.116 C 
HETATM   12  C11 UNL     1      20.079   1.579  50.382  1.00  0.00     0.004 C 
HETATM   13  C12 UNL     1      19.159   0.836  51.072  1.00  0.00    -0.012 C 
HETATM   14  C14 UNL     1      18.961  -0.057  52.185  1.00  0.00     0.067 C 
HETATM   15  C15 UNL     1      19.215  -0.837  53.263  1.00  0.00    -0.010 C 
HETATM   16  C19 UNL     1      20.350  -1.328  54.130  1.00  0.00     0.089 A 
HETATM   17  O6  UNL     1      21.185  -1.793  54.917  1.00  0.00    -0.333 OA
ENDROOT
BRANCH  11  18
HETATM   18  C9  UNL     1      22.085   1.546  48.909  1.00  0.00     0.018 C 
HETATM   19  C10 UNL     1      22.469   2.013  47.706  1.00  0.00     0.128 C 
BRANCH  19  20
HETATM   20  O3  UNL     1      21.879   3.271  47.758  1.00  0.00    -0.373 OA
HETATM   21  H10 UNL     1      21.819   3.938  47.027  1.00  0.00     0.216 HD
ENDBRANCH  19  20
ENDBRANCH  11  18
BRANCH  13  22
HETATM   22  C13 UNL     1      17.748   0.748  50.599  1.00  0.00     0.150 A 
HETATM   23  O4  UNL     1      16.595   1.039  50.938  1.00  0.00    -0.188 OA
HETATM   24  O5  UNL     1      16.727   0.431  49.746  1.00  0.00     0.000 OA
HETATM   25  H12 UNL     1      16.816   0.241  48.743  1.00  0.00     0.000 HD
ENDBRANCH  13  22
BRANCH  15  26
HETATM   26  C16 UNL     1      17.964  -1.439  53.750  1.00  0.00     0.309 C 
BRANCH  26  27
HETATM   27  N1  UNL     1      17.394  -2.468  52.936  1.00  0.00     0.083 N 
HETATM   28  C17 UNL     1      17.313  -3.780  53.502  1.00  0.00     0.309 C 
HETATM   29  C18 UNL     1      16.075  -2.073  52.487  1.00  0.00     0.309 C 
ENDBRANCH  26  27
ENDBRANCH  15  26
TORSDOF 5
ENDMDL
MODEL 6
REMARK VINA RESULT:      -7.2     10.669     12.812
REMARK  5 active torsions:
REMARK  status: ('A' for Active; 'I' for Inactive)
REMARK    1  A    between atoms: C8_11  and  C9_12 
REMARK    2  A    between atoms: C10_13  and  O3_14 
REMARK    3  A    between atoms: C12_16  and  C13_17 
REMARK    4  A    between atoms: C15_21  and  C16_22 
REMARK    5  A    between atoms: C16_22  and  N1_23 
ROOT
HETATM    1  C1  UNL     1      31.165  12.856  44.534  1.00  0.00     0.000 C 
HETATM    2  O1  UNL     1      31.302  12.303  45.785  1.00  0.00     0.000 OA
HETATM    3  C2  UNL     1      31.999  11.227  46.237  1.00  0.00     0.011 A 
HETATM    4  C3  UNL     1      32.711  10.533  45.319  1.00  0.00     0.049 A 
HETATM    5  C4  UNL     1      33.519   9.386  45.438  1.00  0.00     0.127 A 
HETATM    6  C5  UNL     1      32.850   9.994  46.536  1.00  0.00     0.056 A 
HETATM    7  C6  UNL     1      32.149  10.668  47.548  1.00  0.00     0.096 A 
HETATM    8  C7  UNL     1      31.341  11.814  47.268  1.00  0.00     0.072 A 
HETATM    9  S1  UNL     1      30.838  11.482  48.931  1.00  0.00    -0.026 S 
HETATM   10  O2  UNL     1      29.915  12.590  49.352  1.00  0.00    -0.268 OA
HETATM   11  C8  UNL     1      29.911   9.902  49.052  1.00  0.00     0.116 C 
HETATM   12  C11 UNL     1      30.681   8.691  49.074  1.00  0.00     0.004 C 
HETATM   13  C12 UNL     1      31.602   7.704  48.846  1.00  0.00    -0.012 C 
HETATM   14  C14 UNL     1      32.726   7.304  48.038  1.00  0.00     0.067 C 
HETATM   15  C15 UNL     1      33.688   7.319  47.085  1.00  0.00    -0.010 C 
HETATM   16  C19 UNL     1      34.200   8.145  45.929  1.00  0.00     0.089 A 
HETATM   17  O6  UNL     1      34.719   8.730  44.970  1.00  0.00    -0.333 OA
ENDROOT
BRANCH  11  18
HETATM   18  C9  UNL     1      28.702   9.921  48.199  1.00  0.00     0.018 C 
HETATM   19  C10 UNL     1      27.442  10.226  48.565  1.00  0.00     0.128 C 
BRANCH  19  20
HETATM   20  O3  UNL     1      27.662  10.495  49.912  1.00  0.00    -0.373 OA
HETATM   21  H10 UNL     1      28.361  10.104  50.496  1.00  0.00     0.216 HD
ENDBRANCH  19  20
ENDBRANCH  11  18
BRANCH  13  22
HETATM   22  C13 UNL     1      31.545   6.424  49.610  1.00  0.00     0.150 A 
HETATM   23  O4  UNL     1      31.464   5.202  49.443  1.00  0.00    -0.188 OA
HETATM   24  O5  UNL     1      31.529   5.623  50.718  1.00  0.00     0.000 OA
HETATM   25  H12 UNL     1      31.860   5.881  51.653  1.00  0.00     0.000 HD
ENDBRANCH  13  22
BRANCH  15  26
HETATM   26  C16 UNL     1      34.508   6.101  47.184  1.00  0.00     0.309 C 
BRANCH  26  27
HETATM   27  N1  UNL     1      33.822   4.856  47.017  1.00  0.00     0.083 N 
HETATM   28  C17 UNL     1      33.576   4.420  45.676  1.00  0.00     0.309 C 
HETATM   29  C18 UNL     1      34.520   3.805  47.728  1.00  0.00     0.309 C 
ENDBRANCH  26  27
ENDBRANCH  15  26
TORSDOF 5
ENDMDL
MODEL 7
REMARK VINA RESULT:      -7.0      9.814     12.683
REMARK  5 active torsions:
REMARK  status: ('A' for Active; 'I' for Inactive)
REMARK    1  A    between atoms: C8_11  and  C9_12 
REMARK    2  A    between atoms: C10_13  and  O3_14 
REMARK    3  A    between atoms: C12_16  and  C13_17 
REMARK    4  A    between atoms: C15_21  and  C16_22 
REMARK    5  A    between atoms: C16_22  and  N1_23 
ROOT
HETATM    1  C1  UNL     1      26.520   7.934  49.230  1.00  0.00     0.000 C 
HETATM    2  O1  UNL     1      27.460   8.421  48.353  1.00  0.00     0.000 OA
HETATM    3  C2  UNL     1      28.612   7.891  47.861  1.00  0.00     0.011 A 
HETATM    4  C3  UNL     1      28.941   6.649  48.285  1.00  0.00     0.049 A 
HETATM    5  C4  UNL     1      30.045   5.826  47.991  1.00  0.00     0.127 A 
HETATM    6  C5  UNL     1      29.856   7.118  47.428  1.00  0.00     0.056 A 
HETATM    7  C6  UNL     1      29.577   8.402  46.933  1.00  0.00     0.096 A 
HETATM    8  C7  UNL     1      28.420   9.133  47.347  1.00  0.00     0.072 A 
HETATM    9  S1  UNL     1      29.303  10.410  46.500  1.00  0.00    -0.026 S 
HETATM   10  O2  UNL     1      28.421  11.625  46.472  1.00  0.00    -0.268 OA
HETATM   11  C8  UNL     1      30.850  10.859  47.382  1.00  0.00     0.116 C 
HETATM   12  C11 UNL     1      31.982   9.995  47.200  1.00  0.00     0.004 C 
HETATM   13  C12 UNL     1      32.816   8.919  47.055  1.00  0.00    -0.012 C 
HETATM   14  C14 UNL     1      32.896   7.481  47.069  1.00  0.00     0.067 C 
HETATM   15  C15 UNL     1      32.542   6.178  47.184  1.00  0.00    -0.010 C 
HETATM   16  C19 UNL     1      31.364   5.296  47.521  1.00  0.00     0.089 A 
HETATM   17  O6  UNL     1      30.480   4.466  47.769  1.00  0.00    -0.333 OA
ENDROOT
BRANCH  11  18
HETATM   18  C9  UNL     1      30.567  11.326  48.758  1.00  0.00     0.018 C 
HETATM   19  C10 UNL     1      30.398  12.595  49.176  1.00  0.00     0.128 C 
BRANCH  19  20
HETATM   20  O3  UNL     1      30.565  13.252  47.962  1.00  0.00    -0.373 OA
HETATM   21  H10 UNL     1      30.679  12.841  47.067  1.00  0.00     0.216 HD
ENDBRANCH  19  20
ENDBRANCH  11  18
BRANCH  13  22
HETATM   22  C13 UNL     1      34.278   9.118  46.846  1.00  0.00     0.150 A 
HETATM   23  O4  UNL     1      35.373   8.848  47.354  1.00  0.00    -0.188 OA
HETATM   24  O5  UNL     1      35.407   9.565  46.217  1.00  0.00     0.000 OA
HETATM   25  H12 UNL     1      35.478   9.849  45.235  1.00  0.00     0.000 HD
ENDBRANCH  13  22
BRANCH  15  26
HETATM   26  C16 UNL     1      33.705   5.319  46.916  1.00  0.00     0.309 C 
BRANCH  26  27
HETATM   27  N1  UNL     1      34.190   4.540  48.015  1.00  0.00     0.083 N 
HETATM   28  C17 UNL     1      34.724   3.247  47.715  1.00  0.00     0.309 C 
HETATM   29  C18 UNL     1      35.179   5.292  48.758  1.00  0.00     0.309 C 
ENDBRANCH  26  27
ENDBRANCH  15  26
TORSDOF 5
ENDMDL
MODEL 8
REMARK VINA RESULT:      -6.5      8.866     12.020
REMARK  5 active torsions:
REMARK  status: ('A' for Active; 'I' for Inactive)
REMARK    1  A    between atoms: C8_11  and  C9_12 
REMARK    2  A    between atoms: C10_13  and  O3_14 
REMARK    3  A    between atoms: C12_16  and  C13_17 
REMARK    4  A    between atoms: C15_21  and  C16_22 
REMARK    5  A    between atoms: C16_22  and  N1_23 
ROOT
HETATM    1  C1  UNL     1      35.241   8.930  47.133  1.00  0.00     0.000 C 
HETATM    2  O1  UNL     1      34.171   8.161  46.741  1.00  0.00     0.000 OA
HETATM    3  C2  UNL     1      32.839   8.250  46.998  1.00  0.00     0.011 A 
HETATM    4  C3  UNL     1      32.437   9.275  47.784  1.00  0.00     0.049 A 
HETATM    5  C4  UNL     1      31.161   9.649  48.248  1.00  0.00     0.127 A 
HETATM    6  C5  UNL     1      31.392   8.530  47.402  1.00  0.00     0.056 A 
HETATM    7  C6  UNL     1      31.729   7.450  46.570  1.00  0.00     0.096 A 
HETATM    8  C7  UNL     1      33.083   7.178  46.202  1.00  0.00     0.072 A 
HETATM    9  S1  UNL     1      32.307   5.692  45.638  1.00  0.00    -0.026 S 
HETATM   10  O2  UNL     1      33.350   4.882  44.924  1.00  0.00    -0.268 OA
HETATM   11  C8  UNL     1      31.676   4.687  47.039  1.00  0.00     0.116 C 
HETATM   12  C11 UNL     1      30.426   5.086  47.620  1.00  0.00     0.004 C 
HETATM   13  C12 UNL     1      29.370   5.789  48.134  1.00  0.00    -0.012 C 
HETATM   14  C14 UNL     1      28.890   7.100  48.495  1.00  0.00     0.067 C 
HETATM   15  C15 UNL     1      28.851   8.438  48.701  1.00  0.00    -0.010 C 
HETATM   16  C19 UNL     1      29.707   9.678  48.605  1.00  0.00     0.089 A 
HETATM   17  O6  UNL     1      30.298  10.765  48.564  1.00  0.00    -0.333 OA
ENDROOT
BRANCH  11  18
HETATM   18  C9  UNL     1      32.767   4.315  47.967  1.00  0.00     0.018 C 
HETATM   19  C10 UNL     1      33.492   3.180  47.971  1.00  0.00     0.128 C 
BRANCH  19  20
HETATM   20  O3  UNL     1      32.902   2.538  46.886  1.00  0.00    -0.373 OA
HETATM   21  H10 UNL     1      31.964   2.229  46.809  1.00  0.00     0.216 HD
ENDBRANCH  19  20
ENDBRANCH  11  18
BRANCH  13  22
HETATM   22  C13 UNL     1      28.154   5.080  48.624  1.00  0.00     0.150 A 
HETATM   23  O4  UNL     1      26.919   5.121  48.561  1.00  0.00    -0.188 OA
HETATM   24  O5  UNL     1      27.443   4.130  49.304  1.00  0.00     0.000 OA
HETATM   25  H12 UNL     1      27.800   3.224  49.625  1.00  0.00     0.000 HD
ENDBRANCH  13  22
BRANCH  15  26
HETATM   26  C16 UNL     1      27.531   8.823  49.223  1.00  0.00     0.309 C 
BRANCH  26  27
HETATM   27  N1  UNL     1      26.409   8.565  48.373  1.00  0.00     0.083 N 
HETATM   28  C17 UNL     1      25.174   8.216  49.007  1.00  0.00     0.309 C 
HETATM   29  C18 UNL     1      26.179   9.695  47.497  1.00  0.00     0.309 C 
ENDBRANCH  26  27
ENDBRANCH  15  26
TORSDOF 5
ENDMDL
MODEL 9
REMARK VINA RESULT:      -6.5     22.062     24.482
REMARK  5 active torsions:
REMARK  status: ('A' for Active; 'I' for Inactive)
REMARK    1  A    between atoms: C8_11  and  C9_12 
REMARK    2  A    between atoms: C10_13  and  O3_14 
REMARK    3  A    between atoms: C12_16  and  C13_17 
REMARK    4  A    between atoms: C15_21  and  C16_22 
REMARK    5  A    between atoms: C16_22  and  N1_23 
ROOT
HETATM    1  C1  UNL     1      42.115  -6.909  69.912  1.00  0.00     0.000 C 
HETATM    2  O1  UNL     1      41.372  -6.120  69.066  1.00  0.00     0.000 OA
HETATM    3  C2  UNL     1      41.445  -4.800  68.748  1.00  0.00     0.011 A 
HETATM    4  C3  UNL     1      42.419  -4.081  69.352  1.00  0.00     0.049 A 
HETATM    5  C4  UNL     1      42.764  -2.719  69.261  1.00  0.00     0.127 A 
HETATM    6  C5  UNL     1      41.700  -3.310  68.526  1.00  0.00     0.056 A 
HETATM    7  C6  UNL     1      40.674  -3.990  67.851  1.00  0.00     0.096 A 
HETATM    8  C7  UNL     1      40.425  -5.381  68.067  1.00  0.00     0.072 A 
HETATM    9  S1  UNL     1      38.977  -4.949  67.147  1.00  0.00    -0.026 S 
HETATM   10  O2  UNL     1      38.213  -6.216  66.888  1.00  0.00    -0.268 OA
HETATM   11  C8  UNL     1      37.887  -3.819  68.097  1.00  0.00     0.116 C 
HETATM   12  C11 UNL     1      38.249  -2.430  68.126  1.00  0.00     0.004 C 
HETATM   13  C12 UNL     1      38.919  -1.238  68.191  1.00  0.00    -0.012 C 
HETATM   14  C14 UNL     1      40.204  -0.618  68.392  1.00  0.00     0.067 C 
HETATM   15  C15 UNL     1      41.527  -0.462  68.639  1.00  0.00    -0.010 C 
HETATM   16  C19 UNL     1      42.770  -1.248  68.980  1.00  0.00     0.089 A 
HETATM   17  O6  UNL     1      43.858  -1.774  69.251  1.00  0.00    -0.333 OA
ENDROOT
BRANCH  11  18
HETATM   18  C9  UNL     1      37.457  -4.434  69.373  1.00  0.00     0.018 C 
HETATM   19  C10 UNL     1      36.317  -5.107  69.618  1.00  0.00     0.128 C 
BRANCH  19  20
HETATM   20  O3  UNL     1      35.739  -5.029  68.355  1.00  0.00    -0.373 OA
HETATM   21  H10 UNL     1      35.777  -4.266  67.724  1.00  0.00     0.216 HD
ENDBRANCH  19  20
ENDBRANCH  11  18
BRANCH  13  22
HETATM   22  C13 UNL     1      38.180   0.053  68.087  1.00  0.00     0.150 A 
HETATM   23  O4  UNL     1      38.222   1.224  68.481  1.00  0.00    -0.188 OA
HETATM   24  O5  UNL     1      37.193   0.904  67.677  1.00  0.00     0.000 OA
HETATM   25  H12 UNL     1      36.583   0.774  66.863  1.00  0.00     0.000 HD
ENDBRANCH  13  22
BRANCH  15  26
HETATM   26  C16 UNL     1      41.879   0.965  68.584  1.00  0.00     0.309 C 
BRANCH  26  27
HETATM   27  N1  UNL     1      42.382   1.545  69.792  1.00  0.00     0.083 N 
HETATM   28  C17 UNL     1      43.561   2.348  69.691  1.00  0.00     0.309 C 
HETATM   29  C18 UNL     1      41.344   2.320  70.440  1.00  0.00     0.309 C 
ENDBRANCH  26  27
ENDBRANCH  15  26
TORSDOF 5
ENDMDL
