MODEL 1
REMARK VINA RESULT:      -8.2      0.000      0.000
REMARK  5 active torsions:
REMARK  status: ('A' for Active; 'I' for Inactive)
REMARK    1  A    between atoms: C3_3  and  N1_4 
REMARK       I    between atoms: N1_4  and  C4_5 
REMARK    2  A    between atoms: C4_5  and  C5_7 
REMARK    3  A    between atoms: C5_7  and  C6_8 
REMARK    4  A    between atoms: C10_14  and  N4_15 
REMARK    5  A    between atoms: N4_15  and  C11_16 
ROOT
HETATM    1  C6  UNL     1      26.424   2.236  51.944  1.00  0.00    -0.005 C 
HETATM    2  C7  UNL     1      27.133   1.671  52.895  1.00  0.00     0.004 A 
HETATM    3  C8  UNL     1      28.329   2.340  53.512  1.00  0.00     0.192 A 
HETATM    4  N2  UNL     1      28.967   1.559  54.488  1.00  0.00    -0.278 NA
HETATM    5  C9  UNL     1      28.669   0.396  54.925  1.00  0.00     0.229 A 
HETATM    6  N3  UNL     1      27.535  -0.262  54.384  1.00  0.00    -0.224 NA
HETATM    7  C10 UNL     1      26.860   0.347  53.466  1.00  0.00     0.137 A 
ENDROOT
BRANCH   1   8
HETATM    8  C5  UNL     1      25.343   2.331  50.958  1.00  0.00     0.131 C 
BRANCH   8   9
HETATM    9  C4  UNL     1      25.204   3.779  50.563  1.00  0.00     0.224 C 
HETATM   10  N1  UNL     1      26.310   4.539  50.096  1.00  0.00    -0.337 N 
HETATM   11  H6  UNL     1      27.187   3.978  50.067  1.00  0.00     0.168 HD
HETATM   12  O1  UNL     1      24.040   4.281  50.671  1.00  0.00    -0.273 OA
BRANCH  10  13
HETATM   13  C3  UNL     1      25.950   5.857  49.787  1.00  0.00     0.086 C 
HETATM   14  C2  UNL     1      26.813   6.203  48.859  1.00  0.00    -0.014 C 
HETATM   15  C1  UNL     1      27.783   5.146  48.502  1.00  0.00     0.037 C 
ENDBRANCH  10  13
ENDBRANCH   8   9
ENDBRANCH   1   8
BRANCH   7  16
HETATM   16  N4  UNL     1      25.725  -0.360  52.994  1.00  0.00    -0.340 N 
HETATM   17  H13 UNL     1      25.863  -0.817  52.043  1.00  0.00     0.167 HD
BRANCH  16  18
HETATM   18  C11 UNL     1      24.488  -0.488  53.674  1.00  0.00     0.035 A 
HETATM   19  C12 UNL     1      24.250  -1.209  54.819  1.00  0.00     0.029 A 
HETATM   20  C13 UNL     1      23.010  -1.274  55.417  1.00  0.00     0.004 A 
HETATM   21  C14 UNL     1      21.924  -0.613  54.890  1.00  0.00     0.019 A 
HETATM   22  C15 UNL     1      22.135   0.120  53.738  1.00  0.00     0.013 A 
HETATM   23 BR1  UNL     1      20.681   1.078  52.930  1.00  0.00    -0.051 Br
HETATM   24  C16 UNL     1      23.387   0.167  53.163  1.00  0.00     0.048 A 
ENDBRANCH  16  18
ENDBRANCH   7  16
TORSDOF 5
ENDMDL
MODEL 2
REMARK VINA RESULT:      -7.9      2.340      6.463
REMARK  5 active torsions:
REMARK  status: ('A' for Active; 'I' for Inactive)
REMARK    1  A    between atoms: C3_3  and  N1_4 
REMARK       I    between atoms: N1_4  and  C4_5 
REMARK    2  A    between atoms: C4_5  and  C5_7 
REMARK    3  A    between atoms: C5_7  and  C6_8 
REMARK    4  A    between atoms: C10_14  and  N4_15 
REMARK    5  A    between atoms: N4_15  and  C11_16 
ROOT
HETATM    1  C6  UNL     1      24.432   1.442  52.237  1.00  0.00    -0.005 C 
HETATM    2  C7  UNL     1      25.659   1.652  52.658  1.00  0.00     0.004 A 
HETATM    3  C8  UNL     1      26.100   1.305  54.052  1.00  0.00     0.192 A 
HETATM    4  N2  UNL     1      27.438   1.635  54.315  1.00  0.00    -0.278 NA
HETATM    5  C9  UNL     1      28.315   2.159  53.548  1.00  0.00     0.229 A 
HETATM    6  N3  UNL     1      27.946   2.484  52.218  1.00  0.00    -0.224 NA
HETATM    7  C10 UNL     1      26.733   2.237  51.848  1.00  0.00     0.137 A 
ENDROOT
BRANCH   1   8
HETATM    8  C5  UNL     1      23.329   1.455  51.271  1.00  0.00     0.131 C 
BRANCH   8   9
HETATM    9  C4  UNL     1      22.133   0.814  51.927  1.00  0.00     0.224 C 
HETATM   10  N1  UNL     1      22.271  -0.119  52.990  1.00  0.00    -0.337 N 
HETATM   11  H6  UNL     1      23.269  -0.287  53.237  1.00  0.00     0.168 HD
HETATM   12  O1  UNL     1      20.994   1.157  51.476  1.00  0.00    -0.273 OA
BRANCH  10  13
HETATM   13  C3  UNL     1      21.031  -0.586  53.445  1.00  0.00     0.086 C 
HETATM   14  C2  UNL     1      21.325  -1.192  54.573  1.00  0.00    -0.014 C 
HETATM   15  C1  UNL     1      22.760  -1.163  54.927  1.00  0.00     0.037 C 
ENDBRANCH  10  13
ENDBRANCH   8   9
ENDBRANCH   1   8
BRANCH   7  16
HETATM   16  N4  UNL     1      26.445   2.561  50.497  1.00  0.00    -0.340 N 
HETATM   17  H13 UNL     1      26.255   1.717  49.879  1.00  0.00     0.167 HD
BRANCH  16  18
HETATM   18  C11 UNL     1      26.398   3.869  49.952  1.00  0.00     0.035 A 
HETATM   19  C12 UNL     1      27.249   4.400  49.013  1.00  0.00     0.029 A 
HETATM   20  C13 UNL     1      27.126   5.686  48.535  1.00  0.00     0.004 A 
HETATM   21  C14 UNL     1      26.130   6.525  48.980  1.00  0.00     0.019 A 
HETATM   22  C15 UNL     1      25.259   6.017  49.925  1.00  0.00     0.013 A 
HETATM   23 BR1  UNL     1      23.836   7.111  50.606  1.00  0.00    -0.051 Br
HETATM   24  C16 UNL     1      25.407   4.726  50.384  1.00  0.00     0.048 A 
ENDBRANCH  16  18
ENDBRANCH   7  16
TORSDOF 5
ENDMDL
MODEL 3
REMARK VINA RESULT:      -7.8      1.939      2.652
REMARK  5 active torsions:
REMARK  status: ('A' for Active; 'I' for Inactive)
REMARK    1  A    between atoms: C3_3  and  N1_4 
REMARK       I    between atoms: N1_4  and  C4_5 
REMARK    2  A    between atoms: C4_5  and  C5_7 
REMARK    3  A    between atoms: C5_7  and  C6_8 
REMARK    4  A    between atoms: C10_14  and  N4_15 
REMARK    5  A    between atoms: N4_15  and  C11_16 
ROOT
HETATM    1  C6  UNL     1      26.352   2.316  52.195  1.00  0.00    -0.005 C 
HETATM    2  C7  UNL     1      27.083   1.673  53.078  1.00  0.00     0.004 A 
HETATM    3  C8  UNL     1      28.286   2.294  53.731  1.00  0.00     0.192 A 
HETATM    4  N2  UNL     1      28.948   1.433  54.619  1.00  0.00    -0.278 NA
HETATM    5  C9  UNL     1      28.668   0.232  54.954  1.00  0.00     0.229 A 
HETATM    6  N3  UNL     1      27.530  -0.384  54.375  1.00  0.00    -0.224 NA
HETATM    7  C10 UNL     1      26.832   0.299  53.530  1.00  0.00     0.137 A 
ENDROOT
BRANCH   1   8
HETATM    8  C5  UNL     1      25.252   2.490  51.243  1.00  0.00     0.131 C 
BRANCH   8   9
HETATM    9  C4  UNL     1      24.095   3.113  51.982  1.00  0.00     0.224 C 
HETATM   10  N1  UNL     1      22.847   3.361  51.350  1.00  0.00    -0.337 N 
HETATM   11  H6  UNL     1      22.847   3.065  50.352  1.00  0.00     0.168 HD
HETATM   12  O1  UNL     1      24.300   3.403  53.204  1.00  0.00    -0.273 OA
BRANCH  10  13
HETATM   13  C3  UNL     1      21.921   3.945  52.225  1.00  0.00     0.086 C 
HETATM   14  C2  UNL     1      20.803   3.944  51.535  1.00  0.00    -0.014 C 
HETATM   15  C1  UNL     1      20.922   3.368  50.179  1.00  0.00     0.037 C 
ENDBRANCH  10  13
ENDBRANCH   8   9
ENDBRANCH   1   8
BRANCH   7  16
HETATM   16  N4  UNL     1      25.694  -0.372  53.016  1.00  0.00    -0.340 N 
HETATM   17  H13 UNL     1      25.819  -0.744  52.027  1.00  0.00     0.167 HD
BRANCH  16  18
HETATM   18  C11 UNL     1      24.469  -0.568  53.701  1.00  0.00     0.035 A 
HETATM   19  C12 UNL     1      24.304  -1.119  54.949  1.00  0.00     0.029 A 
HETATM   20  C13 UNL     1      23.069  -1.268  55.543  1.00  0.00     0.004 A 
HETATM   21  C14 UNL     1      21.915  -0.868  54.909  1.00  0.00     0.019 A 
HETATM   22  C15 UNL     1      22.051  -0.310  53.652  1.00  0.00     0.013 A 
HETATM   23 BR1  UNL     1      20.499   0.278  52.689  1.00  0.00    -0.051 Br
HETATM   24  C16 UNL     1      23.300  -0.174  53.084  1.00  0.00     0.048 A 
ENDBRANCH  16  18
ENDBRANCH   7  16
TORSDOF 5
ENDMDL
MODEL 4
REMARK VINA RESULT:      -7.7      2.270      5.581
REMARK  5 active torsions:
REMARK  status: ('A' for Active; 'I' for Inactive)
REMARK    1  A    between atoms: C3_3  and  N1_4 
REMARK       I    between atoms: N1_4  and  C4_5 
REMARK    2  A    between atoms: C4_5  and  C5_7 
REMARK    3  A    between atoms: C5_7  and  C6_8 
REMARK    4  A    between atoms: C10_14  and  N4_15 
REMARK    5  A    between atoms: N4_15  and  C11_16 
ROOT
HETATM    1  C6  UNL     1      26.465   2.392  50.978  1.00  0.00    -0.005 C 
HETATM    2  C7  UNL     1      26.051   3.485  50.377  1.00  0.00     0.004 A 
HETATM    3  C8  UNL     1      26.845   4.158  49.294  1.00  0.00     0.192 A 
HETATM    4  N2  UNL     1      26.246   5.328  48.803  1.00  0.00    -0.278 NA
HETATM    5  C9  UNL     1      25.139   5.876  49.129  1.00  0.00     0.229 A 
HETATM    6  N3  UNL     1      24.349   5.263  50.134  1.00  0.00    -0.224 NA
HETATM    7  C10 UNL     1      24.792   4.178  50.677  1.00  0.00     0.137 A 
ENDROOT
BRANCH   1   8
HETATM    8  C5  UNL     1      26.392   1.279  51.929  1.00  0.00     0.131 C 
BRANCH   8   9
HETATM    9  C4  UNL     1      27.709   1.207  52.658  1.00  0.00     0.224 C 
HETATM   10  N1  UNL     1      28.187  -0.004  53.227  1.00  0.00    -0.337 N 
HETATM   11  H6  UNL     1      27.527  -0.795  53.074  1.00  0.00     0.168 HD
HETATM   12  O1  UNL     1      28.369   2.293  52.734  1.00  0.00    -0.273 OA
BRANCH  10  13
HETATM   13  C3  UNL     1      29.428   0.162  53.855  1.00  0.00     0.086 C 
HETATM   14  C2  UNL     1      29.956  -1.040  53.817  1.00  0.00    -0.014 C 
HETATM   15  C1  UNL     1      29.105  -2.062  53.171  1.00  0.00     0.037 C 
ENDBRANCH  10  13
ENDBRANCH   8   9
ENDBRANCH   1   8
BRANCH   7  16
HETATM   16  N4  UNL     1      23.935   3.607  51.652  1.00  0.00    -0.340 N 
HETATM   17  H13 UNL     1      23.990   4.075  52.606  1.00  0.00     0.167 HD
BRANCH  16  18
HETATM   18  C11 UNL     1      23.058   2.513  51.444  1.00  0.00     0.035 A 
HETATM   19  C12 UNL     1      22.553   2.081  50.241  1.00  0.00     0.029 A 
HETATM   20  C13 UNL     1      21.705   1.000  50.132  1.00  0.00     0.004 A 
HETATM   21  C14 UNL     1      21.310   0.283  51.238  1.00  0.00     0.019 A 
HETATM   22  C15 UNL     1      21.803   0.695  52.461  1.00  0.00     0.013 A 
HETATM   23 BR1  UNL     1      21.308  -0.242  54.061  1.00  0.00    -0.051 Br
HETATM   24  C16 UNL     1      22.650   1.780  52.540  1.00  0.00     0.048 A 
ENDBRANCH  16  18
ENDBRANCH   7  16
TORSDOF 5
ENDMDL
MODEL 5
REMARK VINA RESULT:      -7.7      3.023      6.013
REMARK  5 active torsions:
REMARK  status: ('A' for Active; 'I' for Inactive)
REMARK    1  A    between atoms: C3_3  and  N1_4 
REMARK       I    between atoms: N1_4  and  C4_5 
REMARK    2  A    between atoms: C4_5  and  C5_7 
REMARK    3  A    between atoms: C5_7  and  C6_8 
REMARK    4  A    between atoms: C10_14  and  N4_15 
REMARK    5  A    between atoms: N4_15  and  C11_16 
ROOT
HETATM    1  C6  UNL     1      24.469  -0.569  53.401  1.00  0.00    -0.005 C 
HETATM    2  C7  UNL     1      23.171  -0.608  53.605  1.00  0.00     0.004 A 
HETATM    3  C8  UNL     1      22.564  -1.302  54.791  1.00  0.00     0.192 A 
HETATM    4  N2  UNL     1      21.161  -1.258  54.809  1.00  0.00    -0.278 NA
HETATM    5  C9  UNL     1      20.351  -0.710  53.987  1.00  0.00     0.229 A 
HETATM    6  N3  UNL     1      20.884  -0.028  52.864  1.00  0.00    -0.224 NA
HETATM    7  C10 UNL     1      22.167  -0.000  52.723  1.00  0.00     0.137 A 
ENDROOT
BRANCH   1   8
HETATM    8  C5  UNL     1      25.701  -0.213  52.692  1.00  0.00     0.131 C 
BRANCH   8   9
HETATM    9  C4  UNL     1      26.812  -0.133  53.707  1.00  0.00     0.224 C 
HETATM   10  N1  UNL     1      28.098   0.369  53.373  1.00  0.00    -0.337 N 
HETATM   11  H6  UNL     1      28.158   0.660  52.375  1.00  0.00     0.168 HD
HETATM   12  O1  UNL     1      26.532  -0.540  54.880  1.00  0.00    -0.273 OA
BRANCH  10  13
HETATM   13  C3  UNL     1      28.972   0.351  54.468  1.00  0.00     0.086 C 
HETATM   14  C2  UNL     1      29.339   1.606  54.591  1.00  0.00    -0.014 C 
HETATM   15  C1  UNL     1      28.738   2.519  53.596  1.00  0.00     0.037 C 
ENDBRANCH  10  13
ENDBRANCH   8   9
ENDBRANCH   1   8
BRANCH   7  16
HETATM   16  N4  UNL     1      22.627   0.723  51.593  1.00  0.00    -0.340 N 
HETATM   17  H13 UNL     1      22.675   0.148  50.699  1.00  0.00     0.167 HD
BRANCH  16  18
HETATM   18  C11 UNL     1      23.003   2.090  51.583  1.00  0.00     0.035 A 
HETATM   19  C12 UNL     1      22.401   3.114  52.273  1.00  0.00     0.029 A 
HETATM   20  C13 UNL     1      22.839   4.419  52.206  1.00  0.00     0.004 A 
HETATM   21  C14 UNL     1      23.919   4.775  51.432  1.00  0.00     0.019 A 
HETATM   22  C15 UNL     1      24.544   3.765  50.726  1.00  0.00     0.013 A 
HETATM   23 BR1  UNL     1      26.060   4.163  49.618  1.00  0.00    -0.051 Br
HETATM   24  C16 UNL     1      24.084   2.468  50.813  1.00  0.00     0.048 A 
ENDBRANCH  16  18
ENDBRANCH   7  16
TORSDOF 5
ENDMDL
MODEL 6
REMARK VINA RESULT:      -7.5      2.538      5.136
REMARK  5 active torsions:
REMARK  status: ('A' for Active; 'I' for Inactive)
REMARK    1  A    between atoms: C3_3  and  N1_4 
REMARK       I    between atoms: N1_4  and  C4_5 
REMARK    2  A    between atoms: C4_5  and  C5_7 
REMARK    3  A    between atoms: C5_7  and  C6_8 
REMARK    4  A    between atoms: C10_14  and  N4_15 
REMARK    5  A    between atoms: N4_15  and  C11_16 
ROOT
HETATM    1  C6  UNL     1      25.119   2.242  51.747  1.00  0.00    -0.005 C 
HETATM    2  C7  UNL     1      24.067   3.014  51.593  1.00  0.00     0.004 A 
HETATM    3  C8  UNL     1      24.163   4.514  51.597  1.00  0.00     0.192 A 
HETATM    4  N2  UNL     1      22.923   5.155  51.449  1.00  0.00    -0.278 NA
HETATM    5  C9  UNL     1      21.758   4.654  51.299  1.00  0.00     0.229 A 
HETATM    6  N3  UNL     1      21.626   3.242  51.271  1.00  0.00    -0.224 NA
HETATM    7  C10 UNL     1      22.694   2.530  51.405  1.00  0.00     0.137 A 
ENDROOT
BRANCH   1   8
HETATM    8  C5  UNL     1      25.840   0.971  51.859  1.00  0.00     0.131 C 
BRANCH   8   9
HETATM    9  C4  UNL     1      27.208   1.263  52.419  1.00  0.00     0.224 C 
HETATM   10  N1  UNL     1      27.937   0.297  53.163  1.00  0.00    -0.337 N 
HETATM   11  H6  UNL     1      27.414  -0.599  53.259  1.00  0.00     0.168 HD
HETATM   12  O1  UNL     1      27.674   2.425  52.187  1.00  0.00    -0.273 OA
BRANCH  10  13
HETATM   13  C3  UNL     1      29.181   0.784  53.584  1.00  0.00     0.086 C 
HETATM   14  C2  UNL     1      29.924  -0.296  53.667  1.00  0.00    -0.014 C 
HETATM   15  C1  UNL     1      29.223  -1.548  53.311  1.00  0.00     0.037 C 
ENDBRANCH  10  13
ENDBRANCH   8   9
ENDBRANCH   1   8
BRANCH   7  16
HETATM   16  N4  UNL     1      22.488   1.128  51.337  1.00  0.00    -0.340 N 
HETATM   17  H13 UNL     1      22.732   0.698  50.395  1.00  0.00     0.167 HD
BRANCH  16  18
HETATM   18  C11 UNL     1      22.004   0.312  52.390  1.00  0.00     0.035 A 
HETATM   19  C12 UNL     1      22.731  -0.194  53.440  1.00  0.00     0.029 A 
HETATM   20  C13 UNL     1      22.174  -0.980  54.425  1.00  0.00     0.004 A 
HETATM   21  C14 UNL     1      20.838  -1.309  54.412  1.00  0.00     0.019 A 
HETATM   22  C15 UNL     1      20.082  -0.814  53.366  1.00  0.00     0.013 A 
HETATM   23 BR1  UNL     1      18.208  -1.218  53.261  1.00  0.00    -0.051 Br
HETATM   24  C16 UNL     1      20.667  -0.029  52.395  1.00  0.00     0.048 A 
ENDBRANCH  16  18
ENDBRANCH   7  16
TORSDOF 5
ENDMDL
MODEL 7
REMARK VINA RESULT:      -7.4      3.397      6.394
REMARK  5 active torsions:
REMARK  status: ('A' for Active; 'I' for Inactive)
REMARK    1  A    between atoms: C3_3  and  N1_4 
REMARK       I    between atoms: N1_4  and  C4_5 
REMARK    2  A    between atoms: C4_5  and  C5_7 
REMARK    3  A    between atoms: C5_7  and  C6_8 
REMARK    4  A    between atoms: C10_14  and  N4_15 
REMARK    5  A    between atoms: N4_15  and  C11_16 
ROOT
HETATM    1  C6  UNL     1      23.681  -0.064  53.456  1.00  0.00    -0.005 C 
HETATM    2  C7  UNL     1      22.399  -0.339  53.555  1.00  0.00     0.004 A 
HETATM    3  C8  UNL     1      21.895  -1.580  54.236  1.00  0.00     0.192 A 
HETATM    4  N2  UNL     1      20.498  -1.706  54.208  1.00  0.00    -0.278 NA
HETATM    5  C9  UNL     1      19.618  -0.924  53.712  1.00  0.00     0.229 A 
HETATM    6  N3  UNL     1      20.050   0.268  53.078  1.00  0.00    -0.224 NA
HETATM    7  C10 UNL     1      21.319   0.503  53.027  1.00  0.00     0.137 A 
ENDROOT
BRANCH   1   8
HETATM    8  C5  UNL     1      24.852   0.723  53.060  1.00  0.00     0.131 C 
BRANCH   8   9
HETATM    9  C4  UNL     1      26.054   0.149  53.765  1.00  0.00     0.224 C 
HETATM   10  N1  UNL     1      27.057   0.978  54.336  1.00  0.00    -0.337 N 
HETATM   11  H6  UNL     1      26.851   1.990  54.203  1.00  0.00     0.168 HD
HETATM   12  O1  UNL     1      26.119  -1.121  53.821  1.00  0.00    -0.273 OA
BRANCH  10  13
HETATM   13  C3  UNL     1      28.078   0.231  54.938  1.00  0.00     0.086 C 
HETATM   14  C2  UNL     1      29.168   0.902  54.640  1.00  0.00    -0.014 C 
HETATM   15  C1  UNL     1      28.934   2.118  53.832  1.00  0.00     0.037 C 
ENDBRANCH  10  13
ENDBRANCH   8   9
ENDBRANCH   1   8
BRANCH   7  16
HETATM   16  N4  UNL     1      21.675   1.726  52.403  1.00  0.00    -0.340 N 
HETATM   17  H13 UNL     1      21.711   2.557  53.067  1.00  0.00     0.167 HD
BRANCH  16  18
HETATM   18  C11 UNL     1      21.968   1.898  51.028  1.00  0.00     0.035 A 
HETATM   19  C12 UNL     1      21.532   1.112  49.989  1.00  0.00     0.029 A 
HETATM   20  C13 UNL     1      21.866   1.358  48.674  1.00  0.00     0.004 A 
HETATM   21  C14 UNL     1      22.668   2.419  48.324  1.00  0.00     0.019 A 
HETATM   22  C15 UNL     1      23.121   3.227  49.349  1.00  0.00     0.013 A 
HETATM   23 BR1  UNL     1      24.246   4.733  48.959  1.00  0.00    -0.051 Br
HETATM   24  C16 UNL     1      22.771   2.957  50.655  1.00  0.00     0.048 A 
ENDBRANCH  16  18
ENDBRANCH   7  16
TORSDOF 5
ENDMDL
MODEL 8
REMARK VINA RESULT:      -7.3      3.192      5.374
REMARK  5 active torsions:
REMARK  status: ('A' for Active; 'I' for Inactive)
REMARK    1  A    between atoms: C3_3  and  N1_4 
REMARK       I    between atoms: N1_4  and  C4_5 
REMARK    2  A    between atoms: C4_5  and  C5_7 
REMARK    3  A    between atoms: C5_7  and  C6_8 
REMARK    4  A    between atoms: C10_14  and  N4_15 
REMARK    5  A    between atoms: N4_15  and  C11_16 
ROOT
HETATM    1  C6  UNL     1      24.505   1.432  53.028  1.00  0.00    -0.005 C 
HETATM    2  C7  UNL     1      23.766   2.477  52.729  1.00  0.00     0.004 A 
HETATM    3  C8  UNL     1      24.166   3.877  53.103  1.00  0.00     0.192 A 
HETATM    4  N2  UNL     1      23.227   4.848  52.723  1.00  0.00    -0.278 NA
HETATM    5  C9  UNL     1      22.118   4.713  52.103  1.00  0.00     0.229 A 
HETATM    6  N3  UNL     1      21.713   3.410  51.715  1.00  0.00    -0.224 NA
HETATM    7  C10 UNL     1      22.486   2.420  52.013  1.00  0.00     0.137 A 
ENDROOT
BRANCH   1   8
HETATM    8  C5  UNL     1      24.853   0.009  53.069  1.00  0.00     0.131 C 
BRANCH   8   9
HETATM    9  C4  UNL     1      26.055  -0.147  53.965  1.00  0.00     0.224 C 
HETATM   10  N1  UNL     1      27.284   0.511  53.691  1.00  0.00    -0.337 N 
HETATM   11  H6  UNL     1      27.236   1.087  52.825  1.00  0.00     0.168 HD
HETATM   12  O1  UNL     1      25.906  -0.899  54.980  1.00  0.00    -0.273 OA
BRANCH  10  13
HETATM   13  C3  UNL     1      28.261   0.224  54.653  1.00  0.00     0.086 C 
HETATM   14  C2  UNL     1      29.062   1.264  54.601  1.00  0.00    -0.014 C 
HETATM   15  C1  UNL     1      28.667   2.290  53.612  1.00  0.00     0.037 C 
ENDBRANCH  10  13
ENDBRANCH   8   9
ENDBRANCH   1   8
BRANCH   7  16
HETATM   16  N4  UNL     1      22.030   1.153  51.567  1.00  0.00    -0.340 N 
HETATM   17  H13 UNL     1      22.581   0.757  50.747  1.00  0.00     0.167 HD
BRANCH  16  18
HETATM   18  C11 UNL     1      20.947   0.424  52.117  1.00  0.00     0.035 A 
HETATM   19  C12 UNL     1      20.954  -0.307  53.281  1.00  0.00     0.029 A 
HETATM   20  C13 UNL     1      19.847  -0.986  53.744  1.00  0.00     0.004 A 
HETATM   21  C14 UNL     1      18.655  -0.969  53.056  1.00  0.00     0.019 A 
HETATM   22  C15 UNL     1      18.619  -0.241  51.882  1.00  0.00     0.013 A 
HETATM   23 BR1  UNL     1      17.001  -0.158  50.853  1.00  0.00    -0.051 Br
HETATM   24  C16 UNL     1      19.743   0.427  51.444  1.00  0.00     0.048 A 
ENDBRANCH  16  18
ENDBRANCH   7  16
TORSDOF 5
ENDMDL
MODEL 9
REMARK VINA RESULT:      -7.2      3.434      5.296
REMARK  5 active torsions:
REMARK  status: ('A' for Active; 'I' for Inactive)
REMARK    1  A    between atoms: C3_3  and  N1_4 
REMARK       I    between atoms: N1_4  and  C4_5 
REMARK    2  A    between atoms: C4_5  and  C5_7 
REMARK    3  A    between atoms: C5_7  and  C6_8 
REMARK    4  A    between atoms: C10_14  and  N4_15 
REMARK    5  A    between atoms: N4_15  and  C11_16 
ROOT
HETATM    1  C6  UNL     1      22.044   0.805  52.279  1.00  0.00    -0.005 C 
HETATM    2  C7  UNL     1      22.455   0.081  53.297  1.00  0.00     0.004 A 
HETATM    3  C8  UNL     1      21.503  -0.531  54.284  1.00  0.00     0.192 A 
HETATM    4  N2  UNL     1      22.143  -1.239  55.314  1.00  0.00    -0.278 NA
HETATM    5  C9  UNL     1      23.388  -1.443  55.513  1.00  0.00     0.229 A 
HETATM    6  N3  UNL     1      24.319  -0.898  54.593  1.00  0.00    -0.224 NA
HETATM    7  C10 UNL     1      23.861  -0.214  53.598  1.00  0.00     0.137 A 
ENDROOT
BRANCH   1   8
HETATM    8  C5  UNL     1      22.194   1.622  51.072  1.00  0.00     0.131 C 
BRANCH   8   9
HETATM    9  C4  UNL     1      22.500   3.033  51.505  1.00  0.00     0.224 C 
HETATM   10  N1  UNL     1      21.648   4.121  51.173  1.00  0.00    -0.337 N 
HETATM   11  H6  UNL     1      20.823   3.816  50.616  1.00  0.00     0.168 HD
HETATM   12  O1  UNL     1      23.563   3.194  52.186  1.00  0.00    -0.273 OA
BRANCH  10  13
HETATM   13  C3  UNL     1      22.126   5.337  51.678  1.00  0.00     0.086 C 
HETATM   14  C2  UNL     1      21.519   6.238  50.938  1.00  0.00    -0.014 C 
HETATM   15  C1  UNL     1      20.614   5.677  49.912  1.00  0.00     0.037 C 
ENDBRANCH  10  13
ENDBRANCH   8   9
ENDBRANCH   1   8
BRANCH   7  16
HETATM   16  N4  UNL     1      24.849   0.274  52.705  1.00  0.00    -0.340 N 
HETATM   17  H13 UNL     1      24.536   0.312  51.689  1.00  0.00     0.167 HD
BRANCH  16  18
HETATM   18  C11 UNL     1      26.155   0.691  53.065  1.00  0.00     0.035 A 
HETATM   19  C12 UNL     1      26.550   1.965  53.393  1.00  0.00     0.029 A 
HETATM   20  C13 UNL     1      27.847   2.281  53.735  1.00  0.00     0.004 A 
HETATM   21  C14 UNL     1      28.835   1.323  53.766  1.00  0.00     0.019 A 
HETATM   22  C15 UNL     1      28.466   0.032  53.440  1.00  0.00     0.013 A 
HETATM   23 BR1  UNL     1      29.773  -1.374  53.455  1.00  0.00    -0.051 Br
HETATM   24  C16 UNL     1      27.160  -0.254  53.102  1.00  0.00     0.048 A 
ENDBRANCH  16  18
ENDBRANCH   7  16
TORSDOF 5
ENDMDL
