MODEL 1
REMARK VINA RESULT:      -8.5      0.000      0.000
REMARK  6 active torsions:
REMARK  status: ('A' for Active; 'I' for Inactive)
REMARK    1  A    between atoms: C2_2  and  N1_3 
REMARK    2  A    between atoms: C4_5  and  O1_6 
REMARK    3  A    between atoms: O1_6  and  C5_7 
REMARK    4  A    between atoms: C16_18  and  C17_19 
REMARK    5  A    between atoms: C19_22  and  N3_23 
REMARK    6  A    between atoms: C20_25  and  N5_26 
ROOT
HETATM    1  N1  UNL     1      24.901   3.439  50.580  1.00  0.00    -0.354 N 
HETATM    2  C3  UNL     1      25.798   2.323  50.778  1.00  0.00     0.192 A 
HETATM    3  C4  UNL     1      25.336   1.454  51.904  1.00  0.00     0.066 A 
HETATM    4  C14 UNL     1      24.236   1.774  52.558  1.00  0.00     0.036 A 
HETATM    5  C15 UNL     1      23.464   2.951  52.206  1.00  0.00     0.033 A 
HETATM    6  C16 UNL     1      23.717   3.818  51.255  1.00  0.00     0.049 A 
ENDROOT
BRANCH   6   7
HETATM    7  C17 UNL     1      22.923   4.933  50.925  1.00  0.00     0.050 A 
HETATM    8  C18 UNL     1      21.721   4.937  50.279  1.00  0.00     0.153 A 
HETATM    9  N2  UNL     1      20.969   5.997  50.004  1.00  0.00    -0.074 NA
HETATM   10  C19 UNL     1      21.362   7.254  50.367  1.00  0.00     0.721 A 
HETATM   11  N4  UNL     1      22.548   7.316  51.011  1.00  0.00    -0.050 NA
HETATM   12  C20 UNL     1      23.274   6.213  51.268  1.00  0.00     0.134 A 
BRANCH  10  13
HETATM   13  N3  UNL     1      20.532   8.357  50.054  1.00  0.00    -0.231 N 
HETATM   14  H20 UNL     1      20.262   8.365  49.036  1.00  0.00     0.174 HD
HETATM   15  H21 UNL     1      20.238   9.057  50.760  1.00  0.00     0.174 HD
ENDBRANCH  10  13
BRANCH  12  16
HETATM   16  N5  UNL     1      24.435   6.633  51.960  1.00  0.00    -0.286 NA
HETATM   17  H22 UNL     1      25.127   6.791  51.170  1.00  0.00     0.125 HD
HETATM   18  H23 UNL     1      25.164   6.805  51.206  1.00  0.00     0.125 HD
ENDBRANCH  12  16
ENDBRANCH   6   7
BRANCH   1  19
HETATM   19  C2  UNL     1      25.484   4.117  49.484  1.00  0.00     0.065 C 
HETATM   20  C1  UNL     1      26.814   4.141  49.289  1.00  0.00     0.050 C 
ENDBRANCH   1  19
BRANCH   3  21
HETATM   21  O1  UNL     1      26.209   0.427  52.044  1.00  0.00    -0.340 OA
BRANCH  21  22
HETATM   22  C5  UNL     1      26.218  -0.515  53.096  1.00  0.00     0.180 C 
HETATM   23  C6  UNL     1      26.765  -1.816  52.617  1.00  0.00     0.010 C 
HETATM   24  C7  UNL     1      27.883  -2.501  52.622  1.00  0.00    -0.001 C 
HETATM   25  C8  UNL     1      29.207  -2.225  53.171  1.00  0.00    -0.004 C 
HETATM   26  C9  UNL     1      29.878  -1.205  53.698  1.00  0.00    -0.023 C 
HETATM   27  C10 UNL     1      29.458   0.219  53.949  1.00  0.00     0.054 C 
HETATM   28  C11 UNL     1      28.161   0.251  54.675  1.00  0.00    -0.018 C 
HETATM   29  C12 UNL     1      26.903  -0.041  54.318  1.00  0.00    -0.054 C 
HETATM   30  C13 UNL     1      26.019   0.195  55.519  1.00  0.00     0.046 C 
ENDBRANCH  21  22
ENDBRANCH   3  21
TORSDOF 6
ENDMDL
MODEL 2
REMARK VINA RESULT:      -8.3      0.804      1.841
REMARK  6 active torsions:
REMARK  status: ('A' for Active; 'I' for Inactive)
REMARK    1  A    between atoms: C2_2  and  N1_3 
REMARK    2  A    between atoms: C4_5  and  O1_6 
REMARK    3  A    between atoms: O1_6  and  C5_7 
REMARK    4  A    between atoms: C16_18  and  C17_19 
REMARK    5  A    between atoms: C19_22  and  N3_23 
REMARK    6  A    between atoms: C20_25  and  N5_26 
ROOT
HETATM    1  N1  UNL     1      24.022   3.013  51.511  1.00  0.00    -0.354 N 
HETATM    2  C3  UNL     1      24.801   1.858  51.903  1.00  0.00     0.192 A 
HETATM    3  C4  UNL     1      26.149   1.875  51.255  1.00  0.00     0.066 A 
HETATM    4  C14 UNL     1      26.467   2.868  50.448  1.00  0.00     0.036 A 
HETATM    5  C15 UNL     1      25.535   3.946  50.176  1.00  0.00     0.033 A 
HETATM    6  C16 UNL     1      24.322   4.095  50.653  1.00  0.00     0.049 A 
ENDROOT
BRANCH   6   7
HETATM    7  C17 UNL     1      23.459   5.176  50.388  1.00  0.00     0.050 A 
HETATM    8  C18 UNL     1      22.452   5.231  49.469  1.00  0.00     0.153 A 
HETATM    9  N2  UNL     1      21.626   6.248  49.254  1.00  0.00    -0.074 NA
HETATM   10  C19 UNL     1      21.722   7.401  49.980  1.00  0.00     0.721 A 
HETATM   11  N4  UNL     1      22.704   7.409  50.908  1.00  0.00    -0.050 NA
HETATM   12  C20 UNL     1      23.516   6.351  51.090  1.00  0.00     0.134 A 
BRANCH  10  13
HETATM   13  N3  UNL     1      20.822   8.462  49.719  1.00  0.00    -0.231 N 
HETATM   14  H20 UNL     1      21.261   9.400  49.910  1.00  0.00     0.174 HD
HETATM   15  H21 UNL     1      19.855   8.308  49.381  1.00  0.00     0.174 HD
ENDBRANCH  10  13
BRANCH  12  16
HETATM   16  N5  UNL     1      24.407   6.689  52.137  1.00  0.00    -0.286 NA
HETATM   17  H22 UNL     1      25.310   6.222  51.828  1.00  0.00     0.125 HD
HETATM   18  H23 UNL     1      25.333   6.240  51.872  1.00  0.00     0.125 HD
ENDBRANCH  12  16
ENDBRANCH   6   7
BRANCH   1  19
HETATM   19  C2  UNL     1      22.815   2.831  52.227  1.00  0.00     0.065 C 
HETATM   20  C1  UNL     1      22.420   1.621  52.659  1.00  0.00     0.050 C 
ENDBRANCH   1  19
BRANCH   3  21
HETATM   21  O1  UNL     1      26.834   0.776  51.656  1.00  0.00    -0.340 OA
BRANCH  21  22
HETATM   22  C5  UNL     1      26.518  -0.039  52.765  1.00  0.00     0.180 C 
HETATM   23  C6  UNL     1      26.586  -1.477  52.383  1.00  0.00     0.010 C 
HETATM   24  C7  UNL     1      27.402  -2.502  52.458  1.00  0.00    -0.001 C 
HETATM   25  C8  UNL     1      28.739  -2.659  53.022  1.00  0.00    -0.004 C 
HETATM   26  C9  UNL     1      29.718  -1.897  53.500  1.00  0.00    -0.023 C 
HETATM   27  C10 UNL     1      29.812  -0.402  53.651  1.00  0.00     0.054 C 
HETATM   28  C11 UNL     1      28.603   0.121  54.341  1.00  0.00    -0.018 C 
HETATM   29  C12 UNL     1      27.321   0.253  53.972  1.00  0.00    -0.054 C 
HETATM   30  C13 UNL     1      26.570   0.858  55.133  1.00  0.00     0.046 C 
ENDBRANCH  21  22
ENDBRANCH   3  21
TORSDOF 6
ENDMDL
MODEL 3
REMARK VINA RESULT:      -8.0      3.343      7.852
REMARK  6 active torsions:
REMARK  status: ('A' for Active; 'I' for Inactive)
REMARK    1  A    between atoms: C2_2  and  N1_3 
REMARK    2  A    between atoms: C4_5  and  O1_6 
REMARK    3  A    between atoms: O1_6  and  C5_7 
REMARK    4  A    between atoms: C16_18  and  C17_19 
REMARK    5  A    between atoms: C19_22  and  N3_23 
REMARK    6  A    between atoms: C20_25  and  N5_26 
ROOT
HETATM    1  N1  UNL     1      25.479   2.305  51.495  1.00  0.00    -0.354 N 
HETATM    2  C3  UNL     1      24.389   3.108  50.987  1.00  0.00     0.192 A 
HETATM    3  C4  UNL     1      23.135   2.866  51.765  1.00  0.00     0.066 A 
HETATM    4  C14 UNL     1      23.148   2.004  52.763  1.00  0.00     0.036 A 
HETATM    5  C15 UNL     1      24.357   1.286  53.122  1.00  0.00     0.033 A 
HETATM    6  C16 UNL     1      25.537   1.373  52.557  1.00  0.00     0.049 A 
ENDROOT
BRANCH   6   7
HETATM    7  C17 UNL     1      26.696   0.680  52.958  1.00  0.00     0.050 A 
HETATM    8  C18 UNL     1      27.004  -0.630  52.728  1.00  0.00     0.153 A 
HETATM    9  N2  UNL     1      28.117  -1.260  53.086  1.00  0.00    -0.074 NA
HETATM   10  C19 UNL     1      29.111  -0.608  53.757  1.00  0.00     0.721 A 
HETATM   11  N4  UNL     1      28.865   0.695  54.016  1.00  0.00    -0.050 NA
HETATM   12  C20 UNL     1      27.721   1.290  53.632  1.00  0.00     0.134 A 
BRANCH  10  13
HETATM   13  N3  UNL     1      30.282  -1.317  54.121  1.00  0.00    -0.231 N 
HETATM   14  H20 UNL     1      31.151  -0.841  53.765  1.00  0.00     0.174 HD
HETATM   15  H21 UNL     1      30.259  -2.195  54.671  1.00  0.00     0.174 HD
ENDBRANCH  10  13
BRANCH  12  16
HETATM   16  N5  UNL     1      27.800   2.642  54.043  1.00  0.00    -0.286 NA
HETATM   17  H22 UNL     1      26.812   2.834  54.384  1.00  0.00     0.125 HD
HETATM   18  H23 UNL     1      26.826   2.884  54.396  1.00  0.00     0.125 HD
ENDBRANCH  12  16
ENDBRANCH   6   7
BRANCH   1  19
HETATM   19  C2  UNL     1      26.558   2.681  50.661  1.00  0.00     0.065 C 
HETATM   20  C1  UNL     1      26.368   3.351  49.510  1.00  0.00     0.050 C 
ENDBRANCH   1  19
BRANCH   3  21
HETATM   21  O1  UNL     1      22.150   3.642  51.249  1.00  0.00    -0.340 OA
BRANCH  21  22
HETATM   22  C5  UNL     1      20.959   3.179  50.648  1.00  0.00     0.180 C 
HETATM   23  C6  UNL     1      20.352   4.253  49.814  1.00  0.00     0.010 C 
HETATM   24  C7  UNL     1      20.279   4.636  48.561  1.00  0.00    -0.001 C 
HETATM   25  C8  UNL     1      20.838   4.090  47.328  1.00  0.00    -0.004 C 
HETATM   26  C9  UNL     1      21.722   3.170  46.953  1.00  0.00    -0.023 C 
HETATM   27  C10 UNL     1      22.578   2.241  47.772  1.00  0.00     0.054 C 
HETATM   28  C11 UNL     1      21.745   1.526  48.775  1.00  0.00    -0.018 C 
HETATM   29  C12 UNL     1      21.121   1.915  49.895  1.00  0.00    -0.054 C 
HETATM   30  C13 UNL     1      20.430   0.708  50.479  1.00  0.00     0.046 C 
ENDBRANCH  21  22
ENDBRANCH   3  21
TORSDOF 6
ENDMDL
MODEL 4
REMARK VINA RESULT:      -8.0      3.356      7.501
REMARK  6 active torsions:
REMARK  status: ('A' for Active; 'I' for Inactive)
REMARK    1  A    between atoms: C2_2  and  N1_3 
REMARK    2  A    between atoms: C4_5  and  O1_6 
REMARK    3  A    between atoms: O1_6  and  C5_7 
REMARK    4  A    between atoms: C16_18  and  C17_19 
REMARK    5  A    between atoms: C19_22  and  N3_23 
REMARK    6  A    between atoms: C20_25  and  N5_26 
ROOT
HETATM    1  N1  UNL     1      25.631   2.576  51.370  1.00  0.00    -0.354 N 
HETATM    2  C3  UNL     1      24.582   3.432  50.864  1.00  0.00     0.192 A 
HETATM    3  C4  UNL     1      23.331   3.284  51.670  1.00  0.00     0.066 A 
HETATM    4  C14 UNL     1      23.312   2.444  52.686  1.00  0.00     0.036 A 
HETATM    5  C15 UNL     1      24.482   1.661  53.039  1.00  0.00     0.033 A 
HETATM    6  C16 UNL     1      25.654   1.664  52.451  1.00  0.00     0.049 A 
ENDROOT
BRANCH   6   7
HETATM    7  C17 UNL     1      26.776   0.910  52.846  1.00  0.00     0.050 A 
HETATM    8  C18 UNL     1      27.045  -0.396  52.557  1.00  0.00     0.153 A 
HETATM    9  N2  UNL     1      28.125  -1.083  52.911  1.00  0.00    -0.074 NA
HETATM   10  C19 UNL     1      29.122  -0.503  53.641  1.00  0.00     0.721 A 
HETATM   11  N4  UNL     1      28.914   0.793  53.961  1.00  0.00    -0.050 NA
HETATM   12  C20 UNL     1      27.802   1.448  53.578  1.00  0.00     0.134 A 
BRANCH  10  13
HETATM   13  N3  UNL     1      30.256  -1.271  53.998  1.00  0.00    -0.231 N 
HETATM   14  H20 UNL     1      30.393  -2.088  53.349  1.00  0.00     0.174 HD
HETATM   15  H21 UNL     1      30.863  -1.035  54.805  1.00  0.00     0.174 HD
ENDBRANCH  10  13
BRANCH  12  16
HETATM   16  N5  UNL     1      27.916   2.774  54.061  1.00  0.00    -0.286 NA
HETATM   17  H22 UNL     1      27.731   2.653  55.101  1.00  0.00     0.125 HD
HETATM   18  H23 UNL     1      27.737   2.706  55.107  1.00  0.00     0.125 HD
ENDBRANCH  12  16
ENDBRANCH   6   7
BRANCH   1  19
HETATM   19  C2  UNL     1      26.715   2.868  50.509  1.00  0.00     0.065 C 
HETATM   20  C1  UNL     1      26.599   3.740  49.491  1.00  0.00     0.050 C 
ENDBRANCH   1  19
BRANCH   3  21
HETATM   21  O1  UNL     1      22.385   4.107  51.155  1.00  0.00    -0.340 OA
BRANCH  21  22
HETATM   22  C5  UNL     1      21.315   3.720  50.320  1.00  0.00     0.180 C 
HETATM   23  C6  UNL     1      21.692   2.518  49.524  1.00  0.00     0.010 C 
HETATM   24  C7  UNL     1      21.540   1.215  49.532  1.00  0.00    -0.001 C 
HETATM   25  C8  UNL     1      20.849   0.309  50.443  1.00  0.00    -0.004 C 
HETATM   26  C9  UNL     1      20.274   0.342  51.643  1.00  0.00    -0.023 C 
HETATM   27  C10 UNL     1      20.111   1.477  52.620  1.00  0.00     0.054 C 
HETATM   28  C11 UNL     1      19.542   2.666  51.934  1.00  0.00    -0.018 C 
HETATM   29  C12 UNL     1      20.034   3.531  51.035  1.00  0.00    -0.054 C 
HETATM   30  C13 UNL     1      18.951   4.535  50.723  1.00  0.00     0.046 C 
ENDBRANCH  21  22
ENDBRANCH   3  21
TORSDOF 6
ENDMDL
MODEL 5
REMARK VINA RESULT:      -7.9      3.498      8.039
REMARK  6 active torsions:
REMARK  status: ('A' for Active; 'I' for Inactive)
REMARK    1  A    between atoms: C2_2  and  N1_3 
REMARK    2  A    between atoms: C4_5  and  O1_6 
REMARK    3  A    between atoms: O1_6  and  C5_7 
REMARK    4  A    between atoms: C16_18  and  C17_19 
REMARK    5  A    between atoms: C19_22  and  N3_23 
REMARK    6  A    between atoms: C20_25  and  N5_26 
ROOT
HETATM    1  N1  UNL     1      23.959   0.996  52.856  1.00  0.00    -0.354 N 
HETATM    2  C3  UNL     1      22.939   2.005  52.681  1.00  0.00     0.192 A 
HETATM    3  C4  UNL     1      23.439   3.134  51.837  1.00  0.00     0.066 A 
HETATM    4  C14 UNL     1      24.673   3.098  51.374  1.00  0.00     0.036 A 
HETATM    5  C15 UNL     1      25.556   1.985  51.666  1.00  0.00     0.033 A 
HETATM    6  C16 UNL     1      25.289   0.918  52.381  1.00  0.00     0.049 A 
ENDROOT
BRANCH   6   7
HETATM    7  C17 UNL     1      26.166  -0.159  52.615  1.00  0.00     0.050 A 
HETATM    8  C18 UNL     1      26.230  -1.343  51.940  1.00  0.00     0.153 A 
HETATM    9  N2  UNL     1      27.086  -2.335  52.153  1.00  0.00    -0.074 NA
HETATM   10  C19 UNL     1      28.037  -2.249  53.129  1.00  0.00     0.721 A 
HETATM   11  N4  UNL     1      28.025  -1.098  53.836  1.00  0.00    -0.050 NA
HETATM   12  C20 UNL     1      27.137  -0.119  53.582  1.00  0.00     0.134 A 
BRANCH  10  13
HETATM   13  N3  UNL     1      28.930  -3.330  53.324  1.00  0.00    -0.231 N 
HETATM   14  H20 UNL     1      28.444  -4.259  53.231  1.00  0.00     0.174 HD
HETATM   15  H21 UNL     1      29.937  -3.196  53.531  1.00  0.00     0.174 HD
ENDBRANCH  10  13
BRANCH  12  16
HETATM   16  N5  UNL     1      27.414   0.936  54.483  1.00  0.00    -0.286 NA
HETATM   17  H22 UNL     1      27.051   0.550  55.405  1.00  0.00     0.125 HD
HETATM   18  H23 UNL     1      27.066   0.595  55.428  1.00  0.00     0.125 HD
ENDBRANCH  12  16
ENDBRANCH   6   7
BRANCH   1  19
HETATM   19  C2  UNL     1      23.303   0.024  53.648  1.00  0.00     0.065 C 
HETATM   20  C1  UNL     1      22.474  -0.889  53.111  1.00  0.00     0.050 C 
ENDBRANCH   1  19
BRANCH   3  21
HETATM   21  O1  UNL     1      22.446   4.047  51.703  1.00  0.00    -0.340 OA
BRANCH  21  22
HETATM   22  C5  UNL     1      21.708   4.303  50.527  1.00  0.00     0.180 C 
HETATM   23  C6  UNL     1      22.568   4.105  49.327  1.00  0.00     0.010 C 
HETATM   24  C7  UNL     1      22.824   3.204  48.408  1.00  0.00    -0.001 C 
HETATM   25  C8  UNL     1      22.298   1.865  48.166  1.00  0.00    -0.004 C 
HETATM   26  C9  UNL     1      21.542   0.961  48.783  1.00  0.00    -0.023 C 
HETATM   27  C10 UNL     1      20.872   0.999  50.131  1.00  0.00     0.054 C 
HETATM   28  C11 UNL     1      20.093   2.257  50.281  1.00  0.00    -0.018 C 
HETATM   29  C12 UNL     1      20.444   3.541  50.435  1.00  0.00    -0.054 C 
HETATM   30  C13 UNL     1      19.176   4.355  50.530  1.00  0.00     0.046 C 
ENDBRANCH  21  22
ENDBRANCH   3  21
TORSDOF 6
ENDMDL
MODEL 6
REMARK VINA RESULT:      -7.8      3.102      4.530
REMARK  6 active torsions:
REMARK  status: ('A' for Active; 'I' for Inactive)
REMARK    1  A    between atoms: C2_2  and  N1_3 
REMARK    2  A    between atoms: C4_5  and  O1_6 
REMARK    3  A    between atoms: O1_6  and  C5_7 
REMARK    4  A    between atoms: C16_18  and  C17_19 
REMARK    5  A    between atoms: C19_22  and  N3_23 
REMARK    6  A    between atoms: C20_25  and  N5_26 
ROOT
HETATM    1  N1  UNL     1      24.708   4.640  50.301  1.00  0.00    -0.354 N 
HETATM    2  C3  UNL     1      24.589   3.411  51.054  1.00  0.00     0.192 A 
HETATM    3  C4  UNL     1      23.744   3.606  52.272  1.00  0.00     0.066 A 
HETATM    4  C14 UNL     1      23.232   4.796  52.521  1.00  0.00     0.036 A 
HETATM    5  C15 UNL     1      23.471   5.919  51.634  1.00  0.00     0.033 A 
HETATM    6  C16 UNL     1      24.179   5.931  50.530  1.00  0.00     0.049 A 
ENDROOT
BRANCH   6   7
HETATM    7  C17 UNL     1      24.361   7.038  49.679  1.00  0.00     0.050 A 
HETATM    8  C18 UNL     1      23.562   7.434  48.646  1.00  0.00     0.153 A 
HETATM    9  N2  UNL     1      23.731   8.501  47.873  1.00  0.00    -0.074 NA
HETATM   10  C19 UNL     1      24.787   9.347  48.060  1.00  0.00     0.721 A 
HETATM   11  N4  UNL     1      25.616   9.008  49.071  1.00  0.00    -0.050 NA
HETATM   12  C20 UNL     1      25.403   7.916  49.828  1.00  0.00     0.134 A 
BRANCH  10  13
HETATM   13  N3  UNL     1      24.930  10.473  47.214  1.00  0.00    -0.231 N 
HETATM   14  H20 UNL     1      24.923  11.373  47.760  1.00  0.00     0.174 HD
HETATM   15  H21 UNL     1      25.030  10.394  46.185  1.00  0.00     0.174 HD
ENDBRANCH  10  13
BRANCH  12  16
HETATM   16  N5  UNL     1      26.439   7.870  50.790  1.00  0.00    -0.286 NA
HETATM   17  H22 UNL     1      27.149   8.555  50.394  1.00  0.00     0.125 HD
HETATM   18  H23 UNL     1      27.180   8.545  50.436  1.00  0.00     0.125 HD
ENDBRANCH  12  16
ENDBRANCH   6   7
BRANCH   1  19
HETATM   19  C2  UNL     1      25.509   4.255  49.200  1.00  0.00     0.065 C 
HETATM   20  C1  UNL     1      26.850   4.355  49.227  1.00  0.00     0.050 C 
ENDBRANCH   1  19
BRANCH   3  21
HETATM   21  O1  UNL     1      23.665   2.427  52.936  1.00  0.00    -0.340 OA
BRANCH  21  22
HETATM   22  C5  UNL     1      23.496   1.155  52.349  1.00  0.00     0.180 C 
HETATM   23  C6  UNL     1      24.202   0.118  53.153  1.00  0.00     0.010 C 
HETATM   24  C7  UNL     1      23.954  -0.790  54.066  1.00  0.00    -0.001 C 
HETATM   25  C8  UNL     1      22.728  -1.199  54.745  1.00  0.00    -0.004 C 
HETATM   26  C9  UNL     1      21.473  -0.779  54.880  1.00  0.00    -0.023 C 
HETATM   27  C10 UNL     1      20.776   0.427  54.309  1.00  0.00     0.054 C 
HETATM   28  C11 UNL     1      21.007   0.507  52.843  1.00  0.00    -0.018 C 
HETATM   29  C12 UNL     1      22.083   0.795  52.097  1.00  0.00    -0.054 C 
HETATM   30  C13 UNL     1      21.673   0.708  50.647  1.00  0.00     0.046 C 
ENDBRANCH  21  22
ENDBRANCH   3  21
TORSDOF 6
ENDMDL
MODEL 7
REMARK VINA RESULT:      -7.7      2.906      8.215
REMARK  6 active torsions:
REMARK  status: ('A' for Active; 'I' for Inactive)
REMARK    1  A    between atoms: C2_2  and  N1_3 
REMARK    2  A    between atoms: C4_5  and  O1_6 
REMARK    3  A    between atoms: O1_6  and  C5_7 
REMARK    4  A    between atoms: C16_18  and  C17_19 
REMARK    5  A    between atoms: C19_22  and  N3_23 
REMARK    6  A    between atoms: C20_25  and  N5_26 
ROOT
HETATM    1  N1  UNL     1      25.564   3.213  51.212  1.00  0.00    -0.354 N 
HETATM    2  C3  UNL     1      24.817   4.384  50.809  1.00  0.00     0.192 A 
HETATM    3  C4  UNL     1      23.780   4.736  51.827  1.00  0.00     0.066 A 
HETATM    4  C14 UNL     1      23.658   3.994  52.911  1.00  0.00     0.036 A 
HETATM    5  C15 UNL     1      24.512   2.842  53.135  1.00  0.00     0.033 A 
HETATM    6  C16 UNL     1      25.467   2.391  52.357  1.00  0.00     0.049 A 
ENDROOT
BRANCH   6   7
HETATM    7  C17 UNL     1      26.296   1.285  52.628  1.00  0.00     0.050 A 
HETATM    8  C18 UNL     1      26.094  -0.015  52.266  1.00  0.00     0.153 A 
HETATM    9  N2  UNL     1      26.902  -1.042  52.502  1.00  0.00    -0.074 NA
HETATM   10  C19 UNL     1      28.081  -0.872  53.171  1.00  0.00     0.721 A 
HETATM   11  N4  UNL     1      28.339   0.396  53.557  1.00  0.00    -0.050 NA
HETATM   12  C20 UNL     1      27.488   1.405  53.294  1.00  0.00     0.134 A 
BRANCH  10  13
HETATM   13  N3  UNL     1      28.914  -1.993  53.402  1.00  0.00    -0.231 N 
HETATM   14  H20 UNL     1      28.431  -2.724  53.986  1.00  0.00     0.174 HD
HETATM   15  H21 UNL     1      29.880  -2.062  53.030  1.00  0.00     0.174 HD
ENDBRANCH  10  13
BRANCH  12  16
HETATM   16  N5  UNL     1      28.068   2.584  53.819  1.00  0.00    -0.286 NA
HETATM   17  H22 UNL     1      29.021   2.598  53.348  1.00  0.00     0.125 HD
HETATM   18  H23 UNL     1      29.032   2.643  53.374  1.00  0.00     0.125 HD
ENDBRANCH  12  16
ENDBRANCH   6   7
BRANCH   1  19
HETATM   19  C2  UNL     1      26.489   3.054  50.152  1.00  0.00     0.065 C 
HETATM   20  C1  UNL     1      26.774   4.056  49.302  1.00  0.00     0.050 C 
ENDBRANCH   1  19
BRANCH   3  21
HETATM   21  O1  UNL     1      23.113   5.837  51.402  1.00  0.00    -0.340 OA
BRANCH  21  22
HETATM   22  C5  UNL     1      21.715   5.949  51.243  1.00  0.00     0.180 C 
HETATM   23  C6  UNL     1      21.369   7.265  50.637  1.00  0.00     0.010 C 
HETATM   24  C7  UNL     1      21.071   7.792  49.473  1.00  0.00    -0.001 C 
HETATM   25  C8  UNL     1      20.942   7.221  48.136  1.00  0.00    -0.004 C 
HETATM   26  C9  UNL     1      21.209   6.080  47.506  1.00  0.00    -0.023 C 
HETATM   27  C10 UNL     1      21.822   4.801  48.012  1.00  0.00     0.054 C 
HETATM   28  C11 UNL     1      21.130   4.355  49.249  1.00  0.00    -0.018 C 
HETATM   29  C12 UNL     1      21.104   4.822  50.506  1.00  0.00    -0.054 C 
HETATM   30  C13 UNL     1      20.202   3.919  51.312  1.00  0.00     0.046 C 
ENDBRANCH  21  22
ENDBRANCH   3  21
TORSDOF 6
ENDMDL
MODEL 8
REMARK VINA RESULT:      -7.7      3.129      4.291
REMARK  6 active torsions:
REMARK  status: ('A' for Active; 'I' for Inactive)
REMARK    1  A    between atoms: C2_2  and  N1_3 
REMARK    2  A    between atoms: C4_5  and  O1_6 
REMARK    3  A    between atoms: O1_6  and  C5_7 
REMARK    4  A    between atoms: C16_18  and  C17_19 
REMARK    5  A    between atoms: C19_22  and  N3_23 
REMARK    6  A    between atoms: C20_25  and  N5_26 
ROOT
HETATM    1  N1  UNL     1      22.008   0.893  52.998  1.00  0.00    -0.354 N 
HETATM    2  C3  UNL     1      23.339   0.385  53.252  1.00  0.00     0.192 A 
HETATM    3  C4  UNL     1      24.299   0.846  52.201  1.00  0.00     0.066 A 
HETATM    4  C14 UNL     1      23.865   1.611  51.219  1.00  0.00     0.036 A 
HETATM    5  C15 UNL     1      22.474   2.016  51.137  1.00  0.00     0.033 A 
HETATM    6  C16 UNL     1      21.502   1.711  51.963  1.00  0.00     0.049 A 
ENDROOT
BRANCH   6   7
HETATM    7  C17 UNL     1      20.168   2.152  51.864  1.00  0.00     0.050 A 
HETATM    8  C18 UNL     1      19.698   3.423  52.024  1.00  0.00     0.153 A 
HETATM    9  N2  UNL     1      18.439   3.828  51.895  1.00  0.00    -0.074 NA
HETATM   10  C19 UNL     1      17.445   2.949  51.571  1.00  0.00     0.721 A 
HETATM   11  N4  UNL     1      17.848   1.671  51.400  1.00  0.00    -0.050 NA
HETATM   12  C20 UNL     1      19.137   1.309  51.541  1.00  0.00     0.134 A 
BRANCH  10  13
HETATM   13  N3  UNL     1      16.117   3.421  51.444  1.00  0.00    -0.231 N 
HETATM   14  H20 UNL     1      15.875   3.638  50.443  1.00  0.00     0.174 HD
HETATM   15  H21 UNL     1      15.479   3.530  52.255  1.00  0.00     0.174 HD
ENDBRANCH  10  13
BRANCH  12  16
HETATM   16  N5  UNL     1      19.208  -0.080  51.278  1.00  0.00    -0.286 NA
HETATM   17  H22 UNL     1      19.911  -0.413  52.002  1.00  0.00     0.125 HD
HETATM   18  H23 UNL     1      19.905  -0.463  51.983  1.00  0.00     0.125 HD
ENDBRANCH  12  16
ENDBRANCH   6   7
BRANCH   1  19
HETATM   19  C2  UNL     1      21.266   0.376  54.087  1.00  0.00     0.065 C 
HETATM   20  C1  UNL     1      21.644  -0.735  54.743  1.00  0.00     0.050 C 
ENDBRANCH   1  19
BRANCH   3  21
HETATM   21  O1  UNL     1      25.525   0.345  52.488  1.00  0.00    -0.340 OA
BRANCH  21  22
HETATM   22  C5  UNL     1      25.806  -0.674  53.424  1.00  0.00     0.180 C 
HETATM   23  C6  UNL     1      26.515  -1.803  52.759  1.00  0.00     0.010 C 
HETATM   24  C7  UNL     1      27.729  -2.271  52.590  1.00  0.00    -0.001 C 
HETATM   25  C8  UNL     1      29.036  -1.812  53.049  1.00  0.00    -0.004 C 
HETATM   26  C9  UNL     1      29.574  -0.741  53.626  1.00  0.00    -0.023 C 
HETATM   27  C10 UNL     1      28.945   0.553  54.069  1.00  0.00     0.054 C 
HETATM   28  C11 UNL     1      27.745   0.281  54.903  1.00  0.00    -0.018 C 
HETATM   29  C12 UNL     1      26.525  -0.200  54.627  1.00  0.00    -0.054 C 
HETATM   30  C13 UNL     1      25.745  -0.241  55.919  1.00  0.00     0.046 C 
ENDBRANCH  21  22
ENDBRANCH   3  21
TORSDOF 6
ENDMDL
MODEL 9
REMARK VINA RESULT:      -7.6      4.228      8.763
REMARK  6 active torsions:
REMARK  status: ('A' for Active; 'I' for Inactive)
REMARK    1  A    between atoms: C2_2  and  N1_3 
REMARK    2  A    between atoms: C4_5  and  O1_6 
REMARK    3  A    between atoms: O1_6  and  C5_7 
REMARK    4  A    between atoms: C16_18  and  C17_19 
REMARK    5  A    between atoms: C19_22  and  N3_23 
REMARK    6  A    between atoms: C20_25  and  N5_26 
ROOT
HETATM    1  N1  UNL     1      23.585   0.083  53.377  1.00  0.00    -0.354 N 
HETATM    2  C3  UNL     1      22.186   0.376  53.156  1.00  0.00     0.192 A 
HETATM    3  C4  UNL     1      22.011   1.347  52.032  1.00  0.00     0.066 A 
HETATM    4  C14 UNL     1      23.075   1.809  51.404  1.00  0.00     0.036 A 
HETATM    5  C15 UNL     1      24.412   1.391  51.780  1.00  0.00     0.033 A 
HETATM    6  C16 UNL     1      24.751   0.553  52.731  1.00  0.00     0.049 A 
ENDROOT
BRANCH   6   7
HETATM    7  C17 UNL     1      26.064   0.150  53.044  1.00  0.00     0.050 A 
HETATM    8  C18 UNL     1      26.636  -1.069  52.821  1.00  0.00     0.153 A 
HETATM    9  N2  UNL     1      27.887  -1.423  53.093  1.00  0.00    -0.074 NA
HETATM   10  C19 UNL     1      28.762  -0.539  53.657  1.00  0.00     0.721 A 
HETATM   11  N4  UNL     1      28.255   0.688  53.904  1.00  0.00    -0.050 NA
HETATM   12  C20 UNL     1      26.979   1.000  53.609  1.00  0.00     0.134 A 
BRANCH  10  13
HETATM   13  N3  UNL     1      30.087  -0.957  53.932  1.00  0.00    -0.231 N 
HETATM   14  H20 UNL     1      30.485  -0.460  54.771  1.00  0.00     0.174 HD
HETATM   15  H21 UNL     1      30.582  -1.668  53.363  1.00  0.00     0.174 HD
ENDBRANCH  10  13
BRANCH  12  16
HETATM   16  N5  UNL     1      26.788   2.353  53.978  1.00  0.00    -0.286 NA
HETATM   17  H22 UNL     1      25.788   2.351  54.339  1.00  0.00     0.125 HD
HETATM   18  H23 UNL     1      25.793   2.403  54.349  1.00  0.00     0.125 HD
ENDBRANCH  12  16
ENDBRANCH   6   7
BRANCH   1  19
HETATM   19  C2  UNL     1      23.544  -0.848  54.441  1.00  0.00     0.065 C 
HETATM   20  C1  UNL     1      22.390  -1.194  55.039  1.00  0.00     0.050 C 
ENDBRANCH   1  19
BRANCH   3  21
HETATM   21  O1  UNL     1      20.686   1.583  51.868  1.00  0.00    -0.340 OA
BRANCH  21  22
HETATM   22  C5  UNL     1      19.902   1.172  50.768  1.00  0.00     0.180 C 
HETATM   23  C6  UNL     1      18.863   0.201  51.210  1.00  0.00     0.010 C 
HETATM   24  C7  UNL     1      17.591   0.162  51.530  1.00  0.00    -0.001 C 
HETATM   25  C8  UNL     1      16.556   1.189  51.586  1.00  0.00    -0.004 C 
HETATM   26  C9  UNL     1      16.458   2.514  51.526  1.00  0.00    -0.023 C 
HETATM   27  C10 UNL     1      17.519   3.569  51.358  1.00  0.00     0.054 C 
HETATM   28  C11 UNL     1      18.394   3.237  50.203  1.00  0.00    -0.018 C 
HETATM   29  C12 UNL     1      19.321   2.292  49.995  1.00  0.00    -0.054 C 
HETATM   30  C13 UNL     1      19.864   2.481  48.600  1.00  0.00     0.046 C 
ENDBRANCH  21  22
ENDBRANCH   3  21
TORSDOF 6
ENDMDL
