MODEL 1
REMARK VINA RESULT:      -9.6      0.000      0.000
REMARK  0 active torsions:
REMARK  status: ('A' for Active; 'I' for Inactive)
ROOT
HETATM    1  C1  UNL     1      21.271  -0.178  54.916  1.00  0.00     0.017 C 
HETATM    2  C2  UNL     1      22.244  -0.195  54.191  1.00  0.00    -0.080 C 
HETATM    3  C3  UNL     1      23.373  -0.209  53.319  1.00  0.00     0.015 C 
HETATM    4  C4  UNL     1      24.329  -0.993  53.770  1.00  0.00     0.123 C 
HETATM    5  N1  UNL     1      25.543  -1.168  53.076  1.00  0.00    -0.310 N 
HETATM    6  N2  UNL     1      26.575  -1.805  52.404  1.00  0.00    -0.295 N 
HETATM    7  C5  UNL     1      27.855  -2.042  53.034  1.00  0.00     0.225 C 
HETATM    8  N3  UNL     1      28.639  -1.272  53.708  1.00  0.00    -0.218 NA
HETATM    9  C6  UNL     1      28.448   0.071  54.023  1.00  0.00     0.240 C 
HETATM   10  C7  UNL     1      29.427   0.943  53.845  1.00  0.00     0.051 C 
HETATM   11  C8  UNL     1      29.003   2.177  53.880  1.00  0.00     0.244 A 
HETATM   12  C9  UNL     1      27.763   2.249  53.418  1.00  0.00     0.214 A 
HETATM   13  C10 UNL     1      26.526   2.592  52.667  1.00  0.00     0.050 C 
HETATM   14  C11 UNL     1      25.355   2.581  53.645  1.00  0.00     0.042 C 
HETATM   15  C12 UNL     1      24.129   2.903  52.907  1.00  0.00    -0.051 A 
HETATM   16  C13 UNL     1      23.739   4.247  52.897  1.00  0.00     0.007 A 
HETATM   17  C14 UNL     1      22.623   4.754  52.266  1.00  0.00     0.001 A 
HETATM   18  C15 UNL     1      21.821   3.876  51.588  1.00  0.00     0.001 A 
HETATM   19  C16 UNL     1      22.194   2.550  51.590  1.00  0.00     0.008 A 
HETATM   20  C17 UNL     1      23.325   2.019  52.226  1.00  0.00    -0.047 A 
HETATM   21  C18 UNL     1      23.493   0.557  52.067  1.00  0.00     0.088 C 
HETATM   22  N4  UNL     1      27.790   1.274  54.476  1.00  0.00     0.010 N 
HETATM   23  H3  UNL     1      25.956  -0.221  53.006  1.00  0.00     0.186 HD
HETATM   24  H4  UNL     1      26.426  -2.119  51.422  1.00  0.00     0.187 HD
HETATM   25  H16 UNL     1      27.568   0.959  55.469  1.00  0.00     0.291 HD
ENDROOT
TORSDOF 0
ENDMDL
MODEL 2
REMARK VINA RESULT:      -9.1      3.790      5.913
REMARK  0 active torsions:
REMARK  status: ('A' for Active; 'I' for Inactive)
ROOT
HETATM    1  C1  UNL     1      21.347   1.032  52.615  1.00  0.00     0.017 C 
HETATM    2  C2  UNL     1      22.221   1.873  52.672  1.00  0.00    -0.080 C 
HETATM    3  C3  UNL     1      23.255   2.852  52.761  1.00  0.00     0.015 C 
HETATM    4  C4  UNL     1      22.945   3.951  52.106  1.00  0.00     0.123 C 
HETATM    5  N1  UNL     1      23.813   5.059  52.053  1.00  0.00    -0.310 N 
HETATM    6  N2  UNL     1      24.272   6.358  52.209  1.00  0.00    -0.295 N 
HETATM    7  C5  UNL     1      24.384   7.261  51.085  1.00  0.00     0.225 C 
HETATM    8  N3  UNL     1      24.900   7.117  49.912  1.00  0.00    -0.218 NA
HETATM    9  C6  UNL     1      25.522   5.985  49.389  1.00  0.00     0.240 C 
HETATM   10  C7  UNL     1      26.682   6.094  48.761  1.00  0.00     0.051 C 
HETATM   11  C8  UNL     1      27.276   4.941  48.617  1.00  0.00     0.244 A 
HETATM   12  C9  UNL     1      26.979   4.142  49.632  1.00  0.00     0.214 A 
HETATM   13  C10 UNL     1      27.026   3.223  50.800  1.00  0.00     0.050 C 
HETATM   14  C11 UNL     1      25.896   2.209  50.656  1.00  0.00     0.042 C 
HETATM   15  C12 UNL     1      25.928   1.308  51.814  1.00  0.00    -0.051 A 
HETATM   16  C13 UNL     1      26.638   0.112  51.657  1.00  0.00     0.007 A 
HETATM   17  C14 UNL     1      26.786  -0.865  52.618  1.00  0.00     0.001 A 
HETATM   18  C15 UNL     1      26.192  -0.657  53.834  1.00  0.00     0.001 A 
HETATM   19  C16 UNL     1      25.491   0.517  54.002  1.00  0.00     0.008 A 
HETATM   20  C17 UNL     1      25.331   1.519  53.034  1.00  0.00    -0.047 A 
HETATM   21  C18 UNL     1      24.529   2.682  53.478  1.00  0.00     0.088 C 
HETATM   22  N4  UNL     1      25.746   4.600  49.049  1.00  0.00     0.010 N 
HETATM   23  H3  UNL     1      24.685   4.703  51.622  1.00  0.00     0.186 HD
HETATM   24  H4  UNL     1      24.545   6.692  53.158  1.00  0.00     0.187 HD
HETATM   25  H16 UNL     1      24.868   4.445  48.466  1.00  0.00     0.291 HD
ENDROOT
TORSDOF 0
ENDMDL
MODEL 3
REMARK VINA RESULT:      -8.8      3.324      6.024
REMARK  0 active torsions:
REMARK  status: ('A' for Active; 'I' for Inactive)
ROOT
HETATM    1  C1  UNL     1      21.931   6.009  51.202  1.00  0.00     0.017 C 
HETATM    2  C2  UNL     1      21.786   4.815  51.043  1.00  0.00    -0.080 C 
HETATM    3  C3  UNL     1      21.629   3.412  50.834  1.00  0.00     0.015 C 
HETATM    4  C4  UNL     1      20.541   2.951  51.413  1.00  0.00     0.123 C 
HETATM    5  N1  UNL     1      20.174   1.592  51.343  1.00  0.00    -0.310 N 
HETATM    6  N2  UNL     1      19.419   0.463  51.066  1.00  0.00    -0.295 N 
HETATM    7  C5  UNL     1      18.722  -0.255  52.110  1.00  0.00     0.225 C 
HETATM    8  N3  UNL     1      19.102  -0.675  53.268  1.00  0.00    -0.218 NA
HETATM    9  C6  UNL     1      20.359  -0.539  53.852  1.00  0.00     0.240 C 
HETATM   10  C7  UNL     1      20.945  -1.580  54.422  1.00  0.00     0.051 C 
HETATM   11  C8  UNL     1      22.218  -1.378  54.631  1.00  0.00     0.244 A 
HETATM   12  C9  UNL     1      22.716  -0.583  53.695  1.00  0.00     0.214 A 
HETATM   13  C10 UNL     1      23.523   0.022  52.603  1.00  0.00     0.050 C 
HETATM   14  C11 UNL     1      23.648   1.518  52.873  1.00  0.00     0.042 C 
HETATM   15  C12 UNL     1      24.431   2.123  51.789  1.00  0.00    -0.051 A 
HETATM   16  C13 UNL     1      25.807   2.257  52.011  1.00  0.00     0.007 A 
HETATM   17  C14 UNL     1      26.713   2.799  51.124  1.00  0.00     0.001 A 
HETATM   18  C15 UNL     1      26.237   3.246  49.921  1.00  0.00     0.001 A 
HETATM   19  C16 UNL     1      24.885   3.120  49.691  1.00  0.00     0.008 A 
HETATM   20  C17 UNL     1      23.951   2.572  50.582  1.00  0.00    -0.047 A 
HETATM   21  C18 UNL     1      22.558   2.554  50.081  1.00  0.00     0.088 C 
HETATM   22  N4  UNL     1      21.587   0.081  54.291  1.00  0.00     0.010 N 
HETATM   23  H3  UNL     1      20.966   1.074  51.764  1.00  0.00     0.186 HD
HETATM   24  H4  UNL     1      19.353   0.122  50.083  1.00  0.00     0.187 HD
HETATM   25  H16 UNL     1      21.161   0.829  54.920  1.00  0.00     0.291 HD
ENDROOT
TORSDOF 0
ENDMDL
MODEL 4
REMARK VINA RESULT:      -8.4      2.090      2.696
REMARK  0 active torsions:
REMARK  status: ('A' for Active; 'I' for Inactive)
ROOT
HETATM    1  C1  UNL     1      20.038   3.203  52.500  1.00  0.00     0.017 C 
HETATM    2  C2  UNL     1      20.997   2.482  52.313  1.00  0.00    -0.080 C 
HETATM    3  C3  UNL     1      22.115   1.630  52.070  1.00  0.00     0.015 C 
HETATM    4  C4  UNL     1      22.587   1.114  53.184  1.00  0.00     0.123 C 
HETATM    5  N1  UNL     1      23.691   0.239  53.194  1.00  0.00    -0.310 N 
HETATM    6  N2  UNL     1      24.435  -0.912  53.407  1.00  0.00    -0.295 N 
HETATM    7  C5  UNL     1      25.406  -0.997  54.475  1.00  0.00     0.225 C 
HETATM    8  N3  UNL     1      26.351  -0.202  54.846  1.00  0.00    -0.218 NA
HETATM    9  C6  UNL     1      26.704   1.022  54.282  1.00  0.00     0.240 C 
HETATM   10  C7  UNL     1      27.973   1.294  54.024  1.00  0.00     0.051 C 
HETATM   11  C8  UNL     1      28.107   2.316  53.223  1.00  0.00     0.244 A 
HETATM   12  C9  UNL     1      27.080   2.380  52.387  1.00  0.00     0.214 A 
HETATM   13  C10 UNL     1      26.207   2.454  51.186  1.00  0.00     0.050 C 
HETATM   14  C11 UNL     1      25.028   3.366  51.508  1.00  0.00     0.042 C 
HETATM   15  C12 UNL     1      24.154   3.430  50.331  1.00  0.00    -0.051 A 
HETATM   16  C13 UNL     1      24.370   4.495  49.448  1.00  0.00     0.007 A 
HETATM   17  C14 UNL     1      23.659   4.734  48.291  1.00  0.00     0.001 A 
HETATM   18  C15 UNL     1      22.655   3.862  47.969  1.00  0.00     0.001 A 
HETATM   19  C16 UNL     1      22.432   2.810  48.829  1.00  0.00     0.008 A 
HETATM   20  C17 UNL     1      23.145   2.553  50.009  1.00  0.00    -0.047 A 
HETATM   21  C18 UNL     1      22.701   1.350  50.749  1.00  0.00     0.088 C 
HETATM   22  N4  UNL     1      26.562   2.347  53.728  1.00  0.00     0.010 N 
HETATM   23  H3  UNL     1      24.470   0.776  52.773  1.00  0.00     0.186 HD
HETATM   24  H4  UNL     1      24.293  -1.734  52.783  1.00  0.00     0.187 HD
HETATM   25  H16 UNL     1      26.105   2.814  54.571  1.00  0.00     0.291 HD
ENDROOT
TORSDOF 0
ENDMDL
MODEL 5
REMARK VINA RESULT:      -8.3      3.976      6.142
REMARK  0 active torsions:
REMARK  status: ('A' for Active; 'I' for Inactive)
ROOT
HETATM    1  C1  UNL     1      18.267   0.216  50.651  1.00  0.00     0.017 C 
HETATM    2  C2  UNL     1      19.005   1.127  50.966  1.00  0.00    -0.080 C 
HETATM    3  C3  UNL     1      19.865   2.195  51.360  1.00  0.00     0.015 C 
HETATM    4  C4  UNL     1      20.055   3.056  50.383  1.00  0.00     0.123 C 
HETATM    5  N1  UNL     1      20.869   4.196  50.537  1.00  0.00    -0.310 N 
HETATM    6  N2  UNL     1      21.240   5.530  50.575  1.00  0.00    -0.295 N 
HETATM    7  C5  UNL     1      22.030   6.126  49.520  1.00  0.00     0.225 C 
HETATM    8  N3  UNL     1      23.111   5.742  48.932  1.00  0.00    -0.218 NA
HETATM    9  C6  UNL     1      23.845   4.583  49.173  1.00  0.00     0.240 C 
HETATM   10  C7  UNL     1      25.161   4.644  49.307  1.00  0.00     0.051 C 
HETATM   11  C8  UNL     1      25.655   3.557  49.835  1.00  0.00     0.244 A 
HETATM   12  C9  UNL     1      24.782   3.016  50.672  1.00  0.00     0.214 A 
HETATM   13  C10 UNL     1      24.097   2.432  51.856  1.00  0.00     0.050 C 
HETATM   14  C11 UNL     1      23.186   1.307  51.373  1.00  0.00     0.042 C 
HETATM   15  C12 UNL     1      22.495   0.737  52.535  1.00  0.00    -0.051 A 
HETATM   16  C13 UNL     1      23.089  -0.383  53.129  1.00  0.00     0.007 A 
HETATM   17  C14 UNL     1      22.600  -1.065  54.223  1.00  0.00     0.001 A 
HETATM   18  C15 UNL     1      21.435  -0.616  54.784  1.00  0.00     0.001 A 
HETATM   19  C16 UNL     1      20.841   0.485  54.209  1.00  0.00     0.008 A 
HETATM   20  C17 UNL     1      21.325   1.189  53.097  1.00  0.00    -0.047 A 
HETATM   21  C18 UNL     1      20.490   2.340  52.685  1.00  0.00     0.088 C 
HETATM   22  N4  UNL     1      24.134   3.186  49.400  1.00  0.00     0.010 N 
HETATM   23  H3  UNL     1      21.806   3.831  50.786  1.00  0.00     0.186 HD
HETATM   24  H4  UNL     1      20.945   6.119  51.383  1.00  0.00     0.187 HD
HETATM   25  H16 UNL     1      23.735   2.801  48.490  1.00  0.00     0.291 HD
ENDROOT
TORSDOF 0
ENDMDL
MODEL 6
REMARK VINA RESULT:      -8.2      2.901      5.351
REMARK  0 active torsions:
REMARK  status: ('A' for Active; 'I' for Inactive)
ROOT
HETATM    1  C1  UNL     1      26.898   0.327  55.123  1.00  0.00     0.017 C 
HETATM    2  C2  UNL     1      26.518   0.643  54.015  1.00  0.00    -0.080 C 
HETATM    3  C3  UNL     1      26.064   0.990  52.708  1.00  0.00     0.015 C 
HETATM    4  C4  UNL     1      26.743   2.000  52.207  1.00  0.00     0.123 C 
HETATM    5  N1  UNL     1      26.474   2.521  50.926  1.00  0.00    -0.310 N 
HETATM    6  N2  UNL     1      26.680   2.900  49.608  1.00  0.00    -0.295 N 
HETATM    7  C5  UNL     1      26.833   4.289  49.236  1.00  0.00     0.225 C 
HETATM    8  N3  UNL     1      26.149   5.340  49.533  1.00  0.00    -0.218 NA
HETATM    9  C6  UNL     1      25.016   5.419  50.339  1.00  0.00     0.240 C 
HETATM   10  C7  UNL     1      23.956   6.100  49.932  1.00  0.00     0.051 C 
HETATM   11  C8  UNL     1      22.890   5.819  50.631  1.00  0.00     0.244 A 
HETATM   12  C9  UNL     1      22.932   4.561  51.046  1.00  0.00     0.214 A 
HETATM   13  C10 UNL     1      22.637   3.134  51.341  1.00  0.00     0.050 C 
HETATM   14  C11 UNL     1      23.153   2.819  52.741  1.00  0.00     0.042 C 
HETATM   15  C12 UNL     1      22.879   1.406  53.031  1.00  0.00    -0.051 A 
HETATM   16  C13 UNL     1      21.690   1.128  53.715  1.00  0.00     0.007 A 
HETATM   17  C14 UNL     1      21.251  -0.126  54.083  1.00  0.00     0.001 A 
HETATM   18  C15 UNL     1      22.038  -1.198  53.756  1.00  0.00     0.001 A 
HETATM   19  C16 UNL     1      23.211  -0.937  53.082  1.00  0.00     0.008 A 
HETATM   20  C17 UNL     1      23.671   0.332  52.702  1.00  0.00    -0.047 A 
HETATM   21  C18 UNL     1      24.966   0.329  51.984  1.00  0.00     0.088 C 
HETATM   22  N4  UNL     1      24.143   5.212  51.470  1.00  0.00     0.010 N 
HETATM   23  H3  UNL     1      25.484   2.826  50.957  1.00  0.00     0.186 HD
HETATM   24  H4  UNL     1      26.724   2.168  48.868  1.00  0.00     0.187 HD
HETATM   25  H16 UNL     1      24.764   5.644  52.220  1.00  0.00     0.291 HD
ENDROOT
TORSDOF 0
ENDMDL
MODEL 7
REMARK VINA RESULT:      -8.1      5.459      7.543
REMARK  0 active torsions:
REMARK  status: ('A' for Active; 'I' for Inactive)
ROOT
HETATM    1  C1  UNL     1      21.193   7.794  49.334  1.00  0.00     0.017 C 
HETATM    2  C2  UNL     1      22.307   7.675  49.800  1.00  0.00    -0.080 C 
HETATM    3  C3  UNL     1      23.607   7.523  50.370  1.00  0.00     0.015 C 
HETATM    4  C4  UNL     1      24.454   8.413  49.897  1.00  0.00     0.123 C 
HETATM    5  N1  UNL     1      25.799   8.461  50.314  1.00  0.00    -0.310 N 
HETATM    6  N2  UNL     1      26.974   8.959  50.855  1.00  0.00    -0.295 N 
HETATM    7  C5  UNL     1      28.080   9.363  50.016  1.00  0.00     0.225 C 
HETATM    8  N3  UNL     1      28.668   8.783  49.026  1.00  0.00    -0.218 NA
HETATM    9  C6  UNL     1      28.374   7.540  48.472  1.00  0.00     0.240 C 
HETATM   10  C7  UNL     1      29.345   6.676  48.221  1.00  0.00     0.051 C 
HETATM   11  C8  UNL     1      28.891   5.470  48.010  1.00  0.00     0.244 A 
HETATM   12  C9  UNL     1      27.789   5.265  48.717  1.00  0.00     0.214 A 
HETATM   13  C10 UNL     1      26.749   4.731  49.637  1.00  0.00     0.050 C 
HETATM   14  C11 UNL     1      25.386   4.929  48.982  1.00  0.00     0.042 C 
HETATM   15  C12 UNL     1      24.354   4.419  49.892  1.00  0.00    -0.051 A 
HETATM   16  C13 UNL     1      23.941   3.097  49.692  1.00  0.00     0.007 A 
HETATM   17  C14 UNL     1      22.987   2.433  50.433  1.00  0.00     0.001 A 
HETATM   18  C15 UNL     1      22.387   3.116  51.456  1.00  0.00     0.001 A 
HETATM   19  C16 UNL     1      22.784   4.419  51.664  1.00  0.00     0.008 A 
HETATM   20  C17 UNL     1      23.752   5.107  50.919  1.00  0.00    -0.047 A 
HETATM   21  C18 UNL     1      23.991   6.501  51.357  1.00  0.00     0.088 C 
HETATM   22  N4  UNL     1      27.598   6.452  47.926  1.00  0.00     0.010 N 
HETATM   23  H3  UNL     1      26.192   7.533  50.074  1.00  0.00     0.186 HD
HETATM   24  H4  UNL     1      27.064   9.042  51.890  1.00  0.00     0.187 HD
HETATM   25  H16 UNL     1      27.161   6.974  47.107  1.00  0.00     0.291 HD
ENDROOT
TORSDOF 0
ENDMDL
MODEL 8
REMARK VINA RESULT:      -7.9      2.216      4.762
REMARK  0 active torsions:
REMARK  status: ('A' for Active; 'I' for Inactive)
ROOT
HETATM    1  C1  UNL     1      22.933   2.924  48.196  1.00  0.00     0.017 C 
HETATM    2  C2  UNL     1      23.108   2.928  49.397  1.00  0.00    -0.080 C 
HETATM    3  C3  UNL     1      23.300   2.954  50.810  1.00  0.00     0.015 C 
HETATM    4  C4  UNL     1      24.404   2.333  51.165  1.00  0.00     0.123 C 
HETATM    5  N1  UNL     1      24.806   2.230  52.512  1.00  0.00    -0.310 N 
HETATM    6  N2  UNL     1      25.588   2.366  53.648  1.00  0.00    -0.295 N 
HETATM    7  C5  UNL     1      26.311   1.245  54.207  1.00  0.00     0.225 C 
HETATM    8  N3  UNL     1      25.951   0.038  54.482  1.00  0.00    -0.218 NA
HETATM    9  C6  UNL     1      24.695  -0.537  54.302  1.00  0.00     0.240 C 
HETATM   10  C7  UNL     1      24.141  -1.244  55.274  1.00  0.00     0.051 C 
HETATM   11  C8  UNL     1      22.865  -1.439  55.078  1.00  0.00     0.244 A 
HETATM   12  C9  UNL     1      22.340  -0.413  54.424  1.00  0.00     0.214 A 
HETATM   13  C10 UNL     1      21.508   0.740  53.987  1.00  0.00     0.050 C 
HETATM   14  C11 UNL     1      21.347   0.665  52.472  1.00  0.00     0.042 C 
HETATM   15  C12 UNL     1      20.540   1.809  52.033  1.00  0.00    -0.051 A 
HETATM   16  C13 UNL     1      19.163   1.592  51.905  1.00  0.00     0.007 A 
HETATM   17  C14 UNL     1      18.236   2.531  51.506  1.00  0.00     0.001 A 
HETATM   18  C15 UNL     1      18.691   3.788  51.207  1.00  0.00     0.001 A 
HETATM   19  C16 UNL     1      20.045   4.015  51.329  1.00  0.00     0.008 A 
HETATM   20  C17 UNL     1      20.999   3.070  51.734  1.00  0.00    -0.047 A 
HETATM   21  C18 UNL     1      22.388   3.580  51.782  1.00  0.00     0.088 C 
HETATM   22  N4  UNL     1      23.455  -0.905  53.661  1.00  0.00     0.010 N 
HETATM   23  H3  UNL     1      24.031   1.736  52.990  1.00  0.00     0.186 HD
HETATM   24  H4  UNL     1      25.655   3.297  54.112  1.00  0.00     0.187 HD
HETATM   25  H16 UNL     1      23.866  -1.427  52.827  1.00  0.00     0.291 HD
ENDROOT
TORSDOF 0
ENDMDL
MODEL 9
REMARK VINA RESULT:      -7.8      3.643      6.044
REMARK  0 active torsions:
REMARK  status: ('A' for Active; 'I' for Inactive)
ROOT
HETATM    1  C1  UNL     1      24.225   0.242  53.601  1.00  0.00     0.017 C 
HETATM    2  C2  UNL     1      24.132   0.969  52.634  1.00  0.00    -0.080 C 
HETATM    3  C3  UNL     1      24.011   1.805  51.485  1.00  0.00     0.015 C 
HETATM    4  C4  UNL     1      24.952   2.725  51.448  1.00  0.00     0.123 C 
HETATM    5  N1  UNL     1      25.038   3.667  50.403  1.00  0.00    -0.310 N 
HETATM    6  N2  UNL     1      25.561   4.375  49.333  1.00  0.00    -0.295 N 
HETATM    7  C5  UNL     1      26.042   5.730  49.485  1.00  0.00     0.225 C 
HETATM    8  N3  UNL     1      25.526   6.770  50.045  1.00  0.00    -0.218 NA
HETATM    9  C6  UNL     1      24.295   6.866  50.689  1.00  0.00     0.240 C 
HETATM   10  C7  UNL     1      23.481   7.876  50.422  1.00  0.00     0.051 C 
HETATM   11  C8  UNL     1      22.267   7.659  50.850  1.00  0.00     0.244 A 
HETATM   12  C9  UNL     1      21.990   6.364  50.806  1.00  0.00     0.214 A 
HETATM   13  C10 UNL     1      21.379   5.032  50.552  1.00  0.00     0.050 C 
HETATM   14  C11 UNL     1      21.547   4.182  51.807  1.00  0.00     0.042 C 
HETATM   15  C12 UNL     1      20.960   2.860  51.556  1.00  0.00    -0.051 A 
HETATM   16  C13 UNL     1      19.631   2.680  51.956  1.00  0.00     0.007 A 
HETATM   17  C14 UNL     1      18.901   1.520  51.813  1.00  0.00     0.001 A 
HETATM   18  C15 UNL     1      19.518   0.446  51.230  1.00  0.00     0.001 A 
HETATM   19  C16 UNL     1      20.827   0.611  50.831  1.00  0.00     0.008 A 
HETATM   20  C17 UNL     1      21.583   1.784  50.970  1.00  0.00    -0.047 A 
HETATM   21  C18 UNL     1      22.967   1.690  50.453  1.00  0.00     0.088 C 
HETATM   22  N4  UNL     1      23.198   6.536  51.568  1.00  0.00     0.010 N 
HETATM   23  H3  UNL     1      24.136   4.177  50.422  1.00  0.00     0.186 HD
HETATM   24  H4  UNL     1      25.606   3.922  48.395  1.00  0.00     0.187 HD
HETATM   25  H16 UNL     1      23.734   6.549  52.488  1.00  0.00     0.291 HD
ENDROOT
TORSDOF 0
ENDMDL
