MODEL 1
REMARK VINA RESULT:      -7.5      0.000      0.000
REMARK  2 active torsions:
REMARK  status: ('A' for Active; 'I' for Inactive)
REMARK    1  A    between atoms: N1_2  and  N2_3 
REMARK    2  A    between atoms: C6_8  and  O1_9 
ROOT
HETATM    1  N2  UNL     1      21.527   2.655  48.627  1.00  0.00    -0.181 NA
HETATM    2  C2  UNL     1      21.871   3.317  49.673  1.00  0.00     0.091 C 
HETATM    3  C3  UNL     1      23.161   3.974  49.829  1.00  0.00     0.063 C 
HETATM    4  C4  UNL     1      23.900   4.125  50.943  1.00  0.00     0.054 C 
HETATM    5  C5  UNL     1      23.010   4.713  51.978  1.00  0.00     0.066 C 
HETATM    6  C6  UNL     1      21.801   4.888  51.471  1.00  0.00     0.083 C 
HETATM    7  C8  UNL     1      21.172   3.616  50.950  1.00  0.00     0.231 C 
HETATM    8  O2  UNL     1      21.556   2.608  51.852  1.00  0.00    -0.369 OA
HETATM    9  C9  UNL     1      20.509   1.998  52.493  1.00  0.00     0.198 C 
HETATM   10  C10 UNL     1      20.984   0.939  53.404  1.00  0.00     0.018 C 
HETATM   11  C11 UNL     1      22.201   0.495  53.693  1.00  0.00     0.115 C 
HETATM   12  N3  UNL     1      23.161   1.216  52.956  1.00  0.00    -0.259 NA
HETATM   13  C12 UNL     1      24.351   0.855  52.690  1.00  0.00     0.086 A 
HETATM   14  C13 UNL     1      24.679  -0.374  53.198  1.00  0.00     0.034 A 
HETATM   15  C14 UNL     1      25.932  -0.937  53.011  1.00  0.00     0.002 A 
HETATM   16  C15 UNL     1      26.874  -0.223  52.286  1.00  0.00     0.003 A 
HETATM   17  C16 UNL     1      26.539   1.000  51.783  1.00  0.00     0.036 A 
HETATM   18  C17 UNL     1      25.303   1.576  51.957  1.00  0.00     0.105 A 
HETATM   19  N4  UNL     1      24.769   2.652  51.605  1.00  0.00    -0.172 NA
HETATM   20  N5  UNL     1      25.284   3.696  50.873  1.00  0.00    -0.278 N 
HETATM   21  H19 UNL     1      26.009   4.262  50.370  1.00  0.00     0.189 HD
ENDROOT
BRANCH   1  22
HETATM   22  N1  UNL     1      22.377   2.513  47.542  1.00  0.00    -0.318 N 
HETATM   23  C1  UNL     1      22.126   3.300  46.340  1.00  0.00     0.169 C 
HETATM   24  H4  UNL     1      23.222   1.870  47.486  1.00  0.00     0.181 HD
ENDBRANCH   1  22
BRANCH   6  25
HETATM   25  O1  UNL     1      21.641   6.254  51.661  1.00  0.00    -0.357 OA
HETATM   26  C7  UNL     1      21.632   7.223  50.655  1.00  0.00     0.209 C 
ENDBRANCH   6  25
TORSDOF 2
ENDMDL
MODEL 2
REMARK VINA RESULT:      -7.3      2.826      4.551
REMARK  2 active torsions:
REMARK  status: ('A' for Active; 'I' for Inactive)
REMARK    1  A    between atoms: N1_2  and  N2_3 
REMARK    2  A    between atoms: C6_8  and  O1_9 
ROOT
HETATM    1  N2  UNL     1      26.246   6.714  48.351  1.00  0.00    -0.181 NA
HETATM    2  C2  UNL     1      25.098   6.943  48.881  1.00  0.00     0.091 C 
HETATM    3  C3  UNL     1      24.904   7.265  50.288  1.00  0.00     0.063 C 
HETATM    4  C4  UNL     1      23.885   6.922  51.097  1.00  0.00     0.054 C 
HETATM    5  C5  UNL     1      22.629   7.316  50.406  1.00  0.00     0.066 C 
HETATM    6  C6  UNL     1      22.923   7.862  49.238  1.00  0.00     0.083 C 
HETATM    7  C8  UNL     1      23.719   6.956  48.327  1.00  0.00     0.231 C 
HETATM    8  O2  UNL     1      23.201   5.665  48.533  1.00  0.00    -0.369 OA
HETATM    9  C9  UNL     1      22.653   5.093  47.414  1.00  0.00     0.198 C 
HETATM   10  C10 UNL     1      22.153   3.735  47.698  1.00  0.00     0.018 C 
HETATM   11  C11 UNL     1      22.146   3.004  48.807  1.00  0.00     0.115 C 
HETATM   12  N3  UNL     1      22.743   3.725  49.859  1.00  0.00    -0.259 NA
HETATM   13  C12 UNL     1      23.236   3.248  50.930  1.00  0.00     0.086 A 
HETATM   14  C13 UNL     1      23.151   1.884  51.014  1.00  0.00     0.034 A 
HETATM   15  C14 UNL     1      23.636   1.183  52.108  1.00  0.00     0.002 A 
HETATM   16  C15 UNL     1      24.221   1.897  53.142  1.00  0.00     0.003 A 
HETATM   17  C16 UNL     1      24.302   3.255  53.050  1.00  0.00     0.036 A 
HETATM   18  C17 UNL     1      23.829   3.969  51.975  1.00  0.00     0.105 A 
HETATM   19  N4  UNL     1      23.786   5.182  51.665  1.00  0.00    -0.172 NA
HETATM   20  N5  UNL     1      24.234   6.285  52.352  1.00  0.00    -0.278 N 
HETATM   21  H19 UNL     1      24.627   6.834  53.155  1.00  0.00     0.189 HD
ENDROOT
BRANCH   1  22
HETATM   22  N1  UNL     1      27.414   6.759  49.096  1.00  0.00    -0.318 N 
HETATM   23  C1  UNL     1      28.588   7.414  48.529  1.00  0.00     0.169 C 
HETATM   24  H4  UNL     1      27.554   6.354  50.069  1.00  0.00     0.181 HD
ENDBRANCH   1  22
BRANCH   6  25
HETATM   25  O1  UNL     1      22.324   9.107  49.382  1.00  0.00    -0.357 OA
HETATM   26  C7  UNL     1      20.957   9.373  49.278  1.00  0.00     0.209 C 
ENDBRANCH   6  25
TORSDOF 2
ENDMDL
MODEL 3
REMARK VINA RESULT:      -6.9      9.370     11.893
REMARK  2 active torsions:
REMARK  status: ('A' for Active; 'I' for Inactive)
REMARK    1  A    between atoms: N1_2  and  N2_3 
REMARK    2  A    between atoms: C6_8  and  O1_9 
ROOT
HETATM    1  N2  UNL     1      29.551   5.263  47.983  1.00  0.00    -0.181 NA
HETATM    2  C2  UNL     1      30.743   5.726  48.110  1.00  0.00     0.091 C 
HETATM    3  C3  UNL     1      31.224   6.416  49.298  1.00  0.00     0.063 C 
HETATM    4  C4  UNL     1      32.093   7.440  49.384  1.00  0.00     0.054 C 
HETATM    5  C5  UNL     1      33.304   7.047  48.616  1.00  0.00     0.066 C 
HETATM    6  C6  UNL     1      33.129   5.840  48.106  1.00  0.00     0.083 C 
HETATM    7  C8  UNL     1      31.921   5.731  47.204  1.00  0.00     0.231 C 
HETATM    8  O2  UNL     1      31.867   6.945  46.497  1.00  0.00    -0.369 OA
HETATM    9  C9  UNL     1      31.984   6.812  45.138  1.00  0.00     0.198 C 
HETATM   10  C10 UNL     1      31.896   8.121  44.463  1.00  0.00     0.018 C 
HETATM   11  C11 UNL     1      31.727   9.352  44.930  1.00  0.00     0.115 C 
HETATM   12  N3  UNL     1      31.622   9.321  46.334  1.00  0.00    -0.259 NA
HETATM   13  C12 UNL     1      31.107  10.211  47.083  1.00  0.00     0.086 A 
HETATM   14  C13 UNL     1      30.619  11.291  46.395  1.00  0.00     0.034 A 
HETATM   15  C14 UNL     1      30.020  12.363  47.040  1.00  0.00     0.002 A 
HETATM   16  C15 UNL     1      29.920  12.329  48.423  1.00  0.00     0.003 A 
HETATM   17  C16 UNL     1      30.408  11.250  49.098  1.00  0.00     0.036 A 
HETATM   18  C17 UNL     1      31.005  10.177  48.479  1.00  0.00     0.105 A 
HETATM   19  N4  UNL     1      31.516   9.102  48.866  1.00  0.00    -0.172 NA
HETATM   20  N5  UNL     1      31.662   8.601  50.139  1.00  0.00    -0.278 N 
HETATM   21  H19 UNL     1      31.637   8.595  51.187  1.00  0.00     0.189 HD
ENDROOT
BRANCH   1  22
HETATM   22  N1  UNL     1      28.610   5.389  48.994  1.00  0.00    -0.318 N 
HETATM   23  C1  UNL     1      27.198   5.230  48.667  1.00  0.00     0.169 C 
HETATM   24  H4  UNL     1      28.812   5.597  50.016  1.00  0.00     0.181 HD
ENDBRANCH   1  22
BRANCH   6  25
HETATM   25  O1  UNL     1      34.209   5.169  48.665  1.00  0.00    -0.357 OA
HETATM   26  C7  UNL     1      35.433   5.743  49.019  1.00  0.00     0.209 C 
ENDBRANCH   6  25
TORSDOF 2
ENDMDL
MODEL 4
REMARK VINA RESULT:      -6.8      9.215     11.270
REMARK  2 active torsions:
REMARK  status: ('A' for Active; 'I' for Inactive)
REMARK    1  A    between atoms: N1_2  and  N2_3 
REMARK    2  A    between atoms: C6_8  and  O1_9 
ROOT
HETATM    1  N2  UNL     1      32.358   7.909  44.419  1.00  0.00    -0.181 NA
HETATM    2  C2  UNL     1      32.709   7.666  45.631  1.00  0.00     0.091 C 
HETATM    3  C3  UNL     1      32.690   6.340  46.231  1.00  0.00     0.063 C 
HETATM    4  C4  UNL     1      32.403   5.994  47.499  1.00  0.00     0.054 C 
HETATM    5  C5  UNL     1      33.254   6.835  48.382  1.00  0.00     0.066 C 
HETATM    6  C6  UNL     1      33.999   7.638  47.641  1.00  0.00     0.083 C 
HETATM    7  C8  UNL     1      33.198   8.539  46.730  1.00  0.00     0.231 C 
HETATM    8  O2  UNL     1      32.062   8.911  47.470  1.00  0.00    -0.369 OA
HETATM    9  C9  UNL     1      31.951  10.258  47.693  1.00  0.00     0.198 C 
HETATM   10  C10 UNL     1      30.727  10.576  48.454  1.00  0.00     0.018 C 
HETATM   11  C11 UNL     1      29.756   9.809  48.935  1.00  0.00     0.115 C 
HETATM   12  N3  UNL     1      30.012   8.460  48.622  1.00  0.00    -0.259 NA
HETATM   13  C12 UNL     1      29.168   7.509  48.588  1.00  0.00     0.086 A 
HETATM   14  C13 UNL     1      27.891   7.897  48.896  1.00  0.00     0.034 A 
HETATM   15  C14 UNL     1      26.834   7.001  48.910  1.00  0.00     0.002 A 
HETATM   16  C15 UNL     1      27.090   5.673  48.602  1.00  0.00     0.003 A 
HETATM   17  C16 UNL     1      28.364   5.295  48.297  1.00  0.00     0.036 A 
HETATM   18  C17 UNL     1      29.426   6.168  48.277  1.00  0.00     0.105 A 
HETATM   19  N4  UNL     1      30.651   6.069  48.035  1.00  0.00    -0.172 NA
HETATM   20  N5  UNL     1      31.395   4.967  47.684  1.00  0.00    -0.278 N 
HETATM   21  H19 UNL     1      31.604   3.956  47.503  1.00  0.00     0.189 HD
ENDROOT
BRANCH   1  22
HETATM   22  N1  UNL     1      31.925   6.901  43.571  1.00  0.00    -0.318 N 
HETATM   23  C1  UNL     1      32.747   6.546  42.419  1.00  0.00     0.169 C 
HETATM   24  H4  UNL     1      31.028   6.340  43.670  1.00  0.00     0.181 HD
ENDBRANCH   1  22
BRANCH   6  25
HETATM   25  O1  UNL     1      35.268   7.268  48.064  1.00  0.00    -0.357 OA
HETATM   26  C7  UNL     1      35.570   6.188  48.898  1.00  0.00     0.209 C 
ENDBRANCH   6  25
TORSDOF 2
ENDMDL
MODEL 5
REMARK VINA RESULT:      -6.7      2.085      3.003
REMARK  2 active torsions:
REMARK  status: ('A' for Active; 'I' for Inactive)
REMARK    1  A    between atoms: N1_2  and  N2_3 
REMARK    2  A    between atoms: C6_8  and  O1_9 
ROOT
HETATM    1  N2  UNL     1      25.017   5.493  48.695  1.00  0.00    -0.181 NA
HETATM    2  C2  UNL     1      23.986   5.516  49.462  1.00  0.00     0.091 C 
HETATM    3  C3  UNL     1      24.017   5.960  50.848  1.00  0.00     0.063 C 
HETATM    4  C4  UNL     1      23.312   5.496  51.897  1.00  0.00     0.054 C 
HETATM    5  C5  UNL     1      21.881   5.500  51.493  1.00  0.00     0.066 C 
HETATM    6  C6  UNL     1      21.775   5.947  50.254  1.00  0.00     0.083 C 
HETATM    7  C8  UNL     1      22.564   5.142  49.248  1.00  0.00     0.231 C 
HETATM    8  O2  UNL     1      22.445   3.803  49.660  1.00  0.00    -0.369 OA
HETATM    9  C9  UNL     1      21.837   2.984  48.744  1.00  0.00     0.198 C 
HETATM   10  C10 UNL     1      21.767   1.594  49.233  1.00  0.00     0.018 C 
HETATM   11  C11 UNL     1      22.179   1.027  50.360  1.00  0.00     0.115 C 
HETATM   12  N3  UNL     1      22.782   1.993  51.190  1.00  0.00    -0.259 NA
HETATM   13  C12 UNL     1      23.593   1.781  52.146  1.00  0.00     0.086 A 
HETATM   14  C13 UNL     1      23.875   0.455  52.343  1.00  0.00     0.034 A 
HETATM   15  C14 UNL     1      24.740   0.028  53.339  1.00  0.00     0.002 A 
HETATM   16  C15 UNL     1      25.330   0.982  54.154  1.00  0.00     0.003 A 
HETATM   17  C16 UNL     1      25.044   2.300  53.950  1.00  0.00     0.036 A 
HETATM   18  C17 UNL     1      24.190   2.744  52.969  1.00  0.00     0.105 A 
HETATM   19  N4  UNL     1      23.779   3.866  52.593  1.00  0.00    -0.172 NA
HETATM   20  N5  UNL     1      24.067   5.120  53.076  1.00  0.00    -0.278 N 
HETATM   21  H19 UNL     1      24.469   5.841  53.724  1.00  0.00     0.189 HD
ENDROOT
BRANCH   1  22
HETATM   22  N1  UNL     1      26.265   5.900  49.139  1.00  0.00    -0.318 N 
HETATM   23  C1  UNL     1      27.453   5.234  48.616  1.00  0.00     0.169 C 
HETATM   24  H4  UNL     1      26.460   6.669  49.846  1.00  0.00     0.181 HD
ENDBRANCH   1  22
BRANCH   6  25
HETATM   25  O1  UNL     1      20.925   7.029  50.446  1.00  0.00    -0.357 OA
HETATM   26  C7  UNL     1      21.125   8.322  49.957  1.00  0.00     0.209 C 
ENDBRANCH   6  25
TORSDOF 2
ENDMDL
MODEL 6
REMARK VINA RESULT:      -6.7     18.852     21.648
REMARK  2 active torsions:
REMARK  status: ('A' for Active; 'I' for Inactive)
REMARK    1  A    between atoms: N1_2  and  N2_3 
REMARK    2  A    between atoms: C6_8  and  O1_9 
ROOT
HETATM    1  N2  UNL     1      44.818   4.636  55.115  1.00  0.00    -0.181 NA
HETATM    2  C2  UNL     1      44.445   5.776  55.576  1.00  0.00     0.091 C 
HETATM    3  C3  UNL     1      43.117   6.040  56.112  1.00  0.00     0.063 C 
HETATM    4  C4  UNL     1      42.385   7.166  56.031  1.00  0.00     0.054 C 
HETATM    5  C5  UNL     1      43.250   8.280  56.503  1.00  0.00     0.066 C 
HETATM    6  C6  UNL     1      44.437   7.805  56.837  1.00  0.00     0.083 C 
HETATM    7  C8  UNL     1      45.141   7.083  55.711  1.00  0.00     0.231 C 
HETATM    8  O2  UNL     1      44.837   7.811  54.548  1.00  0.00    -0.369 OA
HETATM    9  C9  UNL     1      45.930   8.342  53.914  1.00  0.00     0.198 C 
HETATM   10  C10 UNL     1      45.539   9.071  52.692  1.00  0.00     0.018 C 
HETATM   11  C11 UNL     1      44.357   9.288  52.128  1.00  0.00     0.115 C 
HETATM   12  N3  UNL     1      43.342   8.680  52.892  1.00  0.00    -0.259 NA
HETATM   13  C12 UNL     1      42.175   8.362  52.499  1.00  0.00     0.086 A 
HETATM   14  C13 UNL     1      41.936   8.666  51.185  1.00  0.00     0.034 A 
HETATM   15  C14 UNL     1      40.720   8.394  50.577  1.00  0.00     0.002 A 
HETATM   16  C15 UNL     1      39.723   7.797  51.334  1.00  0.00     0.003 A 
HETATM   17  C16 UNL     1      39.969   7.498  52.641  1.00  0.00     0.036 A 
HETATM   18  C17 UNL     1      41.168   7.759  53.263  1.00  0.00     0.105 A 
HETATM   19  N4  UNL     1      41.625   7.584  54.416  1.00  0.00    -0.172 NA
HETATM   20  N5  UNL     1      41.032   7.032  55.527  1.00  0.00    -0.278 N 
HETATM   21  H19 UNL     1      40.265   6.630  56.117  1.00  0.00     0.189 HD
ENDROOT
BRANCH   1  22
HETATM   22  N1  UNL     1      43.964   3.545  55.094  1.00  0.00    -0.318 N 
HETATM   23  C1  UNL     1      44.500   2.235  54.739  1.00  0.00     0.169 C 
HETATM   24  H4  UNL     1      42.924   3.557  55.314  1.00  0.00     0.181 HD
ENDBRANCH   1  22
BRANCH   6  25
HETATM   25  O1  UNL     1      44.510   8.212  58.163  1.00  0.00    -0.357 OA
HETATM   26  C7  UNL     1      45.534   7.898  59.060  1.00  0.00     0.209 C 
ENDBRANCH   6  25
TORSDOF 2
ENDMDL
MODEL 7
REMARK VINA RESULT:      -6.5      2.477      4.620
REMARK  2 active torsions:
REMARK  status: ('A' for Active; 'I' for Inactive)
REMARK    1  A    between atoms: N1_2  and  N2_3 
REMARK    2  A    between atoms: C6_8  and  O1_9 
ROOT
HETATM    1  N2  UNL     1      20.072   5.494  49.146  1.00  0.00    -0.181 NA
HETATM    2  C2  UNL     1      20.770   4.655  48.468  1.00  0.00     0.091 C 
HETATM    3  C3  UNL     1      20.340   3.296  48.169  1.00  0.00     0.063 C 
HETATM    4  C4  UNL     1      21.084   2.179  48.076  1.00  0.00     0.054 C 
HETATM    5  C5  UNL     1      22.198   2.476  47.138  1.00  0.00     0.066 C 
HETATM    6  C6  UNL     1      22.095   3.723  46.713  1.00  0.00     0.083 C 
HETATM    7  C8  UNL     1      22.107   4.746  47.826  1.00  0.00     0.231 C 
HETATM    8  O2  UNL     1      23.030   4.265  48.771  1.00  0.00    -0.369 OA
HETATM    9  C9  UNL     1      24.100   5.095  48.985  1.00  0.00     0.198 C 
HETATM   10  C10 UNL     1      25.013   4.538  50.002  1.00  0.00     0.018 C 
HETATM   11  C11 UNL     1      24.972   3.419  50.715  1.00  0.00     0.115 C 
HETATM   12  N3  UNL     1      23.818   2.682  50.384  1.00  0.00    -0.259 NA
HETATM   13  C12 UNL     1      23.260   1.779  51.085  1.00  0.00     0.086 A 
HETATM   14  C13 UNL     1      23.890   1.542  52.278  1.00  0.00     0.034 A 
HETATM   15  C14 UNL     1      23.427   0.593  53.177  1.00  0.00     0.002 A 
HETATM   16  C15 UNL     1      22.292  -0.131  52.846  1.00  0.00     0.003 A 
HETATM   17  C16 UNL     1      21.671   0.112  51.657  1.00  0.00     0.036 A 
HETATM   18  C17 UNL     1      22.113   1.048  50.751  1.00  0.00     0.105 A 
HETATM   19  N4  UNL     1      21.729   1.444  49.627  1.00  0.00    -0.172 NA
HETATM   20  N5  UNL     1      20.656   1.041  48.868  1.00  0.00    -0.278 N 
HETATM   21  H19 UNL     1      19.829   0.460  48.589  1.00  0.00     0.189 HD
ENDROOT
BRANCH   1  22
HETATM   22  N1  UNL     1      18.826   5.161  49.655  1.00  0.00    -0.318 N 
HETATM   23  C1  UNL     1      18.750   4.396  50.894  1.00  0.00     0.169 C 
HETATM   24  H4  UNL     1      17.886   5.410  49.225  1.00  0.00     0.181 HD
ENDBRANCH   1  22
BRANCH   6  25
HETATM   25  O1  UNL     1      22.020   3.519  45.341  1.00  0.00    -0.357 OA
HETATM   26  C7  UNL     1      21.009   3.990  44.499  1.00  0.00     0.209 C 
ENDBRANCH   6  25
TORSDOF 2
ENDMDL
MODEL 8
REMARK VINA RESULT:      -6.3      5.173      7.322
REMARK  2 active torsions:
REMARK  status: ('A' for Active; 'I' for Inactive)
REMARK    1  A    between atoms: N1_2  and  N2_3 
REMARK    2  A    between atoms: C6_8  and  O1_9 
ROOT
HETATM    1  N2  UNL     1      15.572   4.266  53.136  1.00  0.00    -0.181 NA
HETATM    2  C2  UNL     1      15.920   3.747  52.013  1.00  0.00     0.091 C 
HETATM    3  C3  UNL     1      15.228   2.629  51.388  1.00  0.00     0.063 C 
HETATM    4  C4  UNL     1      15.743   1.621  50.659  1.00  0.00     0.054 C 
HETATM    5  C5  UNL     1      16.578   2.238  49.595  1.00  0.00     0.066 C 
HETATM    6  C6  UNL     1      16.544   3.554  49.716  1.00  0.00     0.083 C 
HETATM    7  C8  UNL     1      17.019   4.052  51.061  1.00  0.00     0.231 C 
HETATM    8  O2  UNL     1      18.091   3.214  51.418  1.00  0.00    -0.369 OA
HETATM    9  C9  UNL     1      19.287   3.864  51.572  1.00  0.00     0.198 C 
HETATM   10  C10 UNL     1      20.357   2.929  51.966  1.00  0.00     0.018 C 
HETATM   11  C11 UNL     1      20.356   1.620  52.190  1.00  0.00     0.115 C 
HETATM   12  N3  UNL     1      19.060   1.103  51.995  1.00  0.00    -0.259 NA
HETATM   13  C12 UNL     1      18.595   0.011  52.452  1.00  0.00     0.086 A 
HETATM   14  C13 UNL     1      19.494  -0.695  53.207  1.00  0.00     0.034 A 
HETATM   15  C14 UNL     1      19.170  -1.910  53.791  1.00  0.00     0.002 A 
HETATM   16  C15 UNL     1      17.894  -2.416  53.595  1.00  0.00     0.003 A 
HETATM   17  C16 UNL     1      17.006  -1.707  52.841  1.00  0.00     0.036 A 
HETATM   18  C17 UNL     1      17.307  -0.501  52.255  1.00  0.00     0.105 A 
HETATM   19  N4  UNL     1      16.684   0.318  51.540  1.00  0.00    -0.172 NA
HETATM   20  N5  UNL     1      15.393   0.275  51.068  1.00  0.00    -0.278 N 
HETATM   21  H19 UNL     1      14.445  -0.129  50.872  1.00  0.00     0.189 HD
ENDROOT
BRANCH   1  22
HETATM   22  N1  UNL     1      14.485   3.790  53.853  1.00  0.00    -0.318 N 
HETATM   23  C1  UNL     1      13.219   4.510  53.776  1.00  0.00     0.169 C 
HETATM   24  H4  UNL     1      14.473   2.929  54.476  1.00  0.00     0.181 HD
ENDBRANCH   1  22
BRANCH   6  25
HETATM   25  O1  UNL     1      16.056   3.911  48.466  1.00  0.00    -0.357 OA
HETATM   26  C7  UNL     1      14.709   4.060  48.127  1.00  0.00     0.209 C 
ENDBRANCH   6  25
TORSDOF 2
ENDMDL
MODEL 9
REMARK VINA RESULT:      -6.2      3.794      5.859
REMARK  2 active torsions:
REMARK  status: ('A' for Active; 'I' for Inactive)
REMARK    1  A    between atoms: N1_2  and  N2_3 
REMARK    2  A    between atoms: C6_8  and  O1_9 
ROOT
HETATM    1  N2  UNL     1      16.555   4.222  52.310  1.00  0.00    -0.181 NA
HETATM    2  C2  UNL     1      17.177   3.651  51.341  1.00  0.00     0.091 C 
HETATM    3  C3  UNL     1      16.891   2.301  50.877  1.00  0.00     0.063 C 
HETATM    4  C4  UNL     1      17.744   1.376  50.400  1.00  0.00     0.054 C 
HETATM    5  C5  UNL     1      18.531   2.027  49.320  1.00  0.00     0.066 C 
HETATM    6  C6  UNL     1      18.142   3.283  49.187  1.00  0.00     0.083 C 
HETATM    7  C8  UNL     1      18.281   4.098  50.452  1.00  0.00     0.231 C 
HETATM    8  O2  UNL     1      19.472   3.659  51.055  1.00  0.00    -0.369 OA
HETATM    9  C9  UNL     1      20.427   4.632  51.192  1.00  0.00     0.198 C 
HETATM   10  C10 UNL     1      21.637   4.106  51.851  1.00  0.00     0.018 C 
HETATM   11  C11 UNL     1      21.943   2.901  52.316  1.00  0.00     0.115 C 
HETATM   12  N3  UNL     1      20.865   2.018  52.105  1.00  0.00    -0.259 NA
HETATM   13  C12 UNL     1      20.640   0.926  52.715  1.00  0.00     0.086 A 
HETATM   14  C13 UNL     1      21.577   0.626  53.669  1.00  0.00     0.034 A 
HETATM   15  C14 UNL     1      21.500  -0.525  54.438  1.00  0.00     0.002 A 
HETATM   16  C15 UNL     1      20.438  -1.391  54.226  1.00  0.00     0.003 A 
HETATM   17  C16 UNL     1      19.510  -1.084  53.275  1.00  0.00     0.036 A 
HETATM   18  C17 UNL     1      19.567   0.051  52.502  1.00  0.00     0.105 A 
HETATM   19  N4  UNL     1      18.859   0.541  51.592  1.00  0.00    -0.172 NA
HETATM   20  N5  UNL     1      17.702   0.066  51.022  1.00  0.00    -0.278 N 
HETATM   21  H19 UNL     1      16.927  -0.611  50.821  1.00  0.00     0.189 HD
ENDROOT
BRANCH   1  22
HETATM   22  N1  UNL     1      15.540   3.580  53.002  1.00  0.00    -0.318 N 
HETATM   23  C1  UNL     1      14.405   4.363  53.478  1.00  0.00     0.169 C 
HETATM   24  H4  UNL     1      15.496   2.544  53.233  1.00  0.00     0.181 HD
ENDBRANCH   1  22
BRANCH   6  25
HETATM   25  O1  UNL     1      17.755   3.290  47.853  1.00  0.00    -0.357 OA
HETATM   26  C7  UNL     1      18.613   3.211  46.754  1.00  0.00     0.209 C 
ENDBRANCH   6  25
TORSDOF 2
ENDMDL
