MODEL 1
REMARK VINA RESULT:      -7.1      0.000      0.000
REMARK  6 active torsions:
REMARK  status: ('A' for Active; 'I' for Inactive)
REMARK    1  A    between atoms: C2_2  and  C3_3 
REMARK    2  A    between atoms: C3_3  and  C5_5 
REMARK    3  A    between atoms: C5_5  and  C7_7 
REMARK    4  A    between atoms: C9_9  and  O1_10 
REMARK    5  A    between atoms: O1_10  and  C10_11 
REMARK       I    between atoms: C10_11  and  N1_12 
REMARK    6  A    between atoms: C14_17  and  C15_18 
ROOT
HETATM    1  C7  UNL     1      23.763   1.696  51.970  1.00  0.00    -0.043 C 
HETATM    2  C8  UNL     1      24.659   1.072  53.012  1.00  0.00     0.104 C 
HETATM    3  C9  UNL     1      26.028   1.616  53.035  1.00  0.00     0.059 C 
HETATM    4  C11 UNL     1      26.950   2.186  52.274  1.00  0.00     0.010 C 
HETATM    5  C12 UNL     1      26.594   2.420  50.831  1.00  0.00     0.057 C 
HETATM    6  C13 UNL     1      25.303   3.213  50.788  1.00  0.00    -0.015 C 
HETATM    7  C14 UNL     1      24.108   2.904  51.271  1.00  0.00    -0.047 C 
ENDROOT
BRANCH   1   8
HETATM    8  C5  UNL     1      22.622   1.074  51.776  1.00  0.00    -0.073 C 
HETATM    9  C6  UNL     1      21.690   0.626  50.727  1.00  0.00     0.044 C 
BRANCH   8  10
HETATM   10  C3  UNL     1      21.984   0.527  53.031  1.00  0.00     0.010 C 
HETATM   11  C4  UNL     1      22.085  -0.970  53.059  1.00  0.00     0.015 C 
BRANCH  10  12
HETATM   12  C2  UNL     1      20.470   0.817  53.033  1.00  0.00     0.004 C 
HETATM   13  C1  UNL     1      19.668  -0.395  53.441  1.00  0.00     0.006 C 
ENDBRANCH  10  12
ENDBRANCH   8  10
ENDBRANCH   1   8
BRANCH   7  14
HETATM   14  C15 UNL     1      23.002   3.855  51.114  1.00  0.00    -0.024 C 
HETATM   15  C16 UNL     1      22.138   4.062  52.297  1.00  0.00     0.019 C 
HETATM   16  C17 UNL     1      22.241   3.856  49.838  1.00  0.00     0.019 C 
HETATM   17  C18 UNL     1      23.758   5.236  51.034  1.00  0.00     0.019 C 
ENDBRANCH   7  14
BRANCH   3  18
HETATM   18  O1  UNL     1      26.590   1.501  54.334  1.00  0.00    -0.266 OA
BRANCH  18  19
HETATM   19  C10 UNL     1      26.688   0.283  54.978  1.00  0.00     0.363 C 
HETATM   20  N1  UNL     1      28.037  -0.170  54.933  1.00  0.00    -0.345 N 
HETATM   21  H15 UNL     1      29.000  -0.565  54.874  1.00  0.00     0.161 HD
HETATM   22  H16 UNL     1      28.969   0.248  55.185  1.00  0.00     0.161 HD
HETATM   23  O2  UNL     1      26.056  -0.612  55.603  1.00  0.00    -0.238 OA
ENDBRANCH  18  19
ENDBRANCH   3  18
TORSDOF 6
ENDMDL
MODEL 2
REMARK VINA RESULT:      -7.1      1.918      4.206
REMARK  6 active torsions:
REMARK  status: ('A' for Active; 'I' for Inactive)
REMARK    1  A    between atoms: C2_2  and  C3_3 
REMARK    2  A    between atoms: C3_3  and  C5_5 
REMARK    3  A    between atoms: C5_5  and  C7_7 
REMARK    4  A    between atoms: C9_9  and  O1_10 
REMARK    5  A    between atoms: O1_10  and  C10_11 
REMARK       I    between atoms: C10_11  and  N1_12 
REMARK    6  A    between atoms: C14_17  and  C15_18 
ROOT
HETATM    1  C7  UNL     1      24.087   1.318  52.464  1.00  0.00    -0.043 C 
HETATM    2  C8  UNL     1      25.468   0.723  52.335  1.00  0.00     0.104 C 
HETATM    3  C9  UNL     1      25.642  -0.557  53.043  1.00  0.00     0.059 C 
HETATM    4  C11 UNL     1      25.202  -1.261  54.075  1.00  0.00     0.010 C 
HETATM    5  C12 UNL     1      24.124  -0.635  54.917  1.00  0.00     0.057 C 
HETATM    6  C13 UNL     1      22.977  -0.251  54.005  1.00  0.00    -0.015 C 
HETATM    7  C14 UNL     1      22.964   0.574  52.968  1.00  0.00    -0.047 C 
ENDROOT
BRANCH   1   8
HETATM    8  C5  UNL     1      23.975   2.557  52.041  1.00  0.00    -0.073 C 
HETATM    9  C6  UNL     1      23.651   3.925  52.481  1.00  0.00     0.044 C 
BRANCH   8  10
HETATM   10  C3  UNL     1      24.359   2.764  50.596  1.00  0.00     0.010 C 
HETATM   11  C4  UNL     1      25.517   3.715  50.494  1.00  0.00     0.015 C 
BRANCH  10  12
HETATM   12  C2  UNL     1      23.215   3.458  49.830  1.00  0.00     0.004 C 
HETATM   13  C1  UNL     1      22.973   2.818  48.484  1.00  0.00     0.006 C 
ENDBRANCH  10  12
ENDBRANCH   8  10
ENDBRANCH   1   8
BRANCH   7  14
HETATM   14  C15 UNL     1      21.716   0.774  52.224  1.00  0.00    -0.024 C 
HETATM   15  C16 UNL     1      21.710   0.327  50.813  1.00  0.00     0.019 C 
HETATM   16  C17 UNL     1      20.959   2.036  52.432  1.00  0.00     0.019 C 
HETATM   17  C18 UNL     1      20.757  -0.284  52.891  1.00  0.00     0.019 C 
ENDBRANCH   7  14
BRANCH   3  18
HETATM   18  O1  UNL     1      26.640  -1.346  52.411  1.00  0.00    -0.266 OA
BRANCH  18  19
HETATM   19  C10 UNL     1      27.816  -1.681  53.056  1.00  0.00     0.363 C 
HETATM   20  N1  UNL     1      28.070  -3.070  52.888  1.00  0.00    -0.345 N 
HETATM   21  H15 UNL     1      28.264  -4.094  52.837  1.00  0.00     0.161 HD
HETATM   22  H16 UNL     1      28.119  -3.722  52.063  1.00  0.00     0.161 HD
HETATM   23  O2  UNL     1      28.777  -1.246  53.747  1.00  0.00    -0.238 OA
ENDBRANCH  18  19
ENDBRANCH   3  18
TORSDOF 6
ENDMDL
MODEL 3
REMARK VINA RESULT:      -6.9      1.592      4.370
REMARK  6 active torsions:
REMARK  status: ('A' for Active; 'I' for Inactive)
REMARK    1  A    between atoms: C2_2  and  C3_3 
REMARK    2  A    between atoms: C3_3  and  C5_5 
REMARK    3  A    between atoms: C5_5  and  C7_7 
REMARK    4  A    between atoms: C9_9  and  O1_10 
REMARK    5  A    between atoms: O1_10  and  C10_11 
REMARK       I    between atoms: C10_11  and  N1_12 
REMARK    6  A    between atoms: C14_17  and  C15_18 
ROOT
HETATM    1  C7  UNL     1      22.282   1.731  52.405  1.00  0.00    -0.043 C 
HETATM    2  C8  UNL     1      23.611   1.133  52.800  1.00  0.00     0.104 C 
HETATM    3  C9  UNL     1      23.506  -0.144  53.528  1.00  0.00     0.059 C 
HETATM    4  C11 UNL     1      22.711  -0.842  54.325  1.00  0.00     0.010 C 
HETATM    5  C12 UNL     1      21.400  -0.210  54.705  1.00  0.00     0.057 C 
HETATM    6  C13 UNL     1      20.675   0.171  53.431  1.00  0.00    -0.015 C 
HETATM    7  C14 UNL     1      21.050   0.991  52.459  1.00  0.00    -0.047 C 
ENDROOT
BRANCH   1   8
HETATM    8  C5  UNL     1      22.339   2.968  51.966  1.00  0.00    -0.073 C 
HETATM    9  C6  UNL     1      21.881   4.339  52.250  1.00  0.00     0.044 C 
BRANCH   8  10
HETATM   10  C3  UNL     1      23.231   3.167  50.763  1.00  0.00     0.010 C 
HETATM   11  C4  UNL     1      24.366   4.088  51.101  1.00  0.00     0.015 C 
BRANCH  10  12
HETATM   12  C2  UNL     1      22.462   3.889  49.639  1.00  0.00     0.004 C 
HETATM   13  C1  UNL     1      22.722   3.263  48.290  1.00  0.00     0.006 C 
ENDBRANCH  10  12
ENDBRANCH   8  10
ENDBRANCH   1   8
BRANCH   7  14
HETATM   14  C15 UNL     1      20.168   1.189  51.305  1.00  0.00    -0.024 C 
HETATM   15  C16 UNL     1      20.705   0.781  49.987  1.00  0.00     0.019 C 
HETATM   16  C17 UNL     1      19.356   2.431  51.235  1.00  0.00     0.019 C 
HETATM   17  C18 UNL     1      19.057   0.096  51.542  1.00  0.00     0.019 C 
ENDBRANCH   7  14
BRANCH   3  18
HETATM   18  O1  UNL     1      24.664  -0.937  53.316  1.00  0.00    -0.266 OA
BRANCH  18  19
HETATM   19  C10 UNL     1      25.800  -0.784  54.088  1.00  0.00     0.363 C 
HETATM   20  N1  UNL     1      26.907  -1.389  53.429  1.00  0.00    -0.345 N 
HETATM   21  H15 UNL     1      27.732  -1.868  53.008  1.00  0.00     0.161 HD
HETATM   22  H16 UNL     1      27.327  -1.319  52.466  1.00  0.00     0.161 HD
HETATM   23  O2  UNL     1      26.266  -0.317  55.163  1.00  0.00    -0.238 OA
ENDBRANCH  18  19
ENDBRANCH   3  18
TORSDOF 6
ENDMDL
MODEL 4
REMARK VINA RESULT:      -6.7      2.964      5.423
REMARK  6 active torsions:
REMARK  status: ('A' for Active; 'I' for Inactive)
REMARK    1  A    between atoms: C2_2  and  C3_3 
REMARK    2  A    between atoms: C3_3  and  C5_5 
REMARK    3  A    between atoms: C5_5  and  C7_7 
REMARK    4  A    between atoms: C9_9  and  O1_10 
REMARK    5  A    between atoms: O1_10  and  C10_11 
REMARK       I    between atoms: C10_11  and  N1_12 
REMARK    6  A    between atoms: C14_17  and  C15_18 
ROOT
HETATM    1  C7  UNL     1      23.812   1.542  52.438  1.00  0.00    -0.043 C 
HETATM    2  C8  UNL     1      24.155   3.006  52.306  1.00  0.00     0.104 C 
HETATM    3  C9  UNL     1      23.318   3.737  51.339  1.00  0.00     0.059 C 
HETATM    4  C11 UNL     1      22.603   3.584  50.234  1.00  0.00     0.010 C 
HETATM    5  C12 UNL     1      22.541   2.200  49.648  1.00  0.00     0.057 C 
HETATM    6  C13 UNL     1      22.063   1.252  50.729  1.00  0.00    -0.015 C 
HETATM    7  C14 UNL     1      22.601   0.977  51.909  1.00  0.00    -0.047 C 
ENDROOT
BRANCH   1   8
HETATM    8  C5  UNL     1      24.684   0.827  53.113  1.00  0.00    -0.073 C 
HETATM    9  C6  UNL     1      24.979   0.289  54.453  1.00  0.00     0.044 C 
BRANCH   8  10
HETATM   10  C3  UNL     1      25.801   0.248  52.278  1.00  0.00     0.010 C 
HETATM   11  C4  UNL     1      26.169  -1.121  52.773  1.00  0.00     0.015 C 
BRANCH  10  12
HETATM   12  C2  UNL     1      27.086   1.083  52.448  1.00  0.00     0.004 C 
HETATM   13  C1  UNL     1      28.173   0.303  53.147  1.00  0.00     0.006 C 
ENDBRANCH  10  12
ENDBRANCH   8  10
ENDBRANCH   1   8
BRANCH   7  14
HETATM   14  C15 UNL     1      21.934   0.021  52.798  1.00  0.00    -0.024 C 
HETATM   15  C16 UNL     1      21.554   0.521  54.138  1.00  0.00     0.019 C 
HETATM   16  C17 UNL     1      22.418  -1.384  52.824  1.00  0.00     0.019 C 
HETATM   17  C18 UNL     1      20.523  -0.143  52.114  1.00  0.00     0.019 C 
ENDBRANCH   7  14
BRANCH   3  18
HETATM   18  O1  UNL     1      23.226   5.109  51.693  1.00  0.00    -0.266 OA
BRANCH  18  19
HETATM   19  C10 UNL     1      24.026   6.067  51.101  1.00  0.00     0.363 C 
HETATM   20  N1  UNL     1      24.475   6.987  52.089  1.00  0.00    -0.345 N 
HETATM   21  H15 UNL     1      24.781   7.715  52.770  1.00  0.00     0.161 HD
HETATM   22  H16 UNL     1      24.953   6.899  53.023  1.00  0.00     0.161 HD
HETATM   23  O2  UNL     1      24.531   6.468  50.017  1.00  0.00    -0.238 OA
ENDBRANCH  18  19
ENDBRANCH   3  18
TORSDOF 6
ENDMDL
MODEL 5
REMARK VINA RESULT:      -6.5      1.606      4.430
REMARK  6 active torsions:
REMARK  status: ('A' for Active; 'I' for Inactive)
REMARK    1  A    between atoms: C2_2  and  C3_3 
REMARK    2  A    between atoms: C3_3  and  C5_5 
REMARK    3  A    between atoms: C5_5  and  C7_7 
REMARK    4  A    between atoms: C9_9  and  O1_10 
REMARK    5  A    between atoms: O1_10  and  C10_11 
REMARK       I    between atoms: C10_11  and  N1_12 
REMARK    6  A    between atoms: C14_17  and  C15_18 
ROOT
HETATM    1  C7  UNL     1      23.306   3.061  51.468  1.00  0.00    -0.043 C 
HETATM    2  C8  UNL     1      24.542   2.732  52.268  1.00  0.00     0.104 C 
HETATM    3  C9  UNL     1      24.620   1.329  52.712  1.00  0.00     0.059 C 
HETATM    4  C11 UNL     1      23.875   0.280  53.027  1.00  0.00     0.010 C 
HETATM    5  C12 UNL     1      22.383   0.452  52.941  1.00  0.00     0.057 C 
HETATM    6  C13 UNL     1      22.045   0.947  51.550  1.00  0.00    -0.015 C 
HETATM    7  C14 UNL     1      22.437   2.050  50.929  1.00  0.00    -0.047 C 
ENDROOT
BRANCH   1   8
HETATM    8  C5  UNL     1      23.103   4.343  51.262  1.00  0.00    -0.073 C 
HETATM    9  C6  UNL     1      22.061   5.385  51.267  1.00  0.00     0.044 C 
BRANCH   8  10
HETATM   10  C3  UNL     1      24.353   5.136  50.963  1.00  0.00     0.010 C 
HETATM   11  C4  UNL     1      24.167   6.573  51.356  1.00  0.00     0.015 C 
BRANCH  10  12
HETATM   12  C2  UNL     1      24.613   5.176  49.444  1.00  0.00     0.004 C 
HETATM   13  C1  UNL     1      26.083   5.049  49.124  1.00  0.00     0.006 C 
ENDBRANCH  10  12
ENDBRANCH   8  10
ENDBRANCH   1   8
BRANCH   7  14
HETATM   14  C15 UNL     1      21.980   2.305  49.559  1.00  0.00    -0.024 C 
HETATM   15  C16 UNL     1      23.033   2.524  48.542  1.00  0.00     0.019 C 
HETATM   16  C17 UNL     1      20.794   3.177  49.357  1.00  0.00     0.019 C 
HETATM   17  C18 UNL     1      21.416   0.898  49.128  1.00  0.00     0.019 C 
ENDBRANCH   7  14
BRANCH   3  18
HETATM   18  O1  UNL     1      25.972   0.927  52.867  1.00  0.00    -0.266 OA
BRANCH  18  19
HETATM   19  C10 UNL     1      26.804   1.521  53.797  1.00  0.00     0.363 C 
HETATM   20  N1  UNL     1      26.744   0.795  55.019  1.00  0.00    -0.345 N 
HETATM   21  H15 UNL     1      26.687   0.326  55.948  1.00  0.00     0.161 HD
HETATM   22  H16 UNL     1      26.857  -0.217  55.289  1.00  0.00     0.161 HD
HETATM   23  O2  UNL     1      27.614   2.465  54.008  1.00  0.00    -0.238 OA
ENDBRANCH  18  19
ENDBRANCH   3  18
TORSDOF 6
ENDMDL
MODEL 6
REMARK VINA RESULT:      -6.3      3.125      4.626
REMARK  6 active torsions:
REMARK  status: ('A' for Active; 'I' for Inactive)
REMARK    1  A    between atoms: C2_2  and  C3_3 
REMARK    2  A    between atoms: C3_3  and  C5_5 
REMARK    3  A    between atoms: C5_5  and  C7_7 
REMARK    4  A    between atoms: C9_9  and  O1_10 
REMARK    5  A    between atoms: O1_10  and  C10_11 
REMARK       I    between atoms: C10_11  and  N1_12 
REMARK    6  A    between atoms: C14_17  and  C15_18 
ROOT
HETATM    1  C7  UNL     1      21.872   1.607  52.114  1.00  0.00    -0.043 C 
HETATM    2  C8  UNL     1      23.028   2.533  52.406  1.00  0.00     0.104 C 
HETATM    3  C9  UNL     1      23.508   3.287  51.235  1.00  0.00     0.059 C 
HETATM    4  C11 UNL     1      23.601   3.239  49.915  1.00  0.00     0.010 C 
HETATM    5  C12 UNL     1      23.048   2.015  49.236  1.00  0.00     0.057 C 
HETATM    6  C13 UNL     1      21.609   1.842  49.676  1.00  0.00    -0.015 C 
HETATM    7  C14 UNL     1      21.114   1.671  50.894  1.00  0.00    -0.047 C 
ENDROOT
BRANCH   1   8
HETATM    8  C5  UNL     1      21.581   0.762  53.077  1.00  0.00    -0.073 C 
HETATM    9  C6  UNL     1      20.779   0.608  54.304  1.00  0.00     0.044 C 
BRANCH   8  10
HETATM   10  C3  UNL     1      22.203  -0.605  52.923  1.00  0.00     0.010 C 
HETATM   11  C4  UNL     1      21.688  -1.536  53.982  1.00  0.00     0.015 C 
BRANCH  10  12
HETATM   12  C2  UNL     1      23.723  -0.534  53.171  1.00  0.00     0.004 C 
HETATM   13  C1  UNL     1      24.076  -0.888  54.595  1.00  0.00     0.006 C 
ENDBRANCH  10  12
ENDBRANCH   8  10
ENDBRANCH   1   8
BRANCH   7  14
HETATM   14  C15 UNL     1      19.664   1.539  51.068  1.00  0.00    -0.024 C 
HETATM   15  C16 UNL     1      19.003   2.572  51.897  1.00  0.00     0.019 C 
HETATM   16  C17 UNL     1      19.093   0.183  51.275  1.00  0.00     0.019 C 
HETATM   17  C18 UNL     1      19.121   1.897  49.633  1.00  0.00     0.019 C 
ENDBRANCH   7  14
BRANCH   3  18
HETATM   18  O1  UNL     1      24.089   4.519  51.637  1.00  0.00    -0.266 OA
BRANCH  18  19
HETATM   19  C10 UNL     1      23.395   5.710  51.553  1.00  0.00     0.363 C 
HETATM   20  N1  UNL     1      24.211   6.770  52.037  1.00  0.00    -0.345 N 
HETATM   21  H15 UNL     1      24.754   7.567  52.436  1.00  0.00     0.161 HD
HETATM   22  H16 UNL     1      25.186   7.110  51.834  1.00  0.00     0.161 HD
HETATM   23  O2  UNL     1      22.308   6.254  51.213  1.00  0.00    -0.238 OA
ENDBRANCH  18  19
ENDBRANCH   3  18
TORSDOF 6
ENDMDL
MODEL 7
REMARK VINA RESULT:      -6.1      4.022      6.214
REMARK  6 active torsions:
REMARK  status: ('A' for Active; 'I' for Inactive)
REMARK    1  A    between atoms: C2_2  and  C3_3 
REMARK    2  A    between atoms: C3_3  and  C5_5 
REMARK    3  A    between atoms: C5_5  and  C7_7 
REMARK    4  A    between atoms: C9_9  and  O1_10 
REMARK    5  A    between atoms: O1_10  and  C10_11 
REMARK       I    between atoms: C10_11  and  N1_12 
REMARK    6  A    between atoms: C14_17  and  C15_18 
ROOT
HETATM    1  C7  UNL     1      23.082   2.647  50.821  1.00  0.00    -0.043 C 
HETATM    2  C8  UNL     1      23.071   3.941  50.044  1.00  0.00     0.104 C 
HETATM    3  C9  UNL     1      22.201   3.925  48.855  1.00  0.00     0.059 C 
HETATM    4  C11 UNL     1      21.681   3.121  47.939  1.00  0.00     0.010 C 
HETATM    5  C12 UNL     1      22.028   1.660  48.037  1.00  0.00     0.057 C 
HETATM    6  C13 UNL     1      21.670   1.184  49.430  1.00  0.00    -0.015 C 
HETATM    7  C14 UNL     1      22.117   1.603  50.606  1.00  0.00    -0.047 C 
ENDROOT
BRANCH   1   8
HETATM    8  C5  UNL     1      24.015   2.560  51.741  1.00  0.00    -0.073 C 
HETATM    9  C6  UNL     1      24.320   2.895  53.143  1.00  0.00     0.044 C 
BRANCH   8  10
HETATM   10  C3  UNL     1      25.247   1.796  51.316  1.00  0.00     0.010 C 
HETATM   11  C4  UNL     1      25.714   0.899  52.425  1.00  0.00     0.015 C 
BRANCH  10  12
HETATM   12  C2  UNL     1      26.422   2.765  51.075  1.00  0.00     0.004 C 
HETATM   13  C1  UNL     1      26.542   3.148  49.620  1.00  0.00     0.006 C 
ENDBRANCH  10  12
ENDBRANCH   8  10
ENDBRANCH   1   8
BRANCH   7  14
HETATM   14  C15 UNL     1      21.602   0.985  51.832  1.00  0.00    -0.024 C 
HETATM   15  C16 UNL     1      21.061   1.905  52.857  1.00  0.00     0.019 C 
HETATM   16  C17 UNL     1      22.349  -0.157  52.420  1.00  0.00     0.019 C 
HETATM   17  C18 UNL     1      20.289   0.277  51.323  1.00  0.00     0.019 C 
ENDBRANCH   7  14
BRANCH   3  18
HETATM   18  O1  UNL     1      21.736   5.233  48.557  1.00  0.00    -0.266 OA
BRANCH  18  19
HETATM   19  C10 UNL     1      21.164   6.037  49.524  1.00  0.00     0.363 C 
HETATM   20  N1  UNL     1      19.796   5.684  49.687  1.00  0.00    -0.345 N 
HETATM   21  H15 UNL     1      18.776   5.496  49.798  1.00  0.00     0.161 HD
HETATM   22  H16 UNL     1      19.276   4.786  49.863  1.00  0.00     0.161 HD
HETATM   23  O2  UNL     1      21.366   6.978  50.340  1.00  0.00    -0.238 OA
ENDBRANCH  18  19
ENDBRANCH   3  18
TORSDOF 6
ENDMDL
MODEL 8
REMARK VINA RESULT:      -6.1      4.234      6.482
REMARK  6 active torsions:
REMARK  status: ('A' for Active; 'I' for Inactive)
REMARK    1  A    between atoms: C2_2  and  C3_3 
REMARK    2  A    between atoms: C3_3  and  C5_5 
REMARK    3  A    between atoms: C5_5  and  C7_7 
REMARK    4  A    between atoms: C9_9  and  O1_10 
REMARK    5  A    between atoms: O1_10  and  C10_11 
REMARK       I    between atoms: C10_11  and  N1_12 
REMARK    6  A    between atoms: C14_17  and  C15_18 
ROOT
HETATM    1  C7  UNL     1      22.523   3.304  51.140  1.00  0.00    -0.043 C 
HETATM    2  C8  UNL     1      21.083   3.750  51.220  1.00  0.00     0.104 C 
HETATM    3  C9  UNL     1      20.125   2.659  51.468  1.00  0.00     0.059 C 
HETATM    4  C11 UNL     1      19.937   1.359  51.291  1.00  0.00     0.010 C 
HETATM    5  C12 UNL     1      21.031   0.601  50.591  1.00  0.00     0.057 C 
HETATM    6  C13 UNL     1      22.329   0.856  51.330  1.00  0.00    -0.015 C 
HETATM    7  C14 UNL     1      22.957   2.000  51.562  1.00  0.00    -0.047 C 
ENDROOT
BRANCH   1   8
HETATM    8  C5  UNL     1      23.361   4.212  50.694  1.00  0.00    -0.073 C 
HETATM    9  C6  UNL     1      24.021   5.480  51.051  1.00  0.00     0.044 C 
BRANCH   8  10
HETATM   10  C3  UNL     1      23.975   3.894  49.351  1.00  0.00     0.010 C 
HETATM   11  C4  UNL     1      24.949   4.966  48.955  1.00  0.00     0.015 C 
BRANCH  10  12
HETATM   12  C2  UNL     1      22.897   3.917  48.249  1.00  0.00     0.004 C 
HETATM   13  C1  UNL     1      22.583   2.530  47.745  1.00  0.00     0.006 C 
ENDBRANCH  10  12
ENDBRANCH   8  10
ENDBRANCH   1   8
BRANCH   7  14
HETATM   14  C15 UNL     1      24.209   1.990  52.325  1.00  0.00    -0.024 C 
HETATM   15  C16 UNL     1      24.343   3.012  53.387  1.00  0.00     0.019 C 
HETATM   16  C17 UNL     1      25.482   1.746  51.597  1.00  0.00     0.019 C 
HETATM   17  C18 UNL     1      24.073   0.671  53.176  1.00  0.00     0.019 C 
ENDBRANCH   7  14
BRANCH   3  18
HETATM   18  O1  UNL     1      18.974   3.147  52.141  1.00  0.00    -0.266 OA
BRANCH  18  19
HETATM   19  C10 UNL     1      17.941   3.761  51.459  1.00  0.00     0.363 C 
HETATM   20  N1  UNL     1      16.697   3.236  51.909  1.00  0.00    -0.345 N 
HETATM   21  H15 UNL     1      15.769   2.839  52.169  1.00  0.00     0.161 HD
HETATM   22  H16 UNL     1      16.244   3.102  52.850  1.00  0.00     0.161 HD
HETATM   23  O2  UNL     1      17.644   4.617  50.582  1.00  0.00    -0.238 OA
ENDBRANCH  18  19
ENDBRANCH   3  18
TORSDOF 6
ENDMDL
MODEL 9
REMARK VINA RESULT:      -6.1      2.480      3.820
REMARK  6 active torsions:
REMARK  status: ('A' for Active; 'I' for Inactive)
REMARK    1  A    between atoms: C2_2  and  C3_3 
REMARK    2  A    between atoms: C3_3  and  C5_5 
REMARK    3  A    between atoms: C5_5  and  C7_7 
REMARK    4  A    between atoms: C9_9  and  O1_10 
REMARK    5  A    between atoms: O1_10  and  C10_11 
REMARK       I    between atoms: C10_11  and  N1_12 
REMARK    6  A    between atoms: C14_17  and  C15_18 
ROOT
HETATM    1  C7  UNL     1      23.690   4.138  49.952  1.00  0.00    -0.043 C 
HETATM    2  C8  UNL     1      23.794   3.128  51.069  1.00  0.00     0.104 C 
HETATM    3  C9  UNL     1      25.176   2.802  51.461  1.00  0.00     0.059 C 
HETATM    4  C11 UNL     1      26.417   2.741  51.001  1.00  0.00     0.010 C 
HETATM    5  C12 UNL     1      26.630   3.121  49.560  1.00  0.00     0.057 C 
HETATM    6  C13 UNL     1      26.049   4.504  49.348  1.00  0.00    -0.015 C 
HETATM    7  C14 UNL     1      24.806   4.932  49.515  1.00  0.00    -0.047 C 
ENDROOT
BRANCH   1   8
HETATM    8  C5  UNL     1      22.489   4.270  49.434  1.00  0.00    -0.073 C 
HETATM    9  C6  UNL     1      21.152   4.830  49.693  1.00  0.00     0.044 C 
BRANCH   8  10
HETATM   10  C3  UNL     1      22.349   3.734  48.029  1.00  0.00     0.010 C 
HETATM   11  C4  UNL     1      20.919   3.811  47.580  1.00  0.00     0.015 C 
BRANCH  10  12
HETATM   12  C2  UNL     1      22.690   2.230  47.993  1.00  0.00     0.004 C 
HETATM   13  C1  UNL     1      21.545   1.384  48.495  1.00  0.00     0.006 C 
ENDBRANCH  10  12
ENDBRANCH   8  10
ENDBRANCH   1   8
BRANCH   7  14
HETATM   14  C15 UNL     1      24.489   6.340  49.254  1.00  0.00    -0.024 C 
HETATM   15  C16 UNL     1      23.788   7.069  50.334  1.00  0.00     0.019 C 
HETATM   16  C17 UNL     1      24.014   6.722  47.899  1.00  0.00     0.019 C 
HETATM   17  C18 UNL     1      25.913   7.015  49.293  1.00  0.00     0.019 C 
ENDBRANCH   7  14
BRANCH   3  18
HETATM   18  O1  UNL     1      25.230   2.403  52.822  1.00  0.00    -0.266 OA
BRANCH  18  19
HETATM   19  C10 UNL     1      25.176   1.073  53.192  1.00  0.00     0.363 C 
HETATM   20  N1  UNL     1      26.155   0.818  54.193  1.00  0.00    -0.345 N 
HETATM   21  H15 UNL     1      26.895   0.577  54.886  1.00  0.00     0.161 HD
HETATM   22  H16 UNL     1      26.404   1.257  55.117  1.00  0.00     0.161 HD
HETATM   23  O2  UNL     1      24.601  -0.033  52.999  1.00  0.00    -0.238 OA
ENDBRANCH  18  19
ENDBRANCH   3  18
TORSDOF 6
ENDMDL
