MODEL 1
REMARK VINA RESULT:      -9.2      0.000      0.000
REMARK  3 active torsions:
REMARK  status: ('A' for Active; 'I' for Inactive)
REMARK    1  A    between atoms: N1_1  and  C1_2 
REMARK    2  A    between atoms: C2_4  and  N3_5 
REMARK    3  A    between atoms: N3_5  and  C3_6 
ROOT
HETATM    1  C1  UNL     1      22.015  -0.501  54.083  1.00  0.00     0.719 A 
HETATM    2  N2  UNL     1      23.240  -0.878  54.173  1.00  0.00    -0.075 NA
HETATM    3  C2  UNL     1      24.316  -0.111  53.646  1.00  0.00     0.264 A 
HETATM    4  C9  UNL     1      23.824   1.092  52.935  1.00  0.00     0.044 A 
HETATM    5  C10 UNL     1      24.795   1.797  52.324  1.00  0.00     0.148 C 
HETATM    6  O1  UNL     1      24.370   2.906  51.662  1.00  0.00    -0.362 OA
HETATM    7  C11 UNL     1      24.943   3.566  50.583  1.00  0.00     0.179 C 
HETATM    8  C12 UNL     1      23.946   4.455  49.855  1.00  0.00     0.066 C 
HETATM    9  C13 UNL     1      22.872   3.536  49.385  1.00  0.00    -0.039 A 
HETATM   10  C14 UNL     1      22.669   3.276  48.047  1.00  0.00     0.008 A 
HETATM   11  C15 UNL     1      21.709   2.441  47.515  1.00  0.00     0.001 A 
HETATM   12  C16 UNL     1      20.874   1.806  48.412  1.00  0.00     0.001 A 
HETATM   13  C17 UNL     1      21.052   2.045  49.759  1.00  0.00     0.019 A 
HETATM   14  C18 UNL     1      22.019   2.885  50.269  1.00  0.00     0.013 A 
HETATM   15  S1  UNL     1      22.041   3.033  52.044  1.00  0.00    -0.069 SA
HETATM   16  C19 UNL     1      22.428   1.508  52.878  1.00  0.00     0.129 A 
HETATM   17  N4  UNL     1      21.608   0.685  53.440  1.00  0.00    -0.056 NA
ENDROOT
BRANCH   3  18
HETATM   18  N3  UNL     1      25.180  -0.898  52.787  1.00  0.00    -0.363 N 
HETATM   19  H4  UNL     1      24.833  -1.440  51.968  1.00  0.00     0.162 HD
BRANCH  18  20
HETATM   20  C3  UNL     1      26.575  -0.945  53.060  1.00  0.00     0.031 A 
HETATM   21  C4  UNL     1      27.332  -2.097  52.810  1.00  0.00     0.032 A 
HETATM   22  C5  UNL     1      28.675  -2.171  53.063  1.00  0.00     0.046 A 
HETATM   23  C6  UNL     1      29.351  -1.090  53.587  1.00  0.00     0.133 A 
HETATM   24  F1  UNL     1      30.665  -1.098  53.857  1.00  0.00    -0.205 F 
HETATM   25  C7  UNL     1      28.628   0.070  53.847  1.00  0.00     0.051 A 
HETATM   26 BR1  UNL     1      29.535   1.597  54.577  1.00  0.00    -0.048 Br
HETATM   27  C8  UNL     1      27.286   0.101  53.579  1.00  0.00     0.051 A 
ENDBRANCH  18  20
ENDBRANCH   3  18
BRANCH   1  28
HETATM   28  N1  UNL     1      20.884  -1.232  54.598  1.00  0.00    -0.231 N 
HETATM   29  H1  UNL     1      19.972  -0.725  54.655  1.00  0.00     0.174 HD
HETATM   30  H2  UNL     1      21.062  -2.238  54.882  1.00  0.00     0.174 HD
ENDBRANCH   1  28
TORSDOF 3
ENDMDL
MODEL 2
REMARK VINA RESULT:      -8.7      4.119      6.036
REMARK  3 active torsions:
REMARK  status: ('A' for Active; 'I' for Inactive)
REMARK    1  A    between atoms: N1_1  and  C1_2 
REMARK    2  A    between atoms: C2_4  and  N3_5 
REMARK    3  A    between atoms: N3_5  and  C3_6 
ROOT
HETATM    1  C1  UNL     1      26.096   2.143  53.047  1.00  0.00     0.719 A 
HETATM    2  N2  UNL     1      25.049   1.451  53.319  1.00  0.00    -0.075 NA
HETATM    3  C2  UNL     1      23.934   1.374  52.439  1.00  0.00     0.264 A 
HETATM    4  C9  UNL     1      24.121   2.243  51.254  1.00  0.00     0.044 A 
HETATM    5  C10 UNL     1      23.048   2.291  50.441  1.00  0.00     0.148 C 
HETATM    6  O1  UNL     1      23.193   3.085  49.346  1.00  0.00    -0.362 OA
HETATM    7  C11 UNL     1      22.225   3.737  48.592  1.00  0.00     0.179 C 
HETATM    8  C12 UNL     1      22.808   4.871  47.763  1.00  0.00     0.066 C 
HETATM    9  C13 UNL     1      23.411   5.808  48.750  1.00  0.00    -0.039 A 
HETATM   10  C14 UNL     1      22.895   7.068  48.969  1.00  0.00     0.008 A 
HETATM   11  C15 UNL     1      23.376   8.003  49.861  1.00  0.00     0.001 A 
HETATM   12  C16 UNL     1      24.480   7.640  50.605  1.00  0.00     0.001 A 
HETATM   13  C17 UNL     1      25.021   6.385  50.410  1.00  0.00     0.019 A 
HETATM   14  C18 UNL     1      24.522   5.466  49.511  1.00  0.00     0.013 A 
HETATM   15  S1  UNL     1      25.402   3.918  49.439  1.00  0.00    -0.069 SA
HETATM   16  C19 UNL     1      25.336   2.993  50.959  1.00  0.00     0.129 A 
HETATM   17  N4  UNL     1      26.242   2.911  51.874  1.00  0.00    -0.056 NA
ENDROOT
BRANCH   3  18
HETATM   18  N3  UNL     1      22.685   1.682  53.110  1.00  0.00    -0.363 N 
HETATM   19  H4  UNL     1      22.435   2.636  53.445  1.00  0.00     0.162 HD
BRANCH  18  20
HETATM   20  C3  UNL     1      21.741   0.642  53.332  1.00  0.00     0.031 A 
HETATM   21  C4  UNL     1      22.023  -0.434  54.183  1.00  0.00     0.032 A 
HETATM   22  C5  UNL     1      21.134  -1.449  54.414  1.00  0.00     0.046 A 
HETATM   23  C6  UNL     1      19.898  -1.452  53.804  1.00  0.00     0.133 A 
HETATM   24  F1  UNL     1      18.982  -2.415  53.988  1.00  0.00    -0.205 F 
HETATM   25  C7  UNL     1      19.587  -0.397  52.952  1.00  0.00     0.051 A 
HETATM   26 BR1  UNL     1      17.874  -0.366  52.083  1.00  0.00    -0.048 Br
HETATM   27  C8  UNL     1      20.505   0.597  52.749  1.00  0.00     0.051 A 
ENDBRANCH  18  20
ENDBRANCH   3  18
BRANCH   1  28
HETATM   28  N1  UNL     1      27.257   2.258  53.895  1.00  0.00    -0.231 N 
HETATM   29  H1  UNL     1      27.384   1.530  54.633  1.00  0.00     0.174 HD
HETATM   30  H2  UNL     1      27.900   3.080  53.705  1.00  0.00     0.174 HD
ENDBRANCH   1  28
TORSDOF 3
ENDMDL
MODEL 3
REMARK VINA RESULT:      -8.5      3.214      5.065
REMARK  3 active torsions:
REMARK  status: ('A' for Active; 'I' for Inactive)
REMARK    1  A    between atoms: N1_1  and  C1_2 
REMARK    2  A    between atoms: C2_4  and  N3_5 
REMARK    3  A    between atoms: N3_5  and  C3_6 
ROOT
HETATM    1  C1  UNL     1      23.700   5.416  52.063  1.00  0.00     0.719 A 
HETATM    2  N2  UNL     1      24.386   5.091  51.028  1.00  0.00    -0.075 NA
HETATM    3  C2  UNL     1      23.860   4.279  49.985  1.00  0.00     0.264 A 
HETATM    4  C9  UNL     1      22.490   3.814  50.303  1.00  0.00     0.044 A 
HETATM    5  C10 UNL     1      21.985   2.953  49.399  1.00  0.00     0.148 C 
HETATM    6  O1  UNL     1      20.728   2.510  49.668  1.00  0.00    -0.362 OA
HETATM    7  C11 UNL     1      20.104   1.332  49.278  1.00  0.00     0.179 C 
HETATM    8  C12 UNL     1      18.902   1.001  50.150  1.00  0.00     0.066 C 
HETATM    9  C13 UNL     1      19.445   0.864  51.530  1.00  0.00    -0.039 A 
HETATM   10  C14 UNL     1      19.469  -0.347  52.187  1.00  0.00     0.008 A 
HETATM   11  C15 UNL     1      19.953  -0.577  53.458  1.00  0.00     0.001 A 
HETATM   12  C16 UNL     1      20.463   0.514  54.133  1.00  0.00     0.001 A 
HETATM   13  C17 UNL     1      20.454   1.741  53.502  1.00  0.00     0.019 A 
HETATM   14  C18 UNL     1      19.964   1.947  52.230  1.00  0.00     0.013 A 
HETATM   15  S1  UNL     1      20.058   3.625  51.640  1.00  0.00    -0.069 SA
HETATM   16  C19 UNL     1      21.725   4.226  51.474  1.00  0.00     0.129 A 
HETATM   17  N4  UNL     1      22.375   4.988  52.288  1.00  0.00    -0.056 NA
ENDROOT
BRANCH   3  18
HETATM   18  N3  UNL     1      24.726   3.156  49.677  1.00  0.00    -0.363 N 
HETATM   19  H4  UNL     1      24.955   2.859  48.705  1.00  0.00     0.162 HD
BRANCH  18  20
HETATM   20  C3  UNL     1      25.301   2.410  50.743  1.00  0.00     0.031 A 
HETATM   21  C4  UNL     1      26.654   2.538  51.079  1.00  0.00     0.032 A 
HETATM   22  C5  UNL     1      27.235   1.833  52.099  1.00  0.00     0.046 A 
HETATM   23  C6  UNL     1      26.492   0.948  52.852  1.00  0.00     0.133 A 
HETATM   24  F1  UNL     1      27.001   0.228  53.863  1.00  0.00    -0.205 F 
HETATM   25  C7  UNL     1      25.145   0.797  52.543  1.00  0.00     0.051 A 
HETATM   26 BR1  UNL     1      24.078  -0.426  53.569  1.00  0.00    -0.048 Br
HETATM   27  C8  UNL     1      24.604   1.522  51.515  1.00  0.00     0.051 A 
ENDBRANCH  18  20
ENDBRANCH   3  18
BRANCH   1  28
HETATM   28  N1  UNL     1      24.176   6.236  53.150  1.00  0.00    -0.231 N 
HETATM   29  H1  UNL     1      23.522   6.960  53.524  1.00  0.00     0.174 HD
HETATM   30  H2  UNL     1      25.161   6.042  53.491  1.00  0.00     0.174 HD
ENDBRANCH   1  28
TORSDOF 3
ENDMDL
MODEL 4
REMARK VINA RESULT:      -8.5      1.753      2.118
REMARK  3 active torsions:
REMARK  status: ('A' for Active; 'I' for Inactive)
REMARK    1  A    between atoms: N1_1  and  C1_2 
REMARK    2  A    between atoms: C2_4  and  N3_5 
REMARK    3  A    between atoms: N3_5  and  C3_6 
ROOT
HETATM    1  C1  UNL     1      22.134   0.011  53.300  1.00  0.00     0.719 A 
HETATM    2  N2  UNL     1      23.409   0.149  53.366  1.00  0.00    -0.075 NA
HETATM    3  C2  UNL     1      24.065   1.365  53.027  1.00  0.00     0.264 A 
HETATM    4  C9  UNL     1      23.103   2.375  52.526  1.00  0.00     0.044 A 
HETATM    5  C10 UNL     1      23.684   3.508  52.089  1.00  0.00     0.148 C 
HETATM    6  O1  UNL     1      22.824   4.452  51.622  1.00  0.00    -0.362 OA
HETATM    7  C11 UNL     1      23.041   5.469  50.701  1.00  0.00     0.179 C 
HETATM    8  C12 UNL     1      21.743   5.997  50.108  1.00  0.00     0.066 C 
HETATM    9  C13 UNL     1      21.112   4.825  49.442  1.00  0.00    -0.039 A 
HETATM   10  C14 UNL     1      20.978   4.750  48.072  1.00  0.00     0.008 A 
HETATM   11  C15 UNL     1      20.415   3.710  47.363  1.00  0.00     0.001 A 
HETATM   12  C16 UNL     1      19.941   2.643  48.099  1.00  0.00     0.001 A 
HETATM   13  C17 UNL     1      20.060   2.687  49.472  1.00  0.00     0.019 A 
HETATM   14  C18 UNL     1      20.628   3.739  50.161  1.00  0.00     0.013 A 
HETATM   15  S1  UNL     1      20.657   3.561  51.933  1.00  0.00    -0.069 SA
HETATM   16  C19 UNL     1      21.656   2.198  52.493  1.00  0.00     0.129 A 
HETATM   17  N4  UNL     1      21.259   1.028  52.867  1.00  0.00    -0.056 NA
ENDROOT
BRANCH   3  18
HETATM   18  N3  UNL     1      25.138   1.160  52.073  1.00  0.00    -0.363 N 
HETATM   19  H4  UNL     1      24.995   1.163  51.041  1.00  0.00     0.162 HD
BRANCH  18  20
HETATM   20  C3  UNL     1      26.460   0.943  52.550  1.00  0.00     0.031 A 
HETATM   21  C4  UNL     1      27.271   2.006  52.968  1.00  0.00     0.032 A 
HETATM   22  C5  UNL     1      28.546   1.827  53.431  1.00  0.00     0.046 A 
HETATM   23  C6  UNL     1      29.095   0.564  53.507  1.00  0.00     0.133 A 
HETATM   24  F1  UNL     1      30.338   0.321  53.951  1.00  0.00    -0.205 F 
HETATM   25  C7  UNL     1      28.315  -0.513  53.099  1.00  0.00     0.051 A 
HETATM   26 BR1  UNL     1      29.045  -2.288  53.190  1.00  0.00    -0.048 Br
HETATM   27  C8  UNL     1      27.044  -0.289  52.642  1.00  0.00     0.051 A 
ENDBRANCH  18  20
ENDBRANCH   3  18
BRANCH   1  28
HETATM   28  N1  UNL     1      21.412  -1.193  53.632  1.00  0.00    -0.231 N 
HETATM   29  H1  UNL     1      20.372  -1.124  53.699  1.00  0.00     0.174 HD
HETATM   30  H2  UNL     1      21.996  -2.065  53.783  1.00  0.00     0.174 HD
ENDBRANCH   1  28
TORSDOF 3
ENDMDL
MODEL 5
REMARK VINA RESULT:      -8.4      9.365     11.770
REMARK  3 active torsions:
REMARK  status: ('A' for Active; 'I' for Inactive)
REMARK    1  A    between atoms: N1_1  and  C1_2 
REMARK    2  A    between atoms: C2_4  and  N3_5 
REMARK    3  A    between atoms: N3_5  and  C3_6 
ROOT
HETATM    1  C1  UNL     1      30.294   8.551  45.274  1.00  0.00     0.719 A 
HETATM    2  N2  UNL     1      30.128   9.175  46.385  1.00  0.00    -0.075 NA
HETATM    3  C2  UNL     1      31.033   9.048  47.475  1.00  0.00     0.264 A 
HETATM    4  C9  UNL     1      32.100   8.064  47.179  1.00  0.00     0.044 A 
HETATM    5  C10 UNL     1      32.922   7.825  48.218  1.00  0.00     0.148 C 
HETATM    6  O1  UNL     1      33.910   6.923  47.973  1.00  0.00    -0.362 OA
HETATM    7  C11 UNL     1      34.598   6.102  48.857  1.00  0.00     0.179 C 
HETATM    8  C12 UNL     1      35.273   4.934  48.154  1.00  0.00     0.066 C 
HETATM    9  C13 UNL     1      34.168   4.178  47.503  1.00  0.00    -0.039 A 
HETATM   10  C14 UNL     1      33.808   2.913  47.915  1.00  0.00     0.008 A 
HETATM   11  C15 UNL     1      32.800   2.136  47.383  1.00  0.00     0.001 A 
HETATM   12  C16 UNL     1      32.085   2.682  46.337  1.00  0.00     0.001 A 
HETATM   13  C17 UNL     1      32.419   3.947  45.901  1.00  0.00     0.019 A 
HETATM   14  C18 UNL     1      33.432   4.706  46.449  1.00  0.00     0.013 A 
HETATM   15  S1  UNL     1      33.673   6.306  45.703  1.00  0.00    -0.069 SA
HETATM   16  C19 UNL     1      32.278   7.395  45.895  1.00  0.00     0.129 A 
HETATM   17  N4  UNL     1      31.362   7.666  45.027  1.00  0.00    -0.056 NA
ENDROOT
BRANCH   3  18
HETATM   18  N3  UNL     1      30.354   8.712  48.713  1.00  0.00    -0.363 N 
HETATM   19  H4  UNL     1      30.634   9.094  49.641  1.00  0.00     0.162 HD
BRANCH  18  20
HETATM   20  C3  UNL     1      29.247   7.820  48.678  1.00  0.00     0.031 A 
HETATM   21  C4  UNL     1      29.412   6.460  48.387  1.00  0.00     0.032 A 
HETATM   22  C5  UNL     1      28.365   5.579  48.346  1.00  0.00     0.046 A 
HETATM   23  C6  UNL     1      27.078   6.006  48.595  1.00  0.00     0.133 A 
HETATM   24  F1  UNL     1      26.010   5.194  48.570  1.00  0.00    -0.205 F 
HETATM   25  C7  UNL     1      26.880   7.351  48.887  1.00  0.00     0.051 A 
HETATM   26 BR1  UNL     1      25.101   7.984  49.240  1.00  0.00    -0.048 Br
HETATM   27  C8  UNL     1      27.955   8.198  48.917  1.00  0.00     0.051 A 
ENDBRANCH  18  20
ENDBRANCH   3  18
BRANCH   1  28
HETATM   28  N1  UNL     1      29.415   8.641  44.134  1.00  0.00    -0.231 N 
HETATM   29  H1  UNL     1      28.391   8.534  44.310  1.00  0.00     0.174 HD
HETATM   30  H2  UNL     1      29.877   8.812  43.195  1.00  0.00     0.174 HD
ENDBRANCH   1  28
TORSDOF 3
ENDMDL
MODEL 6
REMARK VINA RESULT:      -8.4      9.105     11.318
REMARK  3 active torsions:
REMARK  status: ('A' for Active; 'I' for Inactive)
REMARK    1  A    between atoms: N1_1  and  C1_2 
REMARK    2  A    between atoms: C2_4  and  N3_5 
REMARK    3  A    between atoms: N3_5  and  C3_6 
ROOT
HETATM    1  C1  UNL     1      30.569   9.614  47.957  1.00  0.00     0.719 A 
HETATM    2  N2  UNL     1      29.555   8.911  48.313  1.00  0.00    -0.075 NA
HETATM    3  C2  UNL     1      29.648   7.517  48.584  1.00  0.00     0.264 A 
HETATM    4  C9  UNL     1      31.015   7.007  48.321  1.00  0.00     0.044 A 
HETATM    5  C10 UNL     1      31.131   5.673  48.458  1.00  0.00     0.148 C 
HETATM    6  O1  UNL     1      32.376   5.178  48.220  1.00  0.00    -0.362 OA
HETATM    7  C11 UNL     1      32.759   3.909  47.805  1.00  0.00     0.179 C 
HETATM    8  C12 UNL     1      34.161   3.894  47.215  1.00  0.00     0.066 C 
HETATM    9  C13 UNL     1      34.106   4.822  46.052  1.00  0.00    -0.039 A 
HETATM   10  C14 UNL     1      34.229   4.373  44.755  1.00  0.00     0.008 A 
HETATM   11  C15 UNL     1      34.187   5.149  43.615  1.00  0.00     0.001 A 
HETATM   12  C16 UNL     1      34.002   6.504  43.795  1.00  0.00     0.001 A 
HETATM   13  C17 UNL     1      33.875   6.986  45.081  1.00  0.00     0.019 A 
HETATM   14  C18 UNL     1      33.921   6.191  46.207  1.00  0.00     0.013 A 
HETATM   15  S1  UNL     1      33.738   7.053  47.756  1.00  0.00    -0.069 SA
HETATM   16  C19 UNL     1      32.152   7.839  47.947  1.00  0.00     0.129 A 
HETATM   17  N4  UNL     1      31.862   9.084  47.775  1.00  0.00    -0.056 NA
ENDROOT
BRANCH   3  18
HETATM   18  N3  UNL     1      28.662   6.750  47.847  1.00  0.00    -0.363 N 
HETATM   19  H4  UNL     1      28.691   6.624  46.813  1.00  0.00     0.162 HD
BRANCH  18  20
HETATM   20  C3  UNL     1      27.596   6.130  48.554  1.00  0.00     0.031 A 
HETATM   21  C4  UNL     1      27.520   4.738  48.692  1.00  0.00     0.032 A 
HETATM   22  C5  UNL     1      26.505   4.114  49.366  1.00  0.00     0.046 A 
HETATM   23  C6  UNL     1      25.494   4.848  49.948  1.00  0.00     0.133 A 
HETATM   24  F1  UNL     1      24.472   4.298  50.621  1.00  0.00    -0.205 F 
HETATM   25  C7  UNL     1      25.539   6.233  49.828  1.00  0.00     0.051 A 
HETATM   26 BR1  UNL     1      24.148   7.290  50.626  1.00  0.00    -0.048 Br
HETATM   27  C8  UNL     1      26.572   6.816  49.146  1.00  0.00     0.051 A 
ENDBRANCH  18  20
ENDBRANCH   3  18
BRANCH   1  28
HETATM   28  N1  UNL     1      30.538  11.028  47.671  1.00  0.00    -0.231 N 
HETATM   29  H1  UNL     1      31.125  11.368  46.878  1.00  0.00     0.174 HD
HETATM   30  H2  UNL     1      29.916  11.621  48.293  1.00  0.00     0.174 HD
ENDBRANCH   1  28
TORSDOF 3
ENDMDL
MODEL 7
REMARK VINA RESULT:      -8.3      7.986     10.400
REMARK  3 active torsions:
REMARK  status: ('A' for Active; 'I' for Inactive)
REMARK    1  A    between atoms: N1_1  and  C1_2 
REMARK    2  A    between atoms: C2_4  and  N3_5 
REMARK    3  A    between atoms: N3_5  and  C3_6 
ROOT
HETATM    1  C1  UNL     1      31.008   5.824  48.466  1.00  0.00     0.719 A 
HETATM    2  N2  UNL     1      29.837   5.331  48.654  1.00  0.00    -0.075 NA
HETATM    3  C2  UNL     1      28.661   5.928  48.120  1.00  0.00     0.264 A 
HETATM    4  C9  UNL     1      28.970   7.195  47.417  1.00  0.00     0.044 A 
HETATM    5  C10 UNL     1      27.880   7.856  46.985  1.00  0.00     0.148 C 
HETATM    6  O1  UNL     1      28.136   9.024  46.338  1.00  0.00    -0.362 OA
HETATM    7  C11 UNL     1      27.335  10.149  46.192  1.00  0.00     0.179 C 
HETATM    8  C12 UNL     1      28.138  11.385  45.818  1.00  0.00     0.066 C 
HETATM    9  C13 UNL     1      29.100  11.580  46.938  1.00  0.00    -0.039 A 
HETATM   10  C14 UNL     1      29.016  12.658  47.792  1.00  0.00     0.008 A 
HETATM   11  C15 UNL     1      29.852  12.923  48.857  1.00  0.00     0.001 A 
HETATM   12  C16 UNL     1      30.869  12.020  49.086  1.00  0.00     0.001 A 
HETATM   13  C17 UNL     1      30.981  10.929  48.248  1.00  0.00     0.019 A 
HETATM   14  C18 UNL     1      30.133  10.684  47.189  1.00  0.00     0.013 A 
HETATM   15  S1  UNL     1      30.491   9.212  46.252  1.00  0.00    -0.069 SA
HETATM   16  C19 UNL     1      30.315   7.712  47.193  1.00  0.00     0.129 A 
HETATM   17  N4  UNL     1      31.249   7.008  47.739  1.00  0.00    -0.056 NA
ENDROOT
BRANCH   3  18
HETATM   18  N3  UNL     1      27.645   6.137  49.134  1.00  0.00    -0.363 N 
HETATM   19  H4  UNL     1      27.678   6.917  49.825  1.00  0.00     0.162 HD
BRANCH  18  20
HETATM   20  C3  UNL     1      26.540   5.245  49.205  1.00  0.00     0.031 A 
HETATM   21  C4  UNL     1      26.704   3.904  49.577  1.00  0.00     0.032 A 
HETATM   22  C5  UNL     1      25.660   3.023  49.653  1.00  0.00     0.046 A 
HETATM   23  C6  UNL     1      24.375   3.430  49.361  1.00  0.00     0.133 A 
HETATM   24  F1  UNL     1      23.310   2.617  49.416  1.00  0.00    -0.205 F 
HETATM   25  C7  UNL     1      24.178   4.756  48.988  1.00  0.00     0.051 A 
HETATM   26 BR1  UNL     1      22.403   5.361  48.574  1.00  0.00    -0.048 Br
HETATM   27  C8  UNL     1      25.251   5.604  48.924  1.00  0.00     0.051 A 
ENDBRANCH  18  20
ENDBRANCH   3  18
BRANCH   1  28
HETATM   28  N1  UNL     1      32.235   5.266  48.979  1.00  0.00    -0.231 N 
HETATM   29  H1  UNL     1      33.061   5.259  48.339  1.00  0.00     0.174 HD
HETATM   30  H2  UNL     1      32.207   4.901  49.974  1.00  0.00     0.174 HD
ENDBRANCH   1  28
TORSDOF 3
ENDMDL
MODEL 8
REMARK VINA RESULT:      -8.1      2.095      2.671
REMARK  3 active torsions:
REMARK  status: ('A' for Active; 'I' for Inactive)
REMARK    1  A    between atoms: N1_1  and  C1_2 
REMARK    2  A    between atoms: C2_4  and  N3_5 
REMARK    3  A    between atoms: N3_5  and  C3_6 
ROOT
HETATM    1  C1  UNL     1      21.610   1.165  51.776  1.00  0.00     0.719 A 
HETATM    2  N2  UNL     1      22.810   0.887  52.143  1.00  0.00    -0.075 NA
HETATM    3  C2  UNL     1      23.811   1.884  52.301  1.00  0.00     0.264 A 
HETATM    4  C9  UNL     1      23.306   3.222  51.913  1.00  0.00     0.044 A 
HETATM    5  C10 UNL     1      24.246   4.186  51.941  1.00  0.00     0.148 C 
HETATM    6  O1  UNL     1      23.809   5.424  51.587  1.00  0.00    -0.362 OA
HETATM    7  C11 UNL     1      24.517   6.494  51.053  1.00  0.00     0.179 C 
HETATM    8  C12 UNL     1      23.608   7.507  50.374  1.00  0.00     0.066 C 
HETATM    9  C13 UNL     1      22.920   6.752  49.291  1.00  0.00    -0.039 A 
HETATM   10  C14 UNL     1      23.161   7.008  47.958  1.00  0.00     0.008 A 
HETATM   11  C15 UNL     1      22.581   6.363  46.885  1.00  0.00     0.001 A 
HETATM   12  C16 UNL     1      21.674   5.365  47.179  1.00  0.00     0.001 A 
HETATM   13  C17 UNL     1      21.412   5.084  48.503  1.00  0.00     0.019 A 
HETATM   14  C18 UNL     1      22.004   5.743  49.561  1.00  0.00     0.013 A 
HETATM   15  S1  UNL     1      21.492   5.199  51.179  1.00  0.00    -0.069 SA
HETATM   16  C19 UNL     1      21.929   3.510  51.531  1.00  0.00     0.129 A 
HETATM   17  N4  UNL     1      21.169   2.469  51.472  1.00  0.00    -0.056 NA
ENDROOT
BRANCH   3  18
HETATM   18  N3  UNL     1      25.024   1.562  51.573  1.00  0.00    -0.363 N 
HETATM   19  H4  UNL     1      25.153   1.762  50.558  1.00  0.00     0.162 HD
BRANCH  18  20
HETATM   20  C3  UNL     1      26.103   0.942  52.261  1.00  0.00     0.031 A 
HETATM   21  C4  UNL     1      26.222  -0.452  52.331  1.00  0.00     0.032 A 
HETATM   22  C5  UNL     1      27.249  -1.076  52.986  1.00  0.00     0.046 A 
HETATM   23  C6  UNL     1      28.229  -0.340  53.618  1.00  0.00     0.133 A 
HETATM   24  F1  UNL     1      29.260  -0.890  54.277  1.00  0.00    -0.205 F 
HETATM   25  C7  UNL     1      28.139   1.048  53.568  1.00  0.00     0.051 A 
HETATM   26 BR1  UNL     1      29.485   2.107  54.436  1.00  0.00    -0.048 Br
HETATM   27  C8  UNL     1      27.095   1.631  52.901  1.00  0.00     0.051 A 
ENDBRANCH  18  20
ENDBRANCH   3  18
BRANCH   1  28
HETATM   28  N1  UNL     1      20.553   0.200  51.601  1.00  0.00    -0.231 N 
HETATM   29  H1  UNL     1      19.601   0.569  51.378  1.00  0.00     0.174 HD
HETATM   30  H2  UNL     1      20.822  -0.820  51.711  1.00  0.00     0.174 HD
ENDBRANCH   1  28
TORSDOF 3
ENDMDL
MODEL 9
REMARK VINA RESULT:      -7.8      4.124      5.807
REMARK  3 active torsions:
REMARK  status: ('A' for Active; 'I' for Inactive)
REMARK    1  A    between atoms: N1_1  and  C1_2 
REMARK    2  A    between atoms: C2_4  and  N3_5 
REMARK    3  A    between atoms: N3_5  and  C3_6 
ROOT
HETATM    1  C1  UNL     1      26.298   5.473  49.286  1.00  0.00     0.719 A 
HETATM    2  N2  UNL     1      26.167   4.501  50.116  1.00  0.00    -0.075 NA
HETATM    3  C2  UNL     1      24.942   3.798  50.282  1.00  0.00     0.264 A 
HETATM    4  C9  UNL     1      23.865   4.387  49.452  1.00  0.00     0.044 A 
HETATM    5  C10 UNL     1      22.657   3.827  49.653  1.00  0.00     0.148 C 
HETATM    6  O1  UNL     1      21.650   4.351  48.905  1.00  0.00    -0.362 OA
HETATM    7  C11 UNL     1      20.285   4.384  49.158  1.00  0.00     0.179 C 
HETATM    8  C12 UNL     1      19.571   5.444  48.333  1.00  0.00     0.066 C 
HETATM    9  C13 UNL     1      20.199   6.735  48.726  1.00  0.00    -0.039 A 
HETATM   10  C14 UNL     1      19.506   7.702  49.422  1.00  0.00     0.008 A 
HETATM   11  C15 UNL     1      19.999   8.923  49.834  1.00  0.00     0.001 A 
HETATM   12  C16 UNL     1      21.313   9.199  49.518  1.00  0.00     0.001 A 
HETATM   13  C17 UNL     1      22.035   8.251  48.822  1.00  0.00     0.019 A 
HETATM   14  C18 UNL     1      21.521   7.037  48.420  1.00  0.00     0.013 A 
HETATM   15  S1  UNL     1      22.653   5.989  47.528  1.00  0.00    -0.069 SA
HETATM   16  C19 UNL     1      24.054   5.472  48.497  1.00  0.00     0.129 A 
HETATM   17  N4  UNL     1      25.249   5.957  48.479  1.00  0.00    -0.056 NA
ENDROOT
BRANCH   3  18
HETATM   18  N3  UNL     1      24.538   3.725  51.674  1.00  0.00    -0.363 N 
HETATM   19  H4  UNL     1      24.146   4.536  52.199  1.00  0.00     0.162 HD
BRANCH  18  20
HETATM   20  C3  UNL     1      24.674   2.495  52.373  1.00  0.00     0.031 A 
HETATM   21  C4  UNL     1      23.604   1.601  52.499  1.00  0.00     0.032 A 
HETATM   22  C5  UNL     1      23.706   0.411  53.167  1.00  0.00     0.046 A 
HETATM   23  C6  UNL     1      24.895   0.037  53.756  1.00  0.00     0.133 A 
HETATM   24  F1  UNL     1      25.061  -1.115  54.424  1.00  0.00    -0.205 F 
HETATM   25  C7  UNL     1      25.978   0.903  53.650  1.00  0.00     0.051 A 
HETATM   26 BR1  UNL     1      27.651   0.417  54.458  1.00  0.00    -0.048 Br
HETATM   27  C8  UNL     1      25.832   2.084  52.973  1.00  0.00     0.051 A 
ENDBRANCH  18  20
ENDBRANCH   3  18
BRANCH   1  28
HETATM   28  N1  UNL     1      27.512   6.221  49.072  1.00  0.00    -0.231 N 
HETATM   29  H1  UNL     1      27.627   6.691  48.146  1.00  0.00     0.174 HD
HETATM   30  H2  UNL     1      28.203   6.240  49.876  1.00  0.00     0.174 HD
ENDBRANCH   1  28
TORSDOF 3
ENDMDL
