MODEL 1
REMARK VINA RESULT:      -7.0      0.000      0.000
REMARK  6 active torsions:
REMARK  status: ('A' for Active; 'I' for Inactive)
REMARK    1  A    between atoms: C3_3  and  C4_4 
REMARK    2  A    between atoms: C4_4  and  O1_5 
REMARK    3  A    between atoms: C6_7  and  O2_8 
REMARK    4  A    between atoms: C11_13  and  N1_14 
REMARK    5  A    between atoms: C11_13  and  N2_15 
REMARK    6  A    between atoms: N2_15  and  C12_16 
ROOT
HETATM    1  C1  UNL     1      23.817   3.022  49.190  1.00  0.00     0.049 C 
HETATM    2  C2  UNL     1      23.292   2.201  50.311  1.00  0.00    -0.041 A 
HETATM    3  C3  UNL     1      22.117   1.552  50.264  1.00  0.00     0.005 A 
HETATM    4  C6  UNL     1      21.652   0.756  51.394  1.00  0.00     0.073 A 
HETATM    5  C8  UNL     1      22.315   0.616  52.502  1.00  0.00     0.015 A 
HETATM    6  C9  UNL     1      23.612   1.256  52.716  1.00  0.00     0.072 A 
HETATM    7  C10 UNL     1      24.044   2.066  51.545  1.00  0.00    -0.010 A 
HETATM    8  C11 UNL     1      25.200   2.654  51.752  1.00  0.00     0.085 C 
ENDROOT
BRANCH   8   9
HETATM    9  N1  UNL     1      26.122   3.508  51.109  1.00  0.00    -0.288 NA
HETATM   10  H15 UNL     1      26.165   3.761  50.092  1.00  0.00     0.125 HD
HETATM   11  H16 UNL     1      26.234   3.809  50.119  1.00  0.00     0.125 HD
ENDBRANCH   8   9
BRANCH   8  12
HETATM   12  N2  UNL     1      26.015   2.592  52.910  1.00  0.00    -0.347 N 
HETATM   13  H17 UNL     1      25.729   3.238  53.703  1.00  0.00     0.167 HD
BRANCH  12  14
HETATM   14  C12 UNL     1      27.165   1.805  53.202  1.00  0.00     0.034 A 
HETATM   15  C13 UNL     1      28.389   2.200  53.683  1.00  0.00     0.029 A 
HETATM   16  C14 UNL     1      29.353   1.241  53.885  1.00  0.00     0.004 A 
HETATM   17  C15 UNL     1      29.169  -0.103  53.635  1.00  0.00     0.019 A 
HETATM   18  C16 UNL     1      27.932  -0.477  53.152  1.00  0.00     0.013 A 
HETATM   19 BR1  UNL     1      27.688  -2.346  52.807  1.00  0.00    -0.051 Br
HETATM   20  C17 UNL     1      26.942   0.459  52.937  1.00  0.00     0.048 A 
ENDBRANCH  12  14
ENDBRANCH   8  12
BRANCH   3  21
HETATM   21  C4  UNL     1      21.217   1.576  49.101  1.00  0.00     0.209 C 
BRANCH  21  22
HETATM   22  O1  UNL     1      20.292   2.638  49.189  1.00  0.00    -0.391 OA
HETATM   23  C5  UNL     1      20.074   3.257  47.972  1.00  0.00     0.201 C 
ENDBRANCH  21  22
ENDBRANCH   3  21
BRANCH   4  24
HETATM   24  O2  UNL     1      20.432   0.077  51.355  1.00  0.00    -0.356 OA
HETATM   25  C7  UNL     1      19.553  -0.039  52.418  1.00  0.00     0.210 C 
ENDBRANCH   4  24
TORSDOF 6
ENDMDL
MODEL 2
REMARK VINA RESULT:      -7.0      3.539      5.369
REMARK  6 active torsions:
REMARK  status: ('A' for Active; 'I' for Inactive)
REMARK    1  A    between atoms: C3_3  and  C4_4 
REMARK    2  A    between atoms: C4_4  and  O1_5 
REMARK    3  A    between atoms: C6_7  and  O2_8 
REMARK    4  A    between atoms: C11_13  and  N1_14 
REMARK    5  A    between atoms: C11_13  and  N2_15 
REMARK    6  A    between atoms: N2_15  and  C12_16 
ROOT
HETATM    1  C1  UNL     1      25.359   1.531  53.495  1.00  0.00     0.049 C 
HETATM    2  C2  UNL     1      24.366   1.589  52.392  1.00  0.00    -0.041 A 
HETATM    3  C3  UNL     1      23.115   1.113  52.500  1.00  0.00     0.005 A 
HETATM    4  C6  UNL     1      22.179   1.201  51.385  1.00  0.00     0.073 A 
HETATM    5  C8  UNL     1      22.470   1.729  50.234  1.00  0.00     0.015 A 
HETATM    6  C9  UNL     1      23.790   2.293  49.952  1.00  0.00     0.072 A 
HETATM    7  C10 UNL     1      24.716   2.175  51.111  1.00  0.00    -0.010 A 
HETATM    8  C11 UNL     1      25.904   2.665  50.844  1.00  0.00     0.085 C 
ENDROOT
BRANCH   8   9
HETATM    9  N1  UNL     1      27.167   2.859  51.446  1.00  0.00    -0.288 NA
HETATM   10  H15 UNL     1      27.994   2.215  51.430  1.00  0.00     0.125 HD
HETATM   11  H16 UNL     1      28.030   2.279  51.479  1.00  0.00     0.125 HD
ENDBRANCH   8   9
BRANCH   8  12
HETATM   12  N2  UNL     1      26.353   3.256  49.636  1.00  0.00    -0.347 N 
HETATM   13  H17 UNL     1      26.527   2.580  48.836  1.00  0.00     0.167 HD
BRANCH  12  14
HETATM   14  C12 UNL     1      26.614   4.615  49.302  1.00  0.00     0.034 A 
HETATM   15  C13 UNL     1      27.651   5.146  48.575  1.00  0.00     0.029 A 
HETATM   16  C14 UNL     1      27.687   6.508  48.386  1.00  0.00     0.004 A 
HETATM   17  C15 UNL     1      26.740   7.380  48.881  1.00  0.00     0.019 A 
HETATM   18  C16 UNL     1      25.708   6.825  49.608  1.00  0.00     0.013 A 
HETATM   19 BR1  UNL     1      24.400   8.046  50.291  1.00  0.00    -0.051 Br
HETATM   20  C17 UNL     1      25.641   5.463  49.818  1.00  0.00     0.048 A 
ENDBRANCH  12  14
ENDBRANCH   8  12
BRANCH   3  21
HETATM   21  C4  UNL     1      22.582   0.482  53.717  1.00  0.00     0.209 C 
BRANCH  21  22
HETATM   22  O1  UNL     1      22.793  -0.913  53.707  1.00  0.00    -0.391 OA
HETATM   23  C5  UNL     1      21.692  -1.622  54.150  1.00  0.00     0.201 C 
ENDBRANCH  21  22
ENDBRANCH   3  21
BRANCH   4  24
HETATM   24  O2  UNL     1      20.875   0.709  51.486  1.00  0.00    -0.356 OA
HETATM   25  C7  UNL     1      19.728   1.483  51.429  1.00  0.00     0.210 C 
ENDBRANCH   4  24
TORSDOF 6
ENDMDL
MODEL 3
REMARK VINA RESULT:      -6.9      4.220      5.990
REMARK  6 active torsions:
REMARK  status: ('A' for Active; 'I' for Inactive)
REMARK    1  A    between atoms: C3_3  and  C4_4 
REMARK    2  A    between atoms: C4_4  and  O1_5 
REMARK    3  A    between atoms: C6_7  and  O2_8 
REMARK    4  A    between atoms: C11_13  and  N1_14 
REMARK    5  A    between atoms: C11_13  and  N2_15 
REMARK    6  A    between atoms: N2_15  and  C12_16 
ROOT
HETATM    1  C1  UNL     1      23.995   6.313  51.141  1.00  0.00     0.049 C 
HETATM    2  C2  UNL     1      25.071   5.650  50.360  1.00  0.00    -0.041 A 
HETATM    3  C3  UNL     1      25.951   6.321  49.599  1.00  0.00     0.005 A 
HETATM    4  C6  UNL     1      26.990   5.618  48.855  1.00  0.00     0.073 A 
HETATM    5  C8  UNL     1      27.144   4.328  48.869  1.00  0.00     0.015 A 
HETATM    6  C9  UNL     1      26.270   3.452  49.647  1.00  0.00     0.072 A 
HETATM    7  C10 UNL     1      25.218   4.207  50.381  1.00  0.00    -0.010 A 
HETATM    8  C11 UNL     1      24.424   3.412  51.061  1.00  0.00     0.085 C 
ENDROOT
BRANCH   8   9
HETATM    9  N1  UNL     1      23.300   3.458  51.913  1.00  0.00    -0.288 NA
HETATM   10  H15 UNL     1      23.174   2.984  52.840  1.00  0.00     0.125 HD
HETATM   11  H16 UNL     1      23.095   3.024  52.837  1.00  0.00     0.125 HD
ENDBRANCH   8   9
BRANCH   8  12
HETATM   12  N2  UNL     1      24.476   1.998  51.152  1.00  0.00    -0.347 N 
HETATM   13  H17 UNL     1      24.143   1.474  50.291  1.00  0.00     0.167 HD
BRANCH  12  14
HETATM   14  C12 UNL     1      24.903   1.146  52.209  1.00  0.00     0.034 A 
HETATM   15  C13 UNL     1      24.162   0.289  52.987  1.00  0.00     0.029 A 
HETATM   16  C14 UNL     1      24.810  -0.438  53.959  1.00  0.00     0.004 A 
HETATM   17  C15 UNL     1      26.165  -0.362  54.203  1.00  0.00     0.019 A 
HETATM   18  C16 UNL     1      26.889   0.504  53.411  1.00  0.00     0.013 A 
HETATM   19 BR1  UNL     1      28.770   0.600  53.760  1.00  0.00    -0.051 Br
HETATM   20  C17 UNL     1      26.271   1.249  52.427  1.00  0.00     0.048 A 
ENDBRANCH  12  14
ENDBRANCH   8  12
BRANCH   3  21
HETATM   21  C4  UNL     1      25.955   7.785  49.450  1.00  0.00     0.209 C 
BRANCH  21  22
HETATM   22  O1  UNL     1      26.770   8.398  50.425  1.00  0.00    -0.391 OA
HETATM   23  C5  UNL     1      27.620   9.346  49.888  1.00  0.00     0.201 C 
ENDBRANCH  21  22
ENDBRANCH   3  21
BRANCH   4  24
HETATM   24  O2  UNL     1      27.911   6.306  48.061  1.00  0.00    -0.356 OA
HETATM   25  C7  UNL     1      29.287   6.173  48.144  1.00  0.00     0.210 C 
ENDBRANCH   4  24
TORSDOF 6
ENDMDL
MODEL 4
REMARK VINA RESULT:      -6.9      3.547      5.402
REMARK  6 active torsions:
REMARK  status: ('A' for Active; 'I' for Inactive)
REMARK    1  A    between atoms: C3_3  and  C4_4 
REMARK    2  A    between atoms: C4_4  and  O1_5 
REMARK    3  A    between atoms: C6_7  and  O2_8 
REMARK    4  A    between atoms: C11_13  and  N1_14 
REMARK    5  A    between atoms: C11_13  and  N2_15 
REMARK    6  A    between atoms: N2_15  and  C12_16 
ROOT
HETATM    1  C1  UNL     1      25.294   1.611  53.364  1.00  0.00     0.049 C 
HETATM    2  C2  UNL     1      24.341   1.711  52.229  1.00  0.00    -0.041 A 
HETATM    3  C3  UNL     1      23.079   1.254  52.282  1.00  0.00     0.005 A 
HETATM    4  C6  UNL     1      22.185   1.382  51.137  1.00  0.00     0.073 A 
HETATM    5  C8  UNL     1      22.525   1.930  50.010  1.00  0.00     0.015 A 
HETATM    6  C9  UNL     1      23.862   2.478  49.787  1.00  0.00     0.072 A 
HETATM    7  C10 UNL     1      24.745   2.318  50.974  1.00  0.00    -0.010 A 
HETATM    8  C11 UNL     1      25.950   2.794  50.760  1.00  0.00     0.085 C 
ENDROOT
BRANCH   8   9
HETATM    9  N1  UNL     1      27.194   2.954  51.410  1.00  0.00    -0.288 NA
HETATM   10  H15 UNL     1      27.975   3.605  51.155  1.00  0.00     0.125 HD
HETATM   11  H16 UNL     1      28.013   3.568  51.226  1.00  0.00     0.125 HD
ENDBRANCH   8   9
BRANCH   8  12
HETATM   12  N2  UNL     1      26.450   3.404  49.583  1.00  0.00    -0.347 N 
HETATM   13  H17 UNL     1      26.815   2.735  48.843  1.00  0.00     0.167 HD
BRANCH  12  14
HETATM   14  C12 UNL     1      26.551   4.775  49.211  1.00  0.00     0.034 A 
HETATM   15  C13 UNL     1      25.628   5.783  49.350  1.00  0.00     0.029 A 
HETATM   16  C14 UNL     1      25.962   7.042  48.908  1.00  0.00     0.004 A 
HETATM   17  C15 UNL     1      27.173   7.359  48.330  1.00  0.00     0.019 A 
HETATM   18  C16 UNL     1      28.084   6.332  48.200  1.00  0.00     0.013 A 
HETATM   19 BR1  UNL     1      29.763   6.785  47.396  1.00  0.00    -0.051 Br
HETATM   20  C17 UNL     1      27.782   5.057  48.633  1.00  0.00     0.048 A 
ENDBRANCH  12  14
ENDBRANCH   8  12
BRANCH   3  21
HETATM   21  C4  UNL     1      22.494   0.604  53.465  1.00  0.00     0.209 C 
BRANCH  21  22
HETATM   22  O1  UNL     1      22.609  -0.800  53.390  1.00  0.00    -0.391 OA
HETATM   23  C5  UNL     1      21.679  -1.453  54.176  1.00  0.00     0.201 C 
ENDBRANCH  21  22
ENDBRANCH   3  21
BRANCH   4  24
HETATM   24  O2  UNL     1      20.870   0.910  51.182  1.00  0.00    -0.356 OA
HETATM   25  C7  UNL     1      19.740   1.709  51.179  1.00  0.00     0.210 C 
ENDBRANCH   4  24
TORSDOF 6
ENDMDL
MODEL 5
REMARK VINA RESULT:      -6.8      4.063      6.933
REMARK  6 active torsions:
REMARK  status: ('A' for Active; 'I' for Inactive)
REMARK    1  A    between atoms: C3_3  and  C4_4 
REMARK    2  A    between atoms: C4_4  and  O1_5 
REMARK    3  A    between atoms: C6_7  and  O2_8 
REMARK    4  A    between atoms: C11_13  and  N1_14 
REMARK    5  A    between atoms: C11_13  and  N2_15 
REMARK    6  A    between atoms: N2_15  and  C12_16 
ROOT
HETATM    1  C1  UNL     1      28.283   2.402  52.761  1.00  0.00     0.049 C 
HETATM    2  C2  UNL     1      27.024   1.635  52.941  1.00  0.00    -0.041 A 
HETATM    3  C3  UNL     1      26.878   0.658  53.850  1.00  0.00     0.005 A 
HETATM    4  C6  UNL     1      25.617  -0.061  53.986  1.00  0.00     0.073 A 
HETATM    5  C8  UNL     1      24.565   0.178  53.262  1.00  0.00     0.015 A 
HETATM    6  C9  UNL     1      24.556   1.210  52.226  1.00  0.00     0.072 A 
HETATM    7  C10 UNL     1      25.864   1.912  52.113  1.00  0.00    -0.010 A 
HETATM    8  C11 UNL     1      25.855   2.823  51.168  1.00  0.00     0.085 C 
ENDROOT
BRANCH   8   9
HETATM    9  N1  UNL     1      26.698   3.783  50.567  1.00  0.00    -0.288 NA
HETATM   10  H15 UNL     1      27.227   4.558  51.035  1.00  0.00     0.125 HD
HETATM   11  H16 UNL     1      27.253   4.575  50.952  1.00  0.00     0.125 HD
ENDBRANCH   8   9
BRANCH   8  12
HETATM   12  N2  UNL     1      24.786   3.174  50.306  1.00  0.00    -0.347 N 
HETATM   13  H17 UNL     1      24.579   2.479  49.531  1.00  0.00     0.167 HD
BRANCH  12  14
HETATM   14  C12 UNL     1      23.929   4.310  50.296  1.00  0.00     0.034 A 
HETATM   15  C13 UNL     1      23.309   4.941  51.348  1.00  0.00     0.029 A 
HETATM   16  C14 UNL     1      22.518   6.034  51.081  1.00  0.00     0.004 A 
HETATM   17  C15 UNL     1      22.307   6.543  49.816  1.00  0.00     0.019 A 
HETATM   18  C16 UNL     1      22.939   5.895  48.776  1.00  0.00     0.013 A 
HETATM   19 BR1  UNL     1      22.638   6.610  47.025  1.00  0.00    -0.051 Br
HETATM   20  C17 UNL     1      23.739   4.795  49.007  1.00  0.00     0.048 A 
ENDBRANCH  12  14
ENDBRANCH   8  12
BRANCH   3  21
HETATM   21  C4  UNL     1      27.943   0.235  54.773  1.00  0.00     0.209 C 
BRANCH  21  22
HETATM   22  O1  UNL     1      28.620  -0.904  54.288  1.00  0.00    -0.391 OA
HETATM   23  C5  UNL     1      29.893  -0.614  53.833  1.00  0.00     0.201 C 
ENDBRANCH  21  22
ENDBRANCH   3  21
BRANCH   4  24
HETATM   24  O2  UNL     1      25.454  -1.079  54.930  1.00  0.00    -0.356 OA
HETATM   25  C7  UNL     1      24.325  -1.268  55.707  1.00  0.00     0.210 C 
ENDBRANCH   4  24
TORSDOF 6
ENDMDL
MODEL 6
REMARK VINA RESULT:      -6.8      2.105      3.006
REMARK  6 active torsions:
REMARK  status: ('A' for Active; 'I' for Inactive)
REMARK    1  A    between atoms: C3_3  and  C4_4 
REMARK    2  A    between atoms: C4_4  and  O1_5 
REMARK    3  A    between atoms: C6_7  and  O2_8 
REMARK    4  A    between atoms: C11_13  and  N1_14 
REMARK    5  A    between atoms: C11_13  and  N2_15 
REMARK    6  A    between atoms: N2_15  and  C12_16 
ROOT
HETATM    1  C1  UNL     1      21.326   1.376  50.078  1.00  0.00     0.049 C 
HETATM    2  C2  UNL     1      21.015   0.738  51.383  1.00  0.00    -0.041 A 
HETATM    3  C3  UNL     1      19.807   0.237  51.690  1.00  0.00     0.005 A 
HETATM    4  C6  UNL     1      19.558  -0.382  52.986  1.00  0.00     0.073 A 
HETATM    5  C8  UNL     1      20.455  -0.497  53.919  1.00  0.00     0.015 A 
HETATM    6  C9  UNL     1      21.821  -0.003  53.745  1.00  0.00     0.072 A 
HETATM    7  C10 UNL     1      22.030   0.630  52.414  1.00  0.00    -0.010 A 
HETATM    8  C11 UNL     1      23.252   1.089  52.273  1.00  0.00     0.085 C 
ENDROOT
BRANCH   8   9
HETATM    9  N1  UNL     1      24.067   1.756  51.333  1.00  0.00    -0.288 NA
HETATM   10  H15 UNL     1      23.802   2.546  50.696  1.00  0.00     0.125 HD
HETATM   11  H16 UNL     1      23.886   2.538  50.671  1.00  0.00     0.125 HD
ENDBRANCH   8   9
BRANCH   8  12
HETATM   12  N2  UNL     1      24.316   1.038  53.208  1.00  0.00    -0.347 N 
HETATM   13  H17 UNL     1      24.178   1.617  54.087  1.00  0.00     0.167 HD
BRANCH  12  14
HETATM   14  C12 UNL     1      25.554   0.336  53.177  1.00  0.00     0.034 A 
HETATM   15  C13 UNL     1      25.817  -0.945  52.757  1.00  0.00     0.029 A 
HETATM   16  C14 UNL     1      27.112  -1.404  52.825  1.00  0.00     0.004 A 
HETATM   17  C15 UNL     1      28.172  -0.653  53.290  1.00  0.00     0.019 A 
HETATM   18  C16 UNL     1      27.885   0.630  53.705  1.00  0.00     0.013 A 
HETATM   19 BR1  UNL     1      29.365   1.662  54.349  1.00  0.00    -0.051 Br
HETATM   20  C17 UNL     1      26.597   1.122  53.652  1.00  0.00     0.048 A 
ENDBRANCH  12  14
ENDBRANCH   8  12
BRANCH   3  21
HETATM   21  C4  UNL     1      18.655   0.261  50.775  1.00  0.00     0.209 C 
BRANCH  21  22
HETATM   22  O1  UNL     1      17.858   1.406  50.982  1.00  0.00    -0.391 OA
HETATM   23  C5  UNL     1      16.520   1.178  50.719  1.00  0.00     0.201 C 
ENDBRANCH  21  22
ENDBRANCH   3  21
BRANCH   4  24
HETATM   24  O2  UNL     1      18.306  -0.907  53.316  1.00  0.00    -0.356 OA
HETATM   25  C7  UNL     1      18.056  -2.234  53.621  1.00  0.00     0.210 C 
ENDBRANCH   4  24
TORSDOF 6
ENDMDL
MODEL 7
REMARK VINA RESULT:      -6.7      4.852      6.714
REMARK  6 active torsions:
REMARK  status: ('A' for Active; 'I' for Inactive)
REMARK    1  A    between atoms: C3_3  and  C4_4 
REMARK    2  A    between atoms: C4_4  and  O1_5 
REMARK    3  A    between atoms: C6_7  and  O2_8 
REMARK    4  A    between atoms: C11_13  and  N1_14 
REMARK    5  A    between atoms: C11_13  and  N2_15 
REMARK    6  A    between atoms: N2_15  and  C12_16 
ROOT
HETATM    1  C1  UNL     1      24.626   7.270  50.260  1.00  0.00     0.049 C 
HETATM    2  C2  UNL     1      25.698   6.420  49.680  1.00  0.00    -0.041 A 
HETATM    3  C3  UNL     1      26.762   6.917  49.029  1.00  0.00     0.005 A 
HETATM    4  C6  UNL     1      27.788   6.035  48.482  1.00  0.00     0.073 A 
HETATM    5  C8  UNL     1      27.755   4.740  48.578  1.00  0.00     0.015 A 
HETATM    6  C9  UNL     1      26.665   4.040  49.255  1.00  0.00     0.072 A 
HETATM    7  C10 UNL     1      25.636   4.974  49.789  1.00  0.00    -0.010 A 
HETATM    8  C11 UNL     1      24.651   4.338  50.378  1.00  0.00     0.085 C 
ENDROOT
BRANCH   8   9
HETATM    9  N1  UNL     1      23.435   4.589  51.050  1.00  0.00    -0.288 NA
HETATM   10  H15 UNL     1      23.232   4.490  52.074  1.00  0.00     0.125 HD
HETATM   11  H16 UNL     1      23.152   4.518  52.049  1.00  0.00     0.125 HD
ENDBRANCH   8   9
BRANCH   8  12
HETATM   12  N2  UNL     1      24.490   2.939  50.541  1.00  0.00    -0.347 N 
HETATM   13  H17 UNL     1      24.043   2.434  49.721  1.00  0.00     0.167 HD
BRANCH  12  14
HETATM   14  C12 UNL     1      24.826   2.080  51.625  1.00  0.00     0.034 A 
HETATM   15  C13 UNL     1      26.010   1.972  52.313  1.00  0.00     0.029 A 
HETATM   16  C14 UNL     1      26.092   1.055  53.335  1.00  0.00     0.004 A 
HETATM   17  C15 UNL     1      25.053   0.232  53.717  1.00  0.00     0.019 A 
HETATM   18  C16 UNL     1      23.874   0.359  53.014  1.00  0.00     0.013 A 
HETATM   19 BR1  UNL     1      22.438  -0.789  53.554  1.00  0.00    -0.051 Br
HETATM   20  C17 UNL     1      23.757   1.267  51.982  1.00  0.00     0.048 A 
ENDBRANCH  12  14
ENDBRANCH   8  12
BRANCH   3  21
HETATM   21  C4  UNL     1      26.993   8.354  48.815  1.00  0.00     0.209 C 
BRANCH  21  22
HETATM   22  O1  UNL     1      27.709   8.924  49.889  1.00  0.00    -0.391 OA
HETATM   23  C5  UNL     1      28.785   9.683  49.468  1.00  0.00     0.201 C 
ENDBRANCH  21  22
ENDBRANCH   3  21
BRANCH   4  24
HETATM   24  O2  UNL     1      28.900   6.541  47.804  1.00  0.00    -0.356 OA
HETATM   25  C7  UNL     1      30.217   6.335  48.174  1.00  0.00     0.210 C 
ENDBRANCH   4  24
TORSDOF 6
ENDMDL
MODEL 8
REMARK VINA RESULT:      -6.7      3.648      6.717
REMARK  6 active torsions:
REMARK  status: ('A' for Active; 'I' for Inactive)
REMARK    1  A    between atoms: C3_3  and  C4_4 
REMARK    2  A    between atoms: C4_4  and  O1_5 
REMARK    3  A    between atoms: C6_7  and  O2_8 
REMARK    4  A    between atoms: C11_13  and  N1_14 
REMARK    5  A    between atoms: C11_13  and  N2_15 
REMARK    6  A    between atoms: N2_15  and  C12_16 
ROOT
HETATM    1  C1  UNL     1      27.218   1.714  52.078  1.00  0.00     0.049 C 
HETATM    2  C2  UNL     1      25.791   1.427  52.373  1.00  0.00    -0.041 A 
HETATM    3  C3  UNL     1      25.385   0.378  53.107  1.00  0.00     0.005 A 
HETATM    4  C6  UNL     1      23.969   0.147  53.369  1.00  0.00     0.073 A 
HETATM    5  C8  UNL     1      23.017   0.912  52.927  1.00  0.00     0.015 A 
HETATM    6  C9  UNL     1      23.288   2.096  52.113  1.00  0.00     0.072 A 
HETATM    7  C10 UNL     1      24.742   2.290  51.861  1.00  0.00    -0.010 A 
HETATM    8  C11 UNL     1      24.977   3.343  51.113  1.00  0.00     0.085 C 
ENDROOT
BRANCH   8   9
HETATM    9  N1  UNL     1      26.050   4.053  50.531  1.00  0.00    -0.288 NA
HETATM   10  H15 UNL     1      26.956   3.669  50.171  1.00  0.00     0.125 HD
HETATM   11  H16 UNL     1      26.972   3.754  50.152  1.00  0.00     0.125 HD
ENDBRANCH   8   9
BRANCH   8  12
HETATM   12  N2  UNL     1      24.036   4.248  50.562  1.00  0.00    -0.347 N 
HETATM   13  H17 UNL     1      23.773   5.066  51.186  1.00  0.00     0.167 HD
BRANCH  12  14
HETATM   14  C12 UNL     1      23.372   4.255  49.303  1.00  0.00     0.034 A 
HETATM   15  C13 UNL     1      22.756   3.221  48.640  1.00  0.00     0.029 A 
HETATM   16  C14 UNL     1      22.178   3.479  47.419  1.00  0.00     0.004 A 
HETATM   17  C15 UNL     1      22.176   4.719  46.814  1.00  0.00     0.019 A 
HETATM   18  C16 UNL     1      22.799   5.741  47.497  1.00  0.00     0.013 A 
HETATM   19 BR1  UNL     1      22.790   7.458  46.646  1.00  0.00    -0.051 Br
HETATM   20  C17 UNL     1      23.390   5.518  48.724  1.00  0.00     0.048 A 
ENDBRANCH  12  14
ENDBRANCH   8  12
BRANCH   3  21
HETATM   21  C4  UNL     1      26.302  -0.606  53.704  1.00  0.00     0.209 C 
BRANCH  21  22
HETATM   22  O1  UNL     1      26.751  -0.185  54.973  1.00  0.00    -0.391 OA
HETATM   23  C5  UNL     1      28.113   0.050  55.005  1.00  0.00     0.201 C 
ENDBRANCH  21  22
ENDBRANCH   3  21
BRANCH   4  24
HETATM   24  O2  UNL     1      23.536  -0.941  54.131  1.00  0.00    -0.356 OA
HETATM   25  C7  UNL     1      22.328  -1.007  54.805  1.00  0.00     0.210 C 
ENDBRANCH   4  24
TORSDOF 6
ENDMDL
MODEL 9
REMARK VINA RESULT:      -6.6      3.879      5.708
REMARK  6 active torsions:
REMARK  status: ('A' for Active; 'I' for Inactive)
REMARK    1  A    between atoms: C3_3  and  C4_4 
REMARK    2  A    between atoms: C4_4  and  O1_5 
REMARK    3  A    between atoms: C6_7  and  O2_8 
REMARK    4  A    between atoms: C11_13  and  N1_14 
REMARK    5  A    between atoms: C11_13  and  N2_15 
REMARK    6  A    between atoms: N2_15  and  C12_16 
ROOT
HETATM    1  C1  UNL     1      21.821   1.566  51.214  1.00  0.00     0.049 C 
HETATM    2  C2  UNL     1      23.110   1.523  51.950  1.00  0.00    -0.041 A 
HETATM    3  C3  UNL     1      23.479   0.497  52.733  1.00  0.00     0.005 A 
HETATM    4  C6  UNL     1      24.760   0.506  53.430  1.00  0.00     0.073 A 
HETATM    5  C8  UNL     1      25.620   1.476  53.351  1.00  0.00     0.015 A 
HETATM    6  C9  UNL     1      25.373   2.667  52.540  1.00  0.00     0.072 A 
HETATM    7  C10 UNL     1      24.053   2.622  51.855  1.00  0.00    -0.010 A 
HETATM    8  C11 UNL     1      23.829   3.704  51.145  1.00  0.00     0.085 C 
ENDROOT
BRANCH   8   9
HETATM    9  N1  UNL     1      22.848   4.278  50.308  1.00  0.00    -0.288 NA
HETATM   10  H15 UNL     1      22.528   3.944  49.367  1.00  0.00     0.125 HD
HETATM   11  H16 UNL     1      22.475   4.014  49.372  1.00  0.00     0.125 HD
ENDBRANCH   8   9
BRANCH   8  12
HETATM   12  N2  UNL     1      24.673   4.831  50.983  1.00  0.00    -0.347 N 
HETATM   13  H17 UNL     1      24.496   5.633  51.656  1.00  0.00     0.167 HD
BRANCH  12  14
HETATM   14  C12 UNL     1      25.732   5.081  50.065  1.00  0.00     0.034 A 
HETATM   15  C13 UNL     1      26.638   4.202  49.524  1.00  0.00     0.029 A 
HETATM   16  C14 UNL     1      27.580   4.690  48.648  1.00  0.00     0.004 A 
HETATM   17  C15 UNL     1      27.673   6.014  48.275  1.00  0.00     0.019 A 
HETATM   18  C16 UNL     1      26.753   6.878  48.830  1.00  0.00     0.013 A 
HETATM   19 BR1  UNL     1      26.892   8.715  48.304  1.00  0.00    -0.051 Br
HETATM   20  C17 UNL     1      25.795   6.424  49.712  1.00  0.00     0.048 A 
ENDBRANCH  12  14
ENDBRANCH   8  12
BRANCH   3  21
HETATM   21  C4  UNL     1      22.654  -0.701  52.954  1.00  0.00     0.209 C 
BRANCH  21  22
HETATM   22  O1  UNL     1      21.795  -0.536  54.062  1.00  0.00    -0.391 OA
HETATM   23  C5  UNL     1      21.834  -1.609  54.931  1.00  0.00     0.201 C 
ENDBRANCH  21  22
ENDBRANCH   3  21
BRANCH   4  24
HETATM   24  O2  UNL     1      25.154  -0.557  54.248  1.00  0.00    -0.356 OA
HETATM   25  C7  UNL     1      25.929  -0.436  55.388  1.00  0.00     0.210 C 
ENDBRANCH   4  24
TORSDOF 6
ENDMDL
