MODEL 1
REMARK VINA RESULT:      -7.7      0.000      0.000
REMARK  7 active torsions:
REMARK  status: ('A' for Active; 'I' for Inactive)
REMARK    1  A    between atoms: C2_2  and  C3_3 
REMARK    2  A    between atoms: C4_4  and  C5_5 
REMARK    3  A    between atoms: C4_4  and  N1_8 
REMARK    4  A    between atoms: C13_17  and  N4_18 
REMARK       I    between atoms: N4_18  and  C14_19 
REMARK    5  A    between atoms: C14_19  and  C15_21 
REMARK    6  A    between atoms: C15_21  and  C16_22 
REMARK    7  A    between atoms: C16_22  and  N5_23 
ROOT
HETATM    1  N1  UNL     1      25.216   6.798  48.065  1.00  0.00    -0.256 N 
HETATM    2  N2  UNL     1      26.255   7.636  47.617  1.00  0.00    -0.303 N 
HETATM    3  C7  UNL     1      27.614   7.267  47.731  1.00  0.00     0.131 A 
HETATM    4  C8  UNL     1      27.885   6.095  48.279  1.00  0.00     0.074 A 
HETATM    5  C9  UNL     1      29.230   5.663  48.424  1.00  0.00     0.102 C 
HETATM    6  N3  UNL     1      30.342   5.312  48.526  1.00  0.00    -0.191 NA
HETATM    7  C10 UNL     1      26.853   5.196  48.757  1.00  0.00     0.015 A 
HETATM    8  C11 UNL     1      27.093   3.968  49.333  1.00  0.00     0.017 A 
HETATM    9  C12 UNL     1      26.073   3.168  49.764  1.00  0.00     0.030 A 
HETATM   10  C13 UNL     1      24.744   3.523  49.655  1.00  0.00     0.036 A 
HETATM   11  C21 UNL     1      24.519   4.732  49.087  1.00  0.00     0.062 A 
HETATM   12  C22 UNL     1      25.529   5.553  48.647  1.00  0.00     0.070 A 
HETATM   13  H7  UNL     1      26.067   8.564  47.183  1.00  0.00     0.186 HD
ENDROOT
BRANCH   1  14
HETATM   14  C4  UNL     1      23.908   7.314  47.883  1.00  0.00     0.057 C 
HETATM   15  C3  UNL     1      23.288   8.018  48.813  1.00  0.00     0.031 C 
BRANCH  15  16
HETATM   16  C2  UNL     1      23.925   8.321  50.103  1.00  0.00    -0.008 C 
HETATM   17  C1  UNL     1      23.684   7.631  51.183  1.00  0.00     0.011 C 
ENDBRANCH  15  16
BRANCH  14  18
HETATM   18  C5  UNL     1      23.234   7.040  46.618  1.00  0.00     0.039 C 
HETATM   19  C6  UNL     1      22.277   6.152  46.512  1.00  0.00     0.058 C 
HETATM   20 BR1  UNL     1      21.400   5.806  44.836  1.00  0.00    -0.064 Br
ENDBRANCH  14  18
ENDBRANCH   1  14
BRANCH  10  21
HETATM   21  N4  UNL     1      23.802   2.589  50.148  1.00  0.00    -0.327 N 
HETATM   22  C14 UNL     1      22.783   2.810  51.101  1.00  0.00     0.223 C 
HETATM   23  O1  UNL     1      22.633   3.946  51.614  1.00  0.00    -0.273 OA
HETATM   24  H11 UNL     1      23.795   1.609  49.823  1.00  0.00     0.169 HD
BRANCH  22  25
HETATM   25  C15 UNL     1      21.835   1.787  51.573  1.00  0.00     0.133 C 
BRANCH  25  26
HETATM   26  C16 UNL     1      22.473   0.605  52.192  1.00  0.00     0.282 C 
BRANCH  26  27
HETATM   27  N5  UNL     1      22.470   0.558  53.618  1.00  0.00     0.093 N 
HETATM   28  C17 UNL     1      21.176   0.312  54.206  1.00  0.00     0.298 C 
HETATM   29  C18 UNL     1      20.721  -1.128  54.019  1.00  0.00     0.198 C 
HETATM   30  O2  UNL     1      21.530  -1.907  54.823  1.00  0.00    -0.388 OA
HETATM   31  C19 UNL     1      22.734  -1.350  55.168  1.00  0.00     0.198 C 
HETATM   32  C20 UNL     1      23.332  -0.541  54.016  1.00  0.00     0.298 C 
ENDBRANCH  26  27
ENDBRANCH  25  26
ENDBRANCH  22  25
ENDBRANCH  10  21
TORSDOF 7
ENDMDL
MODEL 2
REMARK VINA RESULT:      -7.6      3.381      8.354
REMARK  7 active torsions:
REMARK  status: ('A' for Active; 'I' for Inactive)
REMARK    1  A    between atoms: C2_2  and  C3_3 
REMARK    2  A    between atoms: C4_4  and  C5_5 
REMARK    3  A    between atoms: C4_4  and  N1_8 
REMARK    4  A    between atoms: C13_17  and  N4_18 
REMARK       I    between atoms: N4_18  and  C14_19 
REMARK    5  A    between atoms: C14_19  and  C15_21 
REMARK    6  A    between atoms: C15_21  and  C16_22 
REMARK    7  A    between atoms: C16_22  and  N5_23 
ROOT
HETATM    1  N1  UNL     1      21.453   1.277  51.661  1.00  0.00    -0.256 N 
HETATM    2  N2  UNL     1      21.417  -0.102  51.943  1.00  0.00    -0.303 N 
HETATM    3  C7  UNL     1      22.403  -0.725  52.742  1.00  0.00     0.131 A 
HETATM    4  C8  UNL     1      23.371   0.035  53.223  1.00  0.00     0.074 A 
HETATM    5  C9  UNL     1      24.392  -0.528  54.033  1.00  0.00     0.102 C 
HETATM    6  N3  UNL     1      25.221  -1.001  54.711  1.00  0.00    -0.191 NA
HETATM    7  C10 UNL     1      23.452   1.459  52.961  1.00  0.00     0.015 A 
HETATM    8  C11 UNL     1      24.443   2.286  53.442  1.00  0.00     0.017 A 
HETATM    9  C12 UNL     1      24.462   3.621  53.157  1.00  0.00     0.030 A 
HETATM   10  C13 UNL     1      23.504   4.235  52.378  1.00  0.00     0.036 A 
HETATM   11  C21 UNL     1      22.533   3.414  51.910  1.00  0.00     0.062 A 
HETATM   12  C22 UNL     1      22.495   2.068  52.184  1.00  0.00     0.070 A 
HETATM   13  H7  UNL     1      20.667  -0.723  51.576  1.00  0.00     0.186 HD
ENDROOT
BRANCH   1  14
HETATM   14  C4  UNL     1      20.395   1.748  50.842  1.00  0.00     0.057 C 
HETATM   15  C3  UNL     1      20.454   1.720  49.523  1.00  0.00     0.031 C 
BRANCH  15  16
HETATM   16  C2  UNL     1      21.626   1.186  48.815  1.00  0.00    -0.008 C 
HETATM   17  C1  UNL     1      22.301   1.888  47.947  1.00  0.00     0.011 C 
ENDBRANCH  15  16
BRANCH  14  18
HETATM   18  C5  UNL     1      19.208   2.288  51.499  1.00  0.00     0.039 C 
HETATM   19  C6  UNL     1      18.416   3.152  50.914  1.00  0.00     0.058 C 
HETATM   20 BR1  UNL     1      16.857   3.850  51.795  1.00  0.00    -0.064 Br
ENDBRANCH  14  18
ENDBRANCH   1  14
BRANCH  10  21
HETATM   21  N4  UNL     1      23.660   5.627  52.171  1.00  0.00    -0.327 N 
HETATM   22  C14 UNL     1      23.902   6.297  50.951  1.00  0.00     0.223 C 
HETATM   23  O1  UNL     1      24.000   5.647  49.881  1.00  0.00    -0.273 OA
HETATM   24  H11 UNL     1      23.605   6.297  52.954  1.00  0.00     0.169 HD
BRANCH  22  25
HETATM   25  C15 UNL     1      24.057   7.754  50.807  1.00  0.00     0.133 C 
BRANCH  25  26
HETATM   26  C16 UNL     1      25.006   8.163  49.749  1.00  0.00     0.282 C 
BRANCH  26  27
HETATM   27  N5  UNL     1      26.385   7.892  49.996  1.00  0.00     0.093 N 
HETATM   28  C17 UNL     1      27.062   7.207  48.922  1.00  0.00     0.298 C 
HETATM   29  C18 UNL     1      27.311   8.113  47.725  1.00  0.00     0.198 C 
HETATM   30  O2  UNL     1      28.277   9.022  48.110  1.00  0.00    -0.388 OA
HETATM   31  C19 UNL     1      28.407   9.210  49.463  1.00  0.00     0.198 C 
HETATM   32  C20 UNL     1      27.052   9.170  50.170  1.00  0.00     0.298 C 
ENDBRANCH  26  27
ENDBRANCH  25  26
ENDBRANCH  22  25
ENDBRANCH  10  21
TORSDOF 7
ENDMDL
MODEL 3
REMARK VINA RESULT:      -7.5      3.604      5.485
REMARK  7 active torsions:
REMARK  status: ('A' for Active; 'I' for Inactive)
REMARK    1  A    between atoms: C2_2  and  C3_3 
REMARK    2  A    between atoms: C4_4  and  C5_5 
REMARK    3  A    between atoms: C4_4  and  N1_8 
REMARK    4  A    between atoms: C13_17  and  N4_18 
REMARK       I    between atoms: N4_18  and  C14_19 
REMARK    5  A    between atoms: C14_19  and  C15_21 
REMARK    6  A    between atoms: C15_21  and  C16_22 
REMARK    7  A    between atoms: C16_22  and  N5_23 
ROOT
HETATM    1  N1  UNL     1      28.584   7.598  47.409  1.00  0.00    -0.256 N 
HETATM    2  N2  UNL     1      28.708   8.516  46.348  1.00  0.00    -0.303 N 
HETATM    3  C7  UNL     1      27.578   9.055  45.693  1.00  0.00     0.131 A 
HETATM    4  C8  UNL     1      26.386   8.668  46.111  1.00  0.00     0.074 A 
HETATM    5  C9  UNL     1      25.210   9.172  45.497  1.00  0.00     0.102 C 
HETATM    6  N3  UNL     1      24.247   9.606  44.991  1.00  0.00    -0.191 NA
HETATM    7  C10 UNL     1      26.205   7.726  47.199  1.00  0.00     0.015 A 
HETATM    8  C11 UNL     1      24.982   7.297  47.665  1.00  0.00     0.017 A 
HETATM    9  C12 UNL     1      24.880   6.406  48.695  1.00  0.00     0.030 A 
HETATM   10  C13 UNL     1      25.979   5.875  49.338  1.00  0.00     0.036 A 
HETATM   11  C21 UNL     1      27.178   6.303  48.873  1.00  0.00     0.062 A 
HETATM   12  C22 UNL     1      27.303   7.200  47.838  1.00  0.00     0.070 A 
HETATM   13  H7  UNL     1      29.635   8.835  45.999  1.00  0.00     0.186 HD
ENDROOT
BRANCH   1  14
HETATM   14  C4  UNL     1      29.811   7.147  47.957  1.00  0.00     0.057 C 
HETATM   15  C3  UNL     1      30.496   7.853  48.839  1.00  0.00     0.031 C 
BRANCH  15  16
HETATM   16  C2  UNL     1      30.020   9.160  49.317  1.00  0.00    -0.008 C 
HETATM   17  C1  UNL     1      30.651  10.273  49.060  1.00  0.00     0.011 C 
ENDBRANCH  15  16
BRANCH  14  18
HETATM   18  C5  UNL     1      30.326   5.854  47.515  1.00  0.00     0.039 C 
HETATM   19  C6  UNL     1      31.606   5.575  47.507  1.00  0.00     0.058 C 
HETATM   20 BR1  UNL     1      32.264   3.867  46.921  1.00  0.00    -0.064 Br
ENDBRANCH  14  18
ENDBRANCH   1  14
BRANCH  10  21
HETATM   21  N4  UNL     1      25.713   4.962  50.386  1.00  0.00    -0.327 N 
HETATM   22  C14 UNL     1      25.993   3.577  50.418  1.00  0.00     0.223 C 
HETATM   23  O1  UNL     1      26.544   3.021  49.437  1.00  0.00    -0.273 OA
HETATM   24  H11 UNL     1      25.262   5.266  51.264  1.00  0.00     0.169 HD
BRANCH  22  25
HETATM   25  C15 UNL     1      25.685   2.682  51.546  1.00  0.00     0.133 C 
BRANCH  25  26
HETATM   26  C16 UNL     1      26.535   1.473  51.612  1.00  0.00     0.282 C 
BRANCH  26  27
HETATM   27  N5  UNL     1      26.019   0.378  52.367  1.00  0.00     0.093 N 
HETATM   28  C17 UNL     1      26.942  -0.717  52.541  1.00  0.00     0.298 C 
HETATM   29  C18 UNL     1      28.055  -0.383  53.524  1.00  0.00     0.198 C 
HETATM   30  O2  UNL     1      27.475  -0.324  54.776  1.00  0.00    -0.388 OA
HETATM   31  C19 UNL     1      26.122  -0.099  54.791  1.00  0.00     0.198 C 
HETATM   32  C20 UNL     1      25.701   0.879  53.693  1.00  0.00     0.298 C 
ENDBRANCH  26  27
ENDBRANCH  25  26
ENDBRANCH  22  25
ENDBRANCH  10  21
TORSDOF 7
ENDMDL
MODEL 4
REMARK VINA RESULT:      -7.4      3.334      5.014
REMARK  7 active torsions:
REMARK  status: ('A' for Active; 'I' for Inactive)
REMARK    1  A    between atoms: C2_2  and  C3_3 
REMARK    2  A    between atoms: C4_4  and  C5_5 
REMARK    3  A    between atoms: C4_4  and  N1_8 
REMARK    4  A    between atoms: C13_17  and  N4_18 
REMARK       I    between atoms: N4_18  and  C14_19 
REMARK    5  A    between atoms: C14_19  and  C15_21 
REMARK    6  A    between atoms: C15_21  and  C16_22 
REMARK    7  A    between atoms: C16_22  and  N5_23 
ROOT
HETATM    1  N1  UNL     1      23.429   6.377  47.621  1.00  0.00    -0.256 N 
HETATM    2  N2  UNL     1      22.875   6.976  46.474  1.00  0.00    -0.303 N 
HETATM    3  C7  UNL     1      21.982   6.282  45.626  1.00  0.00     0.131 A 
HETATM    4  C8  UNL     1      21.679   5.036  45.946  1.00  0.00     0.074 A 
HETATM    5  C9  UNL     1      20.789   4.282  45.138  1.00  0.00     0.102 C 
HETATM    6  N3  UNL     1      20.043   3.675  44.471  1.00  0.00    -0.191 NA
HETATM    7  C10 UNL     1      22.224   4.374  47.116  1.00  0.00     0.015 A 
HETATM    8  C11 UNL     1      21.933   3.078  47.485  1.00  0.00     0.017 A 
HETATM    9  C12 UNL     1      22.481   2.512  48.600  1.00  0.00     0.030 A 
HETATM   10  C13 UNL     1      23.353   3.184  49.432  1.00  0.00     0.036 A 
HETATM   11  C21 UNL     1      23.632   4.458  49.061  1.00  0.00     0.062 A 
HETATM   12  C22 UNL     1      23.092   5.047  47.943  1.00  0.00     0.070 A 
HETATM   13  H7  UNL     1      23.098   7.955  46.200  1.00  0.00     0.186 HD
ENDROOT
BRANCH   1  14
HETATM   14  C4  UNL     1      24.309   7.203  48.364  1.00  0.00     0.057 C 
HETATM   15  C3  UNL     1      23.895   7.963  49.362  1.00  0.00     0.031 C 
BRANCH  15  16
HETATM   16  C2  UNL     1      22.484   7.991  49.775  1.00  0.00    -0.008 C 
HETATM   17  C1  UNL     1      22.045   7.338  50.816  1.00  0.00     0.011 C 
ENDBRANCH  15  16
BRANCH  14  18
HETATM   18  C5  UNL     1      25.721   7.209  47.993  1.00  0.00     0.039 C 
HETATM   19  C6  UNL     1      26.613   6.485  48.621  1.00  0.00     0.058 C 
HETATM   20 BR1  UNL     1      28.469   6.506  48.118  1.00  0.00    -0.064 Br
ENDBRANCH  14  18
ENDBRANCH   1  14
BRANCH  10  21
HETATM   21  N4  UNL     1      23.838   2.463  50.549  1.00  0.00    -0.327 N 
HETATM   22  C14 UNL     1      23.546   2.684  51.913  1.00  0.00     0.223 C 
HETATM   23  O1  UNL     1      22.769   3.611  52.252  1.00  0.00    -0.273 OA
HETATM   24  H11 UNL     1      24.488   1.669  50.436  1.00  0.00     0.169 HD
BRANCH  22  25
HETATM   25  C15 UNL     1      24.091   1.894  53.030  1.00  0.00     0.133 C 
BRANCH  25  26
HETATM   26  C16 UNL     1      25.496   2.209  53.370  1.00  0.00     0.282 C 
BRANCH  26  27
HETATM   27  N5  UNL     1      26.435   1.143  53.232  1.00  0.00     0.093 N 
HETATM   28  C17 UNL     1      27.729   1.546  52.740  1.00  0.00     0.298 C 
HETATM   29  C18 UNL     1      28.534   2.306  53.784  1.00  0.00     0.198 C 
HETATM   30  O2  UNL     1      28.893   1.390  54.753  1.00  0.00    -0.388 OA
HETATM   31  C19 UNL     1      28.115   0.262  54.817  1.00  0.00     0.198 C 
HETATM   32  C20 UNL     1      26.642   0.578  54.554  1.00  0.00     0.298 C 
ENDBRANCH  26  27
ENDBRANCH  25  26
ENDBRANCH  22  25
ENDBRANCH  10  21
TORSDOF 7
ENDMDL
MODEL 5
REMARK VINA RESULT:      -7.4      3.253      8.318
REMARK  7 active torsions:
REMARK  status: ('A' for Active; 'I' for Inactive)
REMARK    1  A    between atoms: C2_2  and  C3_3 
REMARK    2  A    between atoms: C4_4  and  C5_5 
REMARK    3  A    between atoms: C4_4  and  N1_8 
REMARK    4  A    between atoms: C13_17  and  N4_18 
REMARK       I    between atoms: N4_18  and  C14_19 
REMARK    5  A    between atoms: C14_19  and  C15_21 
REMARK    6  A    between atoms: C15_21  and  C16_22 
REMARK    7  A    between atoms: C16_22  and  N5_23 
ROOT
HETATM    1  N1  UNL     1      22.644   2.474  51.510  1.00  0.00    -0.256 N 
HETATM    2  N2  UNL     1      22.083   1.627  52.485  1.00  0.00    -0.303 N 
HETATM    3  C7  UNL     1      22.878   0.753  53.260  1.00  0.00     0.131 A 
HETATM    4  C8  UNL     1      24.181   0.755  53.041  1.00  0.00     0.074 A 
HETATM    5  C9  UNL     1      25.037  -0.099  53.785  1.00  0.00     0.102 C 
HETATM    6  N3  UNL     1      25.734  -0.797  54.415  1.00  0.00    -0.191 NA
HETATM    7  C10 UNL     1      24.807   1.607  52.048  1.00  0.00     0.015 A 
HETATM    8  C11 UNL     1      26.159   1.639  51.789  1.00  0.00     0.017 A 
HETATM    9  C12 UNL     1      26.686   2.467  50.838  1.00  0.00     0.030 A 
HETATM   10  C13 UNL     1      25.916   3.322  50.078  1.00  0.00     0.036 A 
HETATM   11  C21 UNL     1      24.587   3.283  50.341  1.00  0.00     0.062 A 
HETATM   12  C22 UNL     1      24.036   2.459  51.293  1.00  0.00     0.070 A 
HETATM   13  H7  UNL     1      21.060   1.606  52.676  1.00  0.00     0.186 HD
ENDROOT
BRANCH   1  14
HETATM   14  C4  UNL     1      21.713   3.287  50.815  1.00  0.00     0.057 C 
HETATM   15  C3  UNL     1      20.930   2.812  49.862  1.00  0.00     0.031 C 
BRANCH  15  16
HETATM   16  C2  UNL     1      20.971   1.397  49.465  1.00  0.00    -0.008 C 
HETATM   17  C1  UNL     1      21.743   0.959  48.508  1.00  0.00     0.011 C 
ENDBRANCH  15  16
BRANCH  14  18
HETATM   18  C5  UNL     1      21.634   4.699  51.174  1.00  0.00     0.039 C 
HETATM   19  C6  UNL     1      21.652   5.652  50.276  1.00  0.00     0.058 C 
HETATM   20 BR1  UNL     1      21.546   7.508  50.768  1.00  0.00    -0.064 Br
ENDBRANCH  14  18
ENDBRANCH   1  14
BRANCH  10  21
HETATM   21  N4  UNL     1      26.606   4.117  49.132  1.00  0.00    -0.327 N 
HETATM   22  C14 UNL     1      26.635   5.527  49.044  1.00  0.00     0.223 C 
HETATM   23  O1  UNL     1      25.998   6.225  49.871  1.00  0.00    -0.273 OA
HETATM   24  H11 UNL     1      27.176   3.691  48.384  1.00  0.00     0.169 HD
BRANCH  22  25
HETATM   25  C15 UNL     1      27.375   6.292  48.027  1.00  0.00     0.133 C 
BRANCH  25  26
HETATM   26  C16 UNL     1      28.393   7.212  48.580  1.00  0.00     0.282 C 
BRANCH  26  27
HETATM   27  N5  UNL     1      29.668   7.203  47.939  1.00  0.00     0.093 N 
HETATM   28  C17 UNL     1      30.358   8.469  47.962  1.00  0.00     0.298 C 
HETATM   29  C18 UNL     1      30.899   8.808  49.343  1.00  0.00     0.198 C 
HETATM   30  O2  UNL     1      31.941   7.934  49.586  1.00  0.00    -0.388 OA
HETATM   31  C19 UNL     1      31.926   6.776  48.851  1.00  0.00     0.198 C 
HETATM   32  C20 UNL     1      30.503   6.253  48.653  1.00  0.00     0.298 C 
ENDBRANCH  26  27
ENDBRANCH  25  26
ENDBRANCH  22  25
ENDBRANCH  10  21
TORSDOF 7
ENDMDL
MODEL 6
REMARK VINA RESULT:      -7.3      3.716      5.928
REMARK  7 active torsions:
REMARK  status: ('A' for Active; 'I' for Inactive)
REMARK    1  A    between atoms: C2_2  and  C3_3 
REMARK    2  A    between atoms: C4_4  and  C5_5 
REMARK    3  A    between atoms: C4_4  and  N1_8 
REMARK    4  A    between atoms: C13_17  and  N4_18 
REMARK       I    between atoms: N4_18  and  C14_19 
REMARK    5  A    between atoms: C14_19  and  C15_21 
REMARK    6  A    between atoms: C15_21  and  C16_22 
REMARK    7  A    between atoms: C16_22  and  N5_23 
ROOT
HETATM    1  N1  UNL     1      25.426   2.689  51.689  1.00  0.00    -0.256 N 
HETATM    2  N2  UNL     1      26.768   3.027  51.947  1.00  0.00    -0.303 N 
HETATM    3  C7  UNL     1      27.586   2.243  52.791  1.00  0.00     0.131 A 
HETATM    4  C8  UNL     1      27.047   1.169  53.340  1.00  0.00     0.074 A 
HETATM    5  C9  UNL     1      27.813   0.338  54.198  1.00  0.00     0.102 C 
HETATM    6  N3  UNL     1      28.459  -0.347  54.894  1.00  0.00    -0.191 NA
HETATM    7  C10 UNL     1      25.669   0.778  53.107  1.00  0.00     0.015 A 
HETATM    8  C11 UNL     1      25.070  -0.333  53.658  1.00  0.00     0.017 A 
HETATM    9  C12 UNL     1      23.766  -0.645  53.398  1.00  0.00     0.030 A 
HETATM   10  C13 UNL     1      22.962   0.116  52.574  1.00  0.00     0.036 A 
HETATM   11  C21 UNL     1      23.561   1.206  52.037  1.00  0.00     0.062 A 
HETATM   12  C22 UNL     1      24.872   1.538  52.285  1.00  0.00     0.070 A 
HETATM   13  H7  UNL     1      27.216   3.869  51.528  1.00  0.00     0.186 HD
ENDROOT
BRANCH   1  14
HETATM   14  C4  UNL     1      24.739   3.578  50.824  1.00  0.00     0.057 C 
HETATM   15  C3  UNL     1      25.283   4.053  49.718  1.00  0.00     0.031 C 
BRANCH  15  16
HETATM   16  C2  UNL     1      26.644   3.679  49.307  1.00  0.00    -0.008 C 
HETATM   17  C1  UNL     1      27.488   4.541  48.810  1.00  0.00     0.011 C 
ENDBRANCH  15  16
BRANCH  14  18
HETATM   18  C5  UNL     1      23.383   3.979  51.189  1.00  0.00     0.039 C 
HETATM   19  C6  UNL     1      22.514   4.397  50.303  1.00  0.00     0.058 C 
HETATM   20 BR1  UNL     1      20.733   4.920  50.803  1.00  0.00    -0.064 Br
ENDBRANCH  14  18
ENDBRANCH   1  14
BRANCH  10  21
HETATM   21  N4  UNL     1      21.632  -0.336  52.403  1.00  0.00    -0.327 N 
HETATM   22  C14 UNL     1      20.499  -0.003  53.179  1.00  0.00     0.223 C 
HETATM   23  O1  UNL     1      20.608   0.783  54.152  1.00  0.00    -0.273 OA
HETATM   24  H11 UNL     1      21.378  -0.989  51.644  1.00  0.00     0.169 HD
BRANCH  22  25
HETATM   25  C15 UNL     1      19.138  -0.514  52.945  1.00  0.00     0.133 C 
BRANCH  25  26
HETATM   26  C16 UNL     1      18.379   0.226  51.914  1.00  0.00     0.282 C 
BRANCH  26  27
HETATM   27  N5  UNL     1      16.964   0.279  52.085  1.00  0.00     0.093 N 
HETATM   28  C17 UNL     1      16.225   0.565  50.880  1.00  0.00     0.298 C 
HETATM   29  C18 UNL     1      16.204  -0.617  49.921  1.00  0.00     0.198 C 
HETATM   30  O2  UNL     1      15.404  -1.583  50.499  1.00  0.00    -0.388 OA
HETATM   31  C19 UNL     1      15.246  -1.485  51.858  1.00  0.00     0.198 C 
HETATM   32  C20 UNL     1      16.535  -1.031  52.544  1.00  0.00     0.298 C 
ENDBRANCH  26  27
ENDBRANCH  25  26
ENDBRANCH  22  25
ENDBRANCH  10  21
TORSDOF 7
ENDMDL
MODEL 7
REMARK VINA RESULT:      -7.2      3.232      8.235
REMARK  7 active torsions:
REMARK  status: ('A' for Active; 'I' for Inactive)
REMARK    1  A    between atoms: C2_2  and  C3_3 
REMARK    2  A    between atoms: C4_4  and  C5_5 
REMARK    3  A    between atoms: C4_4  and  N1_8 
REMARK    4  A    between atoms: C13_17  and  N4_18 
REMARK       I    between atoms: N4_18  and  C14_19 
REMARK    5  A    between atoms: C14_19  and  C15_21 
REMARK    6  A    between atoms: C15_21  and  C16_22 
REMARK    7  A    between atoms: C16_22  and  N5_23 
ROOT
HETATM    1  N1  UNL     1      22.509   2.795  50.967  1.00  0.00    -0.256 N 
HETATM    2  N2  UNL     1      21.817   1.953  51.858  1.00  0.00    -0.303 N 
HETATM    3  C7  UNL     1      22.493   1.043  52.702  1.00  0.00     0.131 A 
HETATM    4  C8  UNL     1      23.812   1.006  52.629  1.00  0.00     0.074 A 
HETATM    5  C9  UNL     1      24.553   0.115  53.450  1.00  0.00     0.102 C 
HETATM    6  N3  UNL     1      25.153  -0.614  54.141  1.00  0.00    -0.191 NA
HETATM    7  C10 UNL     1      24.571   1.852  51.728  1.00  0.00     0.015 A 
HETATM    8  C11 UNL     1      25.945   1.844  51.622  1.00  0.00     0.017 A 
HETATM    9  C12 UNL     1      26.600   2.667  50.750  1.00  0.00     0.030 A 
HETATM   10  C13 UNL     1      25.945   3.557  49.924  1.00  0.00     0.036 A 
HETATM   11  C21 UNL     1      24.595   3.557  50.036  1.00  0.00     0.062 A 
HETATM   12  C22 UNL     1      23.916   2.738  50.906  1.00  0.00     0.070 A 
HETATM   13  H7  UNL     1      20.779   1.962  51.933  1.00  0.00     0.186 HD
ENDROOT
BRANCH   1  14
HETATM   14  C4  UNL     1      21.687   3.646  50.186  1.00  0.00     0.057 C 
HETATM   15  C3  UNL     1      21.128   3.251  49.056  1.00  0.00     0.031 C 
BRANCH  15  16
HETATM   16  C2  UNL     1      21.319   1.889  48.537  1.00  0.00    -0.008 C 
HETATM   17  C1  UNL     1      22.279   1.583  47.708  1.00  0.00     0.011 C 
ENDBRANCH  15  16
BRANCH  14  18
HETATM   18  C5  UNL     1      21.466   5.009  50.660  1.00  0.00     0.039 C 
HETATM   19  C6  UNL     1      21.581   6.051  49.875  1.00  0.00     0.058 C 
HETATM   20 BR1  UNL     1      21.286   7.839  50.518  1.00  0.00    -0.064 Br
ENDBRANCH  14  18
ENDBRANCH   1  14
BRANCH  10  21
HETATM   21  N4  UNL     1      26.761   4.342  49.075  1.00  0.00    -0.327 N 
HETATM   22  C14 UNL     1      26.814   5.752  48.988  1.00  0.00     0.223 C 
HETATM   23  O1  UNL     1      26.081   6.458  49.723  1.00  0.00    -0.273 OA
HETATM   24  H11 UNL     1      27.421   3.908  48.410  1.00  0.00     0.169 HD
BRANCH  22  25
HETATM   25  C15 UNL     1      27.689   6.507  48.075  1.00  0.00     0.133 C 
BRANCH  25  26
HETATM   26  C16 UNL     1      28.235   7.755  48.650  1.00  0.00     0.282 C 
BRANCH  26  27
HETATM   27  N5  UNL     1      28.089   8.934  47.859  1.00  0.00     0.093 N 
HETATM   28  C17 UNL     1      26.723   9.336  47.632  1.00  0.00     0.298 C 
HETATM   29  C18 UNL     1      26.080   9.926  48.878  1.00  0.00     0.198 C 
HETATM   30  O2  UNL     1      26.684  11.149  49.096  1.00  0.00    -0.388 OA
HETATM   31  C19 UNL     1      27.919  11.309  48.521  1.00  0.00     0.198 C 
HETATM   32  C20 UNL     1      28.737  10.018  48.575  1.00  0.00     0.298 C 
ENDBRANCH  26  27
ENDBRANCH  25  26
ENDBRANCH  22  25
ENDBRANCH  10  21
TORSDOF 7
ENDMDL
MODEL 8
REMARK VINA RESULT:      -7.2      3.317      5.875
REMARK  7 active torsions:
REMARK  status: ('A' for Active; 'I' for Inactive)
REMARK    1  A    between atoms: C2_2  and  C3_3 
REMARK    2  A    between atoms: C4_4  and  C5_5 
REMARK    3  A    between atoms: C4_4  and  N1_8 
REMARK    4  A    between atoms: C13_17  and  N4_18 
REMARK       I    between atoms: N4_18  and  C14_19 
REMARK    5  A    between atoms: C14_19  and  C15_21 
REMARK    6  A    between atoms: C15_21  and  C16_22 
REMARK    7  A    between atoms: C16_22  and  N5_23 
ROOT
HETATM    1  N1  UNL     1      25.434   2.845  51.511  1.00  0.00    -0.256 N 
HETATM    2  N2  UNL     1      26.783   3.087  51.834  1.00  0.00    -0.303 N 
HETATM    3  C7  UNL     1      27.516   2.218  52.673  1.00  0.00     0.131 A 
HETATM    4  C8  UNL     1      26.891   1.157  53.151  1.00  0.00     0.074 A 
HETATM    5  C9  UNL     1      27.570   0.244  54.000  1.00  0.00     0.102 C 
HETATM    6  N3  UNL     1      28.144  -0.510  54.687  1.00  0.00    -0.191 NA
HETATM    7  C10 UNL     1      25.503   0.864  52.850  1.00  0.00     0.015 A 
HETATM    8  C11 UNL     1      24.814  -0.230  53.328  1.00  0.00     0.017 A 
HETATM    9  C12 UNL     1      23.505  -0.448  53.005  1.00  0.00     0.030 A 
HETATM   10  C13 UNL     1      22.784   0.396  52.187  1.00  0.00     0.036 A 
HETATM   11  C21 UNL     1      23.470   1.468  51.722  1.00  0.00     0.062 A 
HETATM   12  C22 UNL     1      24.787   1.707  52.033  1.00  0.00     0.070 A 
HETATM   13  H7  UNL     1      27.298   3.915  51.471  1.00  0.00     0.186 HD
ENDROOT
BRANCH   1  14
HETATM   14  C4  UNL     1      24.838   3.811  50.662  1.00  0.00     0.057 C 
HETATM   15  C3  UNL     1      25.458   4.305  49.605  1.00  0.00     0.031 C 
BRANCH  15  16
HETATM   16  C2  UNL     1      26.813   3.873  49.235  1.00  0.00    -0.008 C 
HETATM   17  C1  UNL     1      27.684   4.680  48.694  1.00  0.00     0.011 C 
ENDBRANCH  15  16
BRANCH  14  18
HETATM   18  C5  UNL     1      23.491   4.272  50.987  1.00  0.00     0.039 C 
HETATM   19  C6  UNL     1      22.899   5.231  50.319  1.00  0.00     0.058 C 
HETATM   20 BR1  UNL     1      21.124   5.823  50.762  1.00  0.00    -0.064 Br
ENDBRANCH  14  18
ENDBRANCH   1  14
BRANCH  10  21
HETATM   21  N4  UNL     1      21.436   0.037  51.946  1.00  0.00    -0.327 N 
HETATM   22  C14 UNL     1      20.314   0.287  52.767  1.00  0.00     0.223 C 
HETATM   23  O1  UNL     1      20.452   0.898  53.856  1.00  0.00    -0.273 OA
HETATM   24  H11 UNL     1      21.159  -0.471  51.091  1.00  0.00     0.169 HD
BRANCH  22  25
HETATM   25  C15 UNL     1      18.934  -0.119  52.455  1.00  0.00     0.133 C 
BRANCH  25  26
HETATM   26  C16 UNL     1      18.286   0.688  51.398  1.00  0.00     0.282 C 
BRANCH  26  27
HETATM   27  N5  UNL     1      18.772   2.020  51.233  1.00  0.00     0.093 N 
HETATM   28  C17 UNL     1      19.183   2.344  49.889  1.00  0.00     0.298 C 
HETATM   29  C18 UNL     1      17.998   2.510  48.947  1.00  0.00     0.198 C 
HETATM   30  O2  UNL     1      17.358   3.676  49.317  1.00  0.00    -0.388 OA
HETATM   31  C19 UNL     1      17.592   4.098  50.601  1.00  0.00     0.198 C 
HETATM   32  C20 UNL     1      17.685   2.921  51.573  1.00  0.00     0.298 C 
ENDBRANCH  26  27
ENDBRANCH  25  26
ENDBRANCH  22  25
ENDBRANCH  10  21
TORSDOF 7
ENDMDL
MODEL 9
REMARK VINA RESULT:      -7.2      3.878      7.968
REMARK  7 active torsions:
REMARK  status: ('A' for Active; 'I' for Inactive)
REMARK    1  A    between atoms: C2_2  and  C3_3 
REMARK    2  A    between atoms: C4_4  and  C5_5 
REMARK    3  A    between atoms: C4_4  and  N1_8 
REMARK    4  A    between atoms: C13_17  and  N4_18 
REMARK       I    between atoms: N4_18  and  C14_19 
REMARK    5  A    between atoms: C14_19  and  C15_21 
REMARK    6  A    between atoms: C15_21  and  C16_22 
REMARK    7  A    between atoms: C16_22  and  N5_23 
ROOT
HETATM    1  N1  UNL     1      21.359   1.261  51.696  1.00  0.00    -0.256 N 
HETATM    2  N2  UNL     1      21.336  -0.113  52.006  1.00  0.00    -0.303 N 
HETATM    3  C7  UNL     1      22.345  -0.717  52.789  1.00  0.00     0.131 A 
HETATM    4  C8  UNL     1      23.324   0.055  53.228  1.00  0.00     0.074 A 
HETATM    5  C9  UNL     1      24.369  -0.489  54.020  1.00  0.00     0.102 C 
HETATM    6  N3  UNL     1      25.217  -0.946  54.684  1.00  0.00    -0.191 NA
HETATM    7  C10 UNL     1      23.392   1.474  52.937  1.00  0.00     0.015 A 
HETATM    8  C11 UNL     1      24.393   2.313  53.375  1.00  0.00     0.017 A 
HETATM    9  C12 UNL     1      24.399   3.644  53.064  1.00  0.00     0.030 A 
HETATM   10  C13 UNL     1      23.417   4.240  52.301  1.00  0.00     0.036 A 
HETATM   11  C21 UNL     1      22.437   3.406  51.875  1.00  0.00     0.062 A 
HETATM   12  C22 UNL     1      22.412   2.065  52.176  1.00  0.00     0.070 A 
HETATM   13  H7  UNL     1      20.578  -0.742  51.671  1.00  0.00     0.186 HD
ENDROOT
BRANCH   1  14
HETATM   14  C4  UNL     1      20.277   1.713  50.898  1.00  0.00     0.057 C 
HETATM   15  C3  UNL     1      20.294   1.647  49.579  1.00  0.00     0.031 C 
BRANCH  15  16
HETATM   16  C2  UNL     1      21.441   1.087  48.850  1.00  0.00    -0.008 C 
HETATM   17  C1  UNL     1      22.216   1.817  48.096  1.00  0.00     0.011 C 
ENDBRANCH  15  16
BRANCH  14  18
HETATM   18  C5  UNL     1      19.114   2.277  51.576  1.00  0.00     0.039 C 
HETATM   19  C6  UNL     1      18.156   2.893  50.929  1.00  0.00     0.058 C 
HETATM   20 BR1  UNL     1      16.631   3.628  51.839  1.00  0.00    -0.064 Br
ENDBRANCH  14  18
ENDBRANCH   1  14
BRANCH  10  21
HETATM   21  N4  UNL     1      23.562   5.627  52.063  1.00  0.00    -0.327 N 
HETATM   22  C14 UNL     1      24.241   6.255  50.994  1.00  0.00     0.223 C 
HETATM   23  O1  UNL     1      24.805   5.563  50.110  1.00  0.00    -0.273 OA
HETATM   24  H11 UNL     1      23.154   6.329  52.701  1.00  0.00     0.169 HD
BRANCH  22  25
HETATM   25  C15 UNL     1      24.355   7.711  50.809  1.00  0.00     0.133 C 
BRANCH  25  26
HETATM   26  C16 UNL     1      23.349   8.289  49.892  1.00  0.00     0.282 C 
BRANCH  26  27
HETATM   27  N5  UNL     1      22.220   7.468  49.594  1.00  0.00     0.093 N 
HETATM   28  C17 UNL     1      20.974   7.941  50.146  1.00  0.00     0.298 C 
HETATM   29  C18 UNL     1      20.449   9.170  49.418  1.00  0.00     0.198 C 
HETATM   30  O2  UNL     1      20.041   8.746  48.169  1.00  0.00    -0.388 OA
HETATM   31  C19 UNL     1      20.599   7.573  47.730  1.00  0.00     0.198 C 
HETATM   32  C20 UNL     1      22.065   7.455  48.150  1.00  0.00     0.298 C 
ENDBRANCH  26  27
ENDBRANCH  25  26
ENDBRANCH  22  25
ENDBRANCH  10  21
TORSDOF 7
ENDMDL
