MODEL 1
REMARK VINA RESULT:      -8.4      0.000      0.000
REMARK  5 active torsions:
REMARK  status: ('A' for Active; 'I' for Inactive)
REMARK    1  A    between atoms: C2_3  and  N2_11 
REMARK    2  A    between atoms: N1_4  and  C3_5 
REMARK    3  A    between atoms: N2_11  and  C9_12 
REMARK    4  A    between atoms: N2_11  and  C16_20 
REMARK    5  A    between atoms: C9_12  and  C10_13 
ROOT
HETATM    1  N2  UNL     1      24.218   1.093  52.246  1.00  0.00    -0.332 N 
ENDROOT
BRANCH   1   2
HETATM    2  C2  UNL     1      24.535   1.890  51.192  1.00  0.00     0.331 A 
HETATM    3  S1  UNL     1      25.076   3.048  52.297  1.00  0.00    -0.042 SA
HETATM    4  C1  UNL     1      23.784   3.961  52.826  1.00  0.00     0.236 C 
HETATM    5  N1  UNL     1      24.935   2.851  50.310  1.00  0.00     0.032 N 
HETATM    6  H3  UNL     1      24.521   2.004  49.808  1.00  0.00     0.304 HD
BRANCH   5   7
HETATM    7  C3  UNL     1      25.430   3.991  49.683  1.00  0.00     0.149 A 
HETATM    8  C4  UNL     1      26.761   3.882  49.384  1.00  0.00     0.038 A 
HETATM    9  C5  UNL     1      27.353   4.954  48.762  1.00  0.00     0.002 A 
HETATM   10  C6  UNL     1      26.560   6.043  48.495  1.00  0.00     0.000 A 
HETATM   11  C7  UNL     1      25.222   6.167  48.791  1.00  0.00     0.002 A 
HETATM   12  C8  UNL     1      24.660   5.073  49.413  1.00  0.00     0.038 A 
ENDBRANCH   5   7
ENDBRANCH   1   2
BRANCH   1  13
HETATM   13  C9  UNL     1      24.613   0.379  53.440  1.00  0.00     0.165 C 
BRANCH  13  14
HETATM   14  C10 UNL     1      25.994  -0.106  53.456  1.00  0.00    -0.040 A 
HETATM   15  C11 UNL     1      26.695  -1.040  52.729  1.00  0.00     0.012 A 
HETATM   16  C12 UNL     1      28.015  -1.306  52.982  1.00  0.00     0.043 A 
HETATM   17  C13 UNL     1      28.724  -0.662  53.973  1.00  0.00     0.116 A 
HETATM   18  F1  UNL     1      30.025  -0.999  54.140  1.00  0.00    -0.206 F 
HETATM   19  C14 UNL     1      28.052   0.282  54.721  1.00  0.00     0.043 A 
HETATM   20  C15 UNL     1      26.702   0.557  54.467  1.00  0.00     0.012 A 
ENDBRANCH  13  14
ENDBRANCH   1  13
BRANCH   1  21
HETATM   21  C16 UNL     1      22.862   0.968  51.918  1.00  0.00     0.034 C 
HETATM   22  C17 UNL     1      21.964   0.766  52.907  1.00  0.00     0.043 C 
HETATM   23  C18 UNL     1      20.547   0.651  52.391  1.00  0.00     0.218 C 
HETATM   24 BR1  UNL     1      19.664  -0.711  53.411  1.00  0.00    -0.057 Br
HETATM   25  O1  UNL     1      20.844   0.230  51.095  1.00  0.00    -0.365 OA
HETATM   26  C19 UNL     1      21.936   0.976  50.726  1.00  0.00     0.226 C 
ENDBRANCH   1  21
TORSDOF 5
ENDMDL
MODEL 2
REMARK VINA RESULT:      -7.7      3.664      6.657
REMARK  5 active torsions:
REMARK  status: ('A' for Active; 'I' for Inactive)
REMARK    1  A    between atoms: C2_3  and  N2_11 
REMARK    2  A    between atoms: N1_4  and  C3_5 
REMARK    3  A    between atoms: N2_11  and  C9_12 
REMARK    4  A    between atoms: N2_11  and  C16_20 
REMARK    5  A    between atoms: C9_12  and  C10_13 
ROOT
HETATM    1  N2  UNL     1      23.069   3.671  50.217  1.00  0.00    -0.332 N 
ENDROOT
BRANCH   1   2
HETATM    2  C2  UNL     1      22.854   2.447  50.770  1.00  0.00     0.331 A 
HETATM    3  S1  UNL     1      22.633   3.216  52.258  1.00  0.00    -0.042 SA
HETATM    4  C1  UNL     1      24.116   3.475  52.977  1.00  0.00     0.236 C 
HETATM    5  N1  UNL     1      22.602   1.348  51.538  1.00  0.00     0.032 N 
HETATM    6  H3  UNL     1      22.801   1.082  50.523  1.00  0.00     0.304 HD
BRANCH   5   7
HETATM    7  C3  UNL     1      22.310   0.450  52.561  1.00  0.00     0.149 A 
HETATM    8  C4  UNL     1      20.971   0.186  52.653  1.00  0.00     0.038 A 
HETATM    9  C5  UNL     1      20.571  -0.690  53.631  1.00  0.00     0.002 A 
HETATM   10  C6  UNL     1      21.549  -1.226  54.434  1.00  0.00     0.000 A 
HETATM   11  C7  UNL     1      22.898  -0.970  54.353  1.00  0.00     0.002 A 
HETATM   12  C8  UNL     1      23.263  -0.087  53.359  1.00  0.00     0.038 A 
ENDBRANCH   5   7
ENDBRANCH   1   2
BRANCH   1  13
HETATM   13  C9  UNL     1      23.799   4.919  50.182  1.00  0.00     0.165 C 
BRANCH  13  14
HETATM   14  C10 UNL     1      25.159   4.838  49.649  1.00  0.00    -0.040 A 
HETATM   15  C11 UNL     1      26.114   3.848  49.590  1.00  0.00     0.012 A 
HETATM   16  C12 UNL     1      27.344   4.068  49.029  1.00  0.00     0.043 A 
HETATM   17  C13 UNL     1      27.707   5.283  48.489  1.00  0.00     0.116 A 
HETATM   18  F1  UNL     1      28.947   5.394  47.959  1.00  0.00    -0.206 F 
HETATM   19  C14 UNL     1      26.774   6.298  48.531  1.00  0.00     0.043 A 
HETATM   20  C15 UNL     1      25.515   6.080  49.104  1.00  0.00     0.012 A 
ENDBRANCH  13  14
ENDBRANCH   1  13
BRANCH   1  21
HETATM   21  C16 UNL     1      22.062   3.561  49.250  1.00  0.00     0.034 C 
HETATM   22  C17 UNL     1      22.403   3.257  47.980  1.00  0.00     0.043 C 
HETATM   23  C18 UNL     1      21.205   3.178  47.059  1.00  0.00     0.218 C 
HETATM   24 BR1  UNL     1      21.712   3.945  45.377  1.00  0.00    -0.057 Br
HETATM   25  O1  UNL     1      20.348   4.008  47.781  1.00  0.00    -0.365 OA
HETATM   26  C19 UNL     1      20.565   3.677  49.096  1.00  0.00     0.226 C 
ENDBRANCH   1  21
TORSDOF 5
ENDMDL
MODEL 3
REMARK VINA RESULT:      -7.6      1.427      1.922
REMARK  5 active torsions:
REMARK  status: ('A' for Active; 'I' for Inactive)
REMARK    1  A    between atoms: C2_3  and  N2_11 
REMARK    2  A    between atoms: N1_4  and  C3_5 
REMARK    3  A    between atoms: N2_11  and  C9_12 
REMARK    4  A    between atoms: N2_11  and  C16_20 
REMARK    5  A    between atoms: C9_12  and  C10_13 
ROOT
HETATM    1  N2  UNL     1      24.197   2.174  52.093  1.00  0.00    -0.332 N 
ENDROOT
BRANCH   1   2
HETATM    2  C2  UNL     1      24.017   2.785  50.892  1.00  0.00     0.331 A 
HETATM    3  S1  UNL     1      24.070   4.269  51.697  1.00  0.00    -0.042 SA
HETATM    4  C1  UNL     1      22.558   4.628  52.305  1.00  0.00     0.236 C 
HETATM    5  N1  UNL     1      23.853   3.611  49.819  1.00  0.00     0.032 N 
HETATM    6  H3  UNL     1      23.827   2.582  49.532  1.00  0.00     0.304 HD
BRANCH   5   7
HETATM    7  C3  UNL     1      23.714   4.691  48.951  1.00  0.00     0.149 A 
HETATM    8  C4  UNL     1      22.545   4.639  48.242  1.00  0.00     0.038 A 
HETATM    9  C5  UNL     1      22.306   5.657  47.353  1.00  0.00     0.002 A 
HETATM   10  C6  UNL     1      23.261   6.641  47.251  1.00  0.00     0.000 A 
HETATM   11  C7  UNL     1      24.440   6.705  47.956  1.00  0.00     0.002 A 
HETATM   12  C8  UNL     1      24.647   5.667  48.840  1.00  0.00     0.038 A 
ENDBRANCH   5   7
ENDBRANCH   1   2
BRANCH   1  13
HETATM   13  C9  UNL     1      24.987   1.963  53.286  1.00  0.00     0.165 C 
BRANCH  13  14
HETATM   14  C10 UNL     1      26.027   0.938  53.178  1.00  0.00    -0.040 A 
HETATM   15  C11 UNL     1      26.063  -0.352  52.701  1.00  0.00     0.012 A 
HETATM   16  C12 UNL     1      27.207  -1.104  52.744  1.00  0.00     0.043 A 
HETATM   17  C13 UNL     1      28.391  -0.623  53.261  1.00  0.00     0.116 A 
HETATM   18  F1  UNL     1      29.464  -1.448  53.255  1.00  0.00    -0.206 F 
HETATM   19  C14 UNL     1      28.392   0.667  53.748  1.00  0.00     0.043 A 
HETATM   20  C15 UNL     1      27.224   1.440  53.708  1.00  0.00     0.012 A 
ENDBRANCH  13  14
ENDBRANCH   1  13
BRANCH   1  21
HETATM   21  C16 UNL     1      23.010   1.431  52.046  1.00  0.00     0.034 C 
HETATM   22  C17 UNL     1      22.490   0.952  53.196  1.00  0.00     0.043 C 
HETATM   23  C18 UNL     1      21.213   0.171  52.976  1.00  0.00     0.218 C 
HETATM   24 BR1  UNL     1      21.236  -1.332  54.165  1.00  0.00    -0.057 Br
HETATM   25  O1  UNL     1      21.436  -0.201  51.651  1.00  0.00    -0.365 OA
HETATM   26  C19 UNL     1      21.989   0.911  51.064  1.00  0.00     0.226 C 
ENDBRANCH   1  21
TORSDOF 5
ENDMDL
MODEL 4
REMARK VINA RESULT:      -7.5      3.207      6.234
REMARK  5 active torsions:
REMARK  status: ('A' for Active; 'I' for Inactive)
REMARK    1  A    between atoms: C2_3  and  N2_11 
REMARK    2  A    between atoms: N1_4  and  C3_5 
REMARK    3  A    between atoms: N2_11  and  C9_12 
REMARK    4  A    between atoms: N2_11  and  C16_20 
REMARK    5  A    between atoms: C9_12  and  C10_13 
ROOT
HETATM    1  N2  UNL     1      22.726   2.019  51.597  1.00  0.00    -0.332 N 
ENDROOT
BRANCH   1   2
HETATM    2  C2  UNL     1      21.503   1.614  52.032  1.00  0.00     0.331 A 
HETATM    3  S1  UNL     1      21.534   0.416  50.842  1.00  0.00    -0.042 SA
HETATM    4  C1  UNL     1      21.003   1.054  49.394  1.00  0.00     0.236 C 
HETATM    5  N1  UNL     1      20.297   1.031  52.290  1.00  0.00     0.032 N 
HETATM    6  H3  UNL     1      20.480   1.862  52.937  1.00  0.00     0.304 HD
BRANCH   5   7
HETATM    7  C3  UNL     1      19.155   0.236  52.310  1.00  0.00     0.149 A 
HETATM    8  C4  UNL     1      19.210  -0.726  53.281  1.00  0.00     0.038 A 
HETATM    9  C5  UNL     1      18.132  -1.570  53.389  1.00  0.00     0.002 A 
HETATM   10  C6  UNL     1      17.091  -1.376  52.513  1.00  0.00     0.000 A 
HETATM   11  C7  UNL     1      17.023  -0.414  51.532  1.00  0.00     0.002 A 
HETATM   12  C8  UNL     1      18.121   0.415  51.453  1.00  0.00     0.038 A 
ENDBRANCH   5   7
ENDBRANCH   1   2
BRANCH   1  13
HETATM   13  C9  UNL     1      24.095   1.713  51.246  1.00  0.00     0.165 C 
BRANCH  13  14
HETATM   14  C10 UNL     1      24.903   1.126  52.317  1.00  0.00    -0.040 A 
HETATM   15  C11 UNL     1      24.637   0.286  53.374  1.00  0.00     0.012 A 
HETATM   16  C12 UNL     1      25.616  -0.095  54.253  1.00  0.00     0.043 A 
HETATM   17  C13 UNL     1      26.922   0.332  54.140  1.00  0.00     0.116 A 
HETATM   18  F1  UNL     1      27.811  -0.105  55.062  1.00  0.00    -0.206 F 
HETATM   19  C14 UNL     1      27.224   1.175  53.092  1.00  0.00     0.043 A 
HETATM   20  C15 UNL     1      26.227   1.569  52.190  1.00  0.00     0.012 A 
ENDBRANCH  13  14
ENDBRANCH   1  13
BRANCH   1  21
HETATM   21  C16 UNL     1      22.381   3.369  51.461  1.00  0.00     0.034 C 
HETATM   22  C17 UNL     1      23.235   4.204  50.830  1.00  0.00     0.043 C 
HETATM   23  C18 UNL     1      22.720   5.625  50.768  1.00  0.00     0.218 C 
HETATM   24 BR1  UNL     1      24.211   6.797  51.045  1.00  0.00    -0.057 Br
HETATM   25  O1  UNL     1      21.875   5.576  51.877  1.00  0.00    -0.365 OA
HETATM   26  C19 UNL     1      21.279   4.340  51.807  1.00  0.00     0.226 C 
ENDBRANCH   1  21
TORSDOF 5
ENDMDL
MODEL 5
REMARK VINA RESULT:      -7.4      3.229      4.050
REMARK  5 active torsions:
REMARK  status: ('A' for Active; 'I' for Inactive)
REMARK    1  A    between atoms: C2_3  and  N2_11 
REMARK    2  A    between atoms: N1_4  and  C3_5 
REMARK    3  A    between atoms: N2_11  and  C9_12 
REMARK    4  A    between atoms: N2_11  and  C16_20 
REMARK    5  A    between atoms: C9_12  and  C10_13 
ROOT
HETATM    1  N2  UNL     1      22.814   3.061  50.970  1.00  0.00    -0.332 N 
ENDROOT
BRANCH   1   2
HETATM    2  C2  UNL     1      23.756   3.510  50.099  1.00  0.00     0.331 A 
HETATM    3  S1  UNL     1      24.257   4.605  51.284  1.00  0.00    -0.042 SA
HETATM    4  C1  UNL     1      23.298   5.968  51.225  1.00  0.00     0.236 C 
HETATM    5  N1  UNL     1      24.768   4.115  49.412  1.00  0.00     0.032 N 
HETATM    6  H3  UNL     1      24.277   3.374  48.819  1.00  0.00     0.304 HD
BRANCH   5   7
HETATM    7  C3  UNL     1      25.838   4.900  48.991  1.00  0.00     0.149 A 
HETATM    8  C4  UNL     1      25.440   6.146  48.592  1.00  0.00     0.038 A 
HETATM    9  C5  UNL     1      26.418   7.006  48.155  1.00  0.00     0.002 A 
HETATM   10  C6  UNL     1      27.711   6.541  48.155  1.00  0.00     0.000 A 
HETATM   11  C7  UNL     1      28.124   5.290  48.553  1.00  0.00     0.002 A 
HETATM   12  C8  UNL     1      27.117   4.455  48.986  1.00  0.00     0.038 A 
ENDBRANCH   5   7
ENDBRANCH   1   2
BRANCH   1  13
HETATM   13  C9  UNL     1      22.346   2.885  52.327  1.00  0.00     0.165 C 
BRANCH  13  14
HETATM   14  C10 UNL     1      22.378   1.510  52.830  1.00  0.00    -0.040 A 
HETATM   15  C11 UNL     1      23.339   0.527  52.887  1.00  0.00     0.012 A 
HETATM   16  C12 UNL     1      23.074  -0.709  53.414  1.00  0.00     0.043 A 
HETATM   17  C13 UNL     1      21.838  -1.049  53.920  1.00  0.00     0.116 A 
HETATM   18  F1  UNL     1      21.682  -2.298  54.419  1.00  0.00    -0.206 F 
HETATM   19  C14 UNL     1      20.850  -0.088  53.880  1.00  0.00     0.043 A 
HETATM   20  C15 UNL     1      21.116   1.178  53.341  1.00  0.00     0.012 A 
ENDBRANCH  13  14
ENDBRANCH   1  13
BRANCH   1  21
HETATM   21  C16 UNL     1      21.953   2.554  49.989  1.00  0.00     0.034 C 
HETATM   22  C17 UNL     1      20.758   3.150  49.794  1.00  0.00     0.043 C 
HETATM   23  C18 UNL     1      19.946   2.484  48.705  1.00  0.00     0.218 C 
HETATM   24 BR1  UNL     1      18.114   2.475  49.266  1.00  0.00    -0.057 Br
HETATM   25  O1  UNL     1      20.526   1.218  48.775  1.00  0.00    -0.365 OA
HETATM   26  C19 UNL     1      21.866   1.456  48.957  1.00  0.00     0.226 C 
ENDBRANCH   1  21
TORSDOF 5
ENDMDL
MODEL 6
REMARK VINA RESULT:      -7.3      1.940      2.695
REMARK  5 active torsions:
REMARK  status: ('A' for Active; 'I' for Inactive)
REMARK    1  A    between atoms: C2_3  and  N2_11 
REMARK    2  A    between atoms: N1_4  and  C3_5 
REMARK    3  A    between atoms: N2_11  and  C9_12 
REMARK    4  A    between atoms: N2_11  and  C16_20 
REMARK    5  A    between atoms: C9_12  and  C10_13 
ROOT
HETATM    1  N2  UNL     1      23.505   2.999  51.073  1.00  0.00    -0.332 N 
ENDROOT
BRANCH   1   2
HETATM    2  C2  UNL     1      23.896   3.765  50.019  1.00  0.00     0.331 A 
HETATM    3  S1  UNL     1      24.066   5.060  51.090  1.00  0.00    -0.042 SA
HETATM    4  C1  UNL     1      22.588   5.801  51.308  1.00  0.00     0.236 C 
HETATM    5  N1  UNL     1      24.315   4.715  49.134  1.00  0.00     0.032 N 
HETATM    6  H3  UNL     1      24.117   3.784  48.649  1.00  0.00     0.304 HD
BRANCH   5   7
HETATM    7  C3  UNL     1      24.755   5.873  48.500  1.00  0.00     0.149 A 
HETATM    8  C4  UNL     1      23.743   6.525  47.850  1.00  0.00     0.038 A 
HETATM    9  C5  UNL     1      24.068   7.683  47.187  1.00  0.00     0.002 A 
HETATM   10  C6  UNL     1      25.380   8.088  47.234  1.00  0.00     0.000 A 
HETATM   11  C7  UNL     1      26.407   7.442  47.883  1.00  0.00     0.002 A 
HETATM   12  C8  UNL     1      26.045   6.284  48.537  1.00  0.00     0.038 A 
ENDBRANCH   5   7
ENDBRANCH   1   2
BRANCH   1  13
HETATM   13  C9  UNL     1      23.673   2.579  52.446  1.00  0.00     0.165 C 
BRANCH  13  14
HETATM   14  C10 UNL     1      24.444   1.349  52.639  1.00  0.00    -0.040 A 
HETATM   15  C11 UNL     1      24.217   0.163  53.298  1.00  0.00     0.012 A 
HETATM   16  C12 UNL     1      25.154  -0.836  53.324  1.00  0.00     0.043 A 
HETATM   17  C13 UNL     1      26.376  -0.723  52.698  1.00  0.00     0.116 A 
HETATM   18  F1  UNL     1      27.230  -1.769  52.785  1.00  0.00    -0.206 F 
HETATM   19  C14 UNL     1      26.637   0.454  52.027  1.00  0.00     0.043 A 
HETATM   20  C15 UNL     1      25.683   1.479  51.997  1.00  0.00     0.012 A 
ENDBRANCH  13  14
ENDBRANCH   1  13
BRANCH   1  21
HETATM   21  C16 UNL     1      22.451   2.369  50.398  1.00  0.00     0.034 C 
HETATM   22  C17 UNL     1      21.261   2.235  51.022  1.00  0.00     0.043 C 
HETATM   23  C18 UNL     1      20.231   1.534  50.164  1.00  0.00     0.218 C 
HETATM   24 BR1  UNL     1      19.214   0.375  51.304  1.00  0.00    -0.057 Br
HETATM   25  O1  UNL     1      21.109   0.828  49.342  1.00  0.00    -0.365 OA
HETATM   26  C19 UNL     1      22.129   1.709  49.080  1.00  0.00     0.226 C 
ENDBRANCH   1  21
TORSDOF 5
ENDMDL
MODEL 7
REMARK VINA RESULT:      -7.1      4.894      8.299
REMARK  5 active torsions:
REMARK  status: ('A' for Active; 'I' for Inactive)
REMARK    1  A    between atoms: C2_3  and  N2_11 
REMARK    2  A    between atoms: N1_4  and  C3_5 
REMARK    3  A    between atoms: N2_11  and  C9_12 
REMARK    4  A    between atoms: N2_11  and  C16_20 
REMARK    5  A    between atoms: C9_12  and  C10_13 
ROOT
HETATM    1  N2  UNL     1      23.968   4.444  49.381  1.00  0.00    -0.332 N 
ENDROOT
BRANCH   1   2
HETATM    2  C2  UNL     1      24.160   3.291  50.075  1.00  0.00     0.331 A 
HETATM    3  S1  UNL     1      22.891   3.751  51.090  1.00  0.00    -0.042 SA
HETATM    4  C1  UNL     1      23.469   4.769  52.279  1.00  0.00     0.236 C 
HETATM    5  N1  UNL     1      24.159   2.212  50.910  1.00  0.00     0.032 N 
HETATM    6  H3  UNL     1      24.930   2.140  50.174  1.00  0.00     0.304 HD
BRANCH   5   7
HETATM    7  C3  UNL     1      23.905   1.268  51.901  1.00  0.00     0.149 A 
HETATM    8  C4  UNL     1      25.017   0.986  52.646  1.00  0.00     0.038 A 
HETATM    9  C5  UNL     1      24.879   0.064  53.654  1.00  0.00     0.002 A 
HETATM   10  C6  UNL     1      23.636  -0.495  53.829  1.00  0.00     0.000 A 
HETATM   11  C7  UNL     1      22.510  -0.221  53.088  1.00  0.00     0.002 A 
HETATM   12  C8  UNL     1      22.685   0.709  52.085  1.00  0.00     0.038 A 
ENDBRANCH   5   7
ENDBRANCH   1   2
BRANCH   1  13
HETATM   13  C9  UNL     1      23.076   5.407  48.775  1.00  0.00     0.165 C 
BRANCH  13  14
HETATM   14  C10 UNL     1      22.526   5.024  47.473  1.00  0.00    -0.040 A 
HETATM   15  C11 UNL     1      22.028   3.856  46.944  1.00  0.00     0.012 A 
HETATM   16  C12 UNL     1      21.586   3.784  45.649  1.00  0.00     0.043 A 
HETATM   17  C13 UNL     1      21.608   4.866  44.797  1.00  0.00     0.116 A 
HETATM   18  F1  UNL     1      21.146   4.688  43.537  1.00  0.00    -0.206 F 
HETATM   19  C14 UNL     1      22.101   6.054  45.294  1.00  0.00     0.043 A 
HETATM   20  C15 UNL     1      22.555   6.134  46.617  1.00  0.00     0.012 A 
ENDBRANCH  13  14
ENDBRANCH   1  13
BRANCH   1  21
HETATM   21  C16 UNL     1      25.328   4.748  49.244  1.00  0.00     0.034 C 
HETATM   22  C17 UNL     1      25.693   6.024  48.998  1.00  0.00     0.043 C 
HETATM   23  C18 UNL     1      27.192   6.188  48.875  1.00  0.00     0.218 C 
HETATM   24 BR1  UNL     1      27.528   7.447  47.469  1.00  0.00    -0.057 Br
HETATM   25  O1  UNL     1      27.501   4.881  48.497  1.00  0.00    -0.365 OA
HETATM   26  C19 UNL     1      26.687   4.091  49.271  1.00  0.00     0.226 C 
ENDBRANCH   1  21
TORSDOF 5
ENDMDL
MODEL 8
REMARK VINA RESULT:      -7.1      3.241      6.346
REMARK  5 active torsions:
REMARK  status: ('A' for Active; 'I' for Inactive)
REMARK    1  A    between atoms: C2_3  and  N2_11 
REMARK    2  A    between atoms: N1_4  and  C3_5 
REMARK    3  A    between atoms: N2_11  and  C9_12 
REMARK    4  A    between atoms: N2_11  and  C16_20 
REMARK    5  A    between atoms: C9_12  and  C10_13 
ROOT
HETATM    1  N2  UNL     1      22.255   1.415  51.162  1.00  0.00    -0.332 N 
ENDROOT
BRANCH   1   2
HETATM    2  C2  UNL     1      21.138   0.641  51.173  1.00  0.00     0.331 A 
HETATM    3  S1  UNL     1      20.404   1.803  52.156  1.00  0.00    -0.042 SA
HETATM    4  C1  UNL     1      20.823   1.532  53.748  1.00  0.00     0.236 C 
HETATM    5  N1  UNL     1      19.918   0.048  51.325  1.00  0.00     0.032 N 
HETATM    6  H3  UNL     1      20.577  -0.551  50.734  1.00  0.00     0.304 HD
BRANCH   5   7
HETATM    7  C3  UNL     1      18.608  -0.288  51.656  1.00  0.00     0.149 A 
HETATM    8  C4  UNL     1      18.534  -0.998  52.823  1.00  0.00     0.038 A 
HETATM    9  C5  UNL     1      17.284  -1.382  53.244  1.00  0.00     0.002 A 
HETATM   10  C6  UNL     1      16.217  -1.021  52.458  1.00  0.00     0.000 A 
HETATM   11  C7  UNL     1      16.277  -0.308  51.283  1.00  0.00     0.002 A 
HETATM   12  C8  UNL     1      17.546   0.062  50.891  1.00  0.00     0.038 A 
ENDBRANCH   5   7
ENDBRANCH   1   2
BRANCH   1  13
HETATM   13  C9  UNL     1      23.387   1.991  51.854  1.00  0.00     0.165 C 
BRANCH  13  14
HETATM   14  C10 UNL     1      24.379   1.032  52.343  1.00  0.00    -0.040 A 
HETATM   15  C11 UNL     1      24.339  -0.044  53.201  1.00  0.00     0.012 A 
HETATM   16  C12 UNL     1      25.461  -0.771  53.496  1.00  0.00     0.043 A 
HETATM   17  C13 UNL     1      26.697  -0.479  52.959  1.00  0.00     0.116 A 
HETATM   18  F1  UNL     1      27.742  -1.261  53.316  1.00  0.00    -0.206 F 
HETATM   19  C14 UNL     1      26.774   0.593  52.094  1.00  0.00     0.043 A 
HETATM   20  C15 UNL     1      25.629   1.341  51.789  1.00  0.00     0.012 A 
ENDBRANCH  13  14
ENDBRANCH   1  13
BRANCH   1  21
HETATM   21  C16 UNL     1      22.164   1.764  49.809  1.00  0.00     0.034 C 
HETATM   22  C17 UNL     1      22.805   2.869  49.372  1.00  0.00     0.043 C 
HETATM   23  C18 UNL     1      22.607   3.110  47.892  1.00  0.00     0.218 C 
HETATM   24 BR1  UNL     1      22.411   4.999  47.629  1.00  0.00    -0.057 Br
HETATM   25  O1  UNL     1      21.400   2.428  47.742  1.00  0.00    -0.365 OA
HETATM   26  C19 UNL     1      21.535   1.303  48.517  1.00  0.00     0.226 C 
ENDBRANCH   1  21
TORSDOF 5
ENDMDL
MODEL 9
REMARK VINA RESULT:      -7.0      4.223      5.551
REMARK  5 active torsions:
REMARK  status: ('A' for Active; 'I' for Inactive)
REMARK    1  A    between atoms: C2_3  and  N2_11 
REMARK    2  A    between atoms: N1_4  and  C3_5 
REMARK    3  A    between atoms: N2_11  and  C9_12 
REMARK    4  A    between atoms: N2_11  and  C16_20 
REMARK    5  A    between atoms: C9_12  and  C10_13 
ROOT
HETATM    1  N2  UNL     1      23.095   5.356  50.297  1.00  0.00    -0.332 N 
ENDROOT
BRANCH   1   2
HETATM    2  C2  UNL     1      24.176   5.421  49.476  1.00  0.00     0.331 A 
HETATM    3  S1  UNL     1      24.864   6.526  50.553  1.00  0.00    -0.042 SA
HETATM    4  C1  UNL     1      24.296   8.058  50.217  1.00  0.00     0.236 C 
HETATM    5  N1  UNL     1      25.354   5.645  48.823  1.00  0.00     0.032 N 
HETATM    6  H3  UNL     1      24.727   4.966  48.285  1.00  0.00     0.304 HD
BRANCH   5   7
HETATM    7  C3  UNL     1      26.615   6.068  48.415  1.00  0.00     0.149 A 
HETATM    8  C4  UNL     1      27.583   5.136  48.671  1.00  0.00     0.038 A 
HETATM    9  C5  UNL     1      28.869   5.452  48.308  1.00  0.00     0.002 A 
HETATM   10  C6  UNL     1      29.074   6.676  47.719  1.00  0.00     0.000 A 
HETATM   11  C7  UNL     1      28.111   7.623  47.456  1.00  0.00     0.002 A 
HETATM   12  C8  UNL     1      26.832   7.272  47.833  1.00  0.00     0.038 A 
ENDBRANCH   5   7
ENDBRANCH   1   2
BRANCH   1  13
HETATM   13  C9  UNL     1      22.536   5.281  51.629  1.00  0.00     0.165 C 
BRANCH  13  14
HETATM   14  C10 UNL     1      22.043   3.962  52.031  1.00  0.00    -0.040 A 
HETATM   15  C11 UNL     1      20.794   3.421  52.232  1.00  0.00     0.012 A 
HETATM   16  C12 UNL     1      20.630   2.122  52.635  1.00  0.00     0.043 A 
HETATM   17  C13 UNL     1      21.693   1.276  52.864  1.00  0.00     0.116 A 
HETATM   18  F1  UNL     1      21.421   0.011  53.260  1.00  0.00    -0.206 F 
HETATM   19  C14 UNL     1      22.960   1.786  52.672  1.00  0.00     0.043 A 
HETATM   20  C15 UNL     1      23.135   3.113  52.260  1.00  0.00     0.012 A 
ENDBRANCH  13  14
ENDBRANCH   1  13
BRANCH   1  21
HETATM   21  C16 UNL     1      22.143   5.376  49.270  1.00  0.00     0.034 C 
HETATM   22  C17 UNL     1      22.094   4.343  48.402  1.00  0.00     0.043 C 
HETATM   23  C18 UNL     1      21.017   4.514  47.353  1.00  0.00     0.218 C 
HETATM   24 BR1  UNL     1      21.716   3.869  45.689  1.00  0.00    -0.057 Br
HETATM   25  O1  UNL     1      20.932   5.906  47.386  1.00  0.00    -0.365 OA
HETATM   26  C19 UNL     1      21.030   6.232  48.716  1.00  0.00     0.226 C 
ENDBRANCH   1  21
TORSDOF 5
ENDMDL
