MODEL 1
REMARK VINA RESULT:      -7.1      0.000      0.000
REMARK  9 active torsions:
REMARK  status: ('A' for Active; 'I' for Inactive)
REMARK    1  A    between atoms: C2_2  and  S1_3 
REMARK    2  A    between atoms: S1_3  and  N1_6 
REMARK    3  A    between atoms: N1_6  and  C3_7 
REMARK    4  A    between atoms: C3_7  and  C4_8 
REMARK    5  A    between atoms: C4_8  and  C5_9 
REMARK    6  A    between atoms: C10_16  and  C11_17 
REMARK    7  A    between atoms: C11_17  and  C12_18 
REMARK    8  A    between atoms: C12_18  and  C13_19 
REMARK    9  A    between atoms: C13_19  and  C14_20 
ROOT
HETATM    1  C5  UNL     1      24.100   0.384  53.235  1.00  0.00     0.032 A 
HETATM    2  C6  UNL     1      22.959  -0.338  54.071  1.00  0.00     0.242 A 
HETATM    3  C7  UNL     1      22.829  -1.185  54.955  1.00  0.00     0.178 A 
HETATM    4  C8  UNL     1      22.362  -1.088  53.493  1.00  0.00     0.318 A 
HETATM    5  N2  UNL     1      21.788   0.386  53.370  1.00  0.00     0.033 N 
HETATM    6  C9  UNL     1      20.582  -0.229  54.111  1.00  0.00     0.305 A 
HETATM    7  N3  UNL     1      21.608  -0.689  54.529  1.00  0.00    -0.322 N 
HETATM    8  C10 UNL     1      22.866   0.929  52.716  1.00  0.00     0.156 A 
ENDROOT
BRANCH   1   9
HETATM    9  C4  UNL     1      25.388   0.542  53.036  1.00  0.00     0.002 C 
BRANCH   9  10
HETATM   10  C3  UNL     1      26.163   1.594  53.716  1.00  0.00     0.132 C 
BRANCH  10  11
HETATM   11  N1  UNL     1      27.217   1.047  54.588  1.00  0.00    -0.216 NA
HETATM   12  H4  UNL     1      27.027   1.436  55.549  1.00  0.00     0.139 HD
BRANCH  11  13
HETATM   13  S1  UNL     1      28.783   1.510  54.007  1.00  0.00     0.215 S 
HETATM   14  O1  UNL     1      28.573   2.299  52.744  1.00  0.00    -0.211 OA
HETATM   15  O2  UNL     1      29.509   2.294  55.028  1.00  0.00    -0.211 OA
BRANCH  13  16
HETATM   16  C2  UNL     1      29.696   0.078  53.580  1.00  0.00     0.144 C 
HETATM   17  C1  UNL     1      29.019  -1.071  53.424  1.00  0.00     0.024 C 
ENDBRANCH  13  16
ENDBRANCH  11  13
ENDBRANCH  10  11
ENDBRANCH   9  10
ENDBRANCH   1   9
BRANCH   8  18
HETATM   18  C11 UNL     1      22.778   1.908  51.709  1.00  0.00     0.035 C 
BRANCH  18  19
HETATM   19  C12 UNL     1      22.697   1.907  50.254  1.00  0.00    -0.014 C 
BRANCH  19  20
HETATM   20  C13 UNL     1      23.540   2.796  49.810  1.00  0.00     0.060 C 
BRANCH  20  21
HETATM   21  C14 UNL     1      24.662   3.629  49.478  1.00  0.00    -0.012 C 
HETATM   22  C15 UNL     1      23.751   4.480  48.961  1.00  0.00     0.027 C 
HETATM   23 BR1  UNL     1      26.543   3.654  49.619  1.00  0.00    -0.056 Br
ENDBRANCH  20  21
ENDBRANCH  19  20
ENDBRANCH  18  19
ENDBRANCH   8  18
TORSDOF 9
ENDMDL
MODEL 2
REMARK VINA RESULT:      -6.5      1.839      2.251
REMARK  9 active torsions:
REMARK  status: ('A' for Active; 'I' for Inactive)
REMARK    1  A    between atoms: C2_2  and  S1_3 
REMARK    2  A    between atoms: S1_3  and  N1_6 
REMARK    3  A    between atoms: N1_6  and  C3_7 
REMARK    4  A    between atoms: C3_7  and  C4_8 
REMARK    5  A    between atoms: C4_8  and  C5_9 
REMARK    6  A    between atoms: C10_16  and  C11_17 
REMARK    7  A    between atoms: C11_17  and  C12_18 
REMARK    8  A    between atoms: C12_18  and  C13_19 
REMARK    9  A    between atoms: C13_19  and  C14_20 
ROOT
HETATM    1  C5  UNL     1      23.555   1.226  52.799  1.00  0.00     0.032 A 
HETATM    2  C6  UNL     1      22.076   0.830  53.220  1.00  0.00     0.242 A 
HETATM    3  C7  UNL     1      21.485   0.083  53.999  1.00  0.00     0.178 A 
HETATM    4  C8  UNL     1      21.529   0.209  52.467  1.00  0.00     0.318 A 
HETATM    5  N2  UNL     1      21.383   1.767  52.206  1.00  0.00     0.033 N 
HETATM    6  C9  UNL     1      19.898   1.484  52.517  1.00  0.00     0.305 A 
HETATM    7  N3  UNL     1      20.608   0.823  53.225  1.00  0.00    -0.322 N 
HETATM    8  C10 UNL     1      22.706   2.013  51.934  1.00  0.00     0.156 A 
ENDROOT
BRANCH   1   9
HETATM    9  C4  UNL     1      24.842   1.074  53.017  1.00  0.00     0.002 C 
BRANCH   9  10
HETATM   10  C3  UNL     1      25.466  -0.253  53.134  1.00  0.00     0.132 C 
BRANCH  10  11
HETATM   11  N1  UNL     1      26.793  -0.314  52.498  1.00  0.00    -0.216 NA
HETATM   12  H4  UNL     1      26.795  -1.193  51.916  1.00  0.00     0.139 HD
BRANCH  11  13
HETATM   13  S1  UNL     1      28.041  -0.340  53.702  1.00  0.00     0.215 S 
HETATM   14  O1  UNL     1      27.363  -0.300  55.044  1.00  0.00    -0.211 OA
HETATM   15  O2  UNL     1      28.888  -1.541  53.551  1.00  0.00    -0.211 OA
BRANCH  13  16
HETATM   16  C2  UNL     1      29.013   1.109  53.567  1.00  0.00     0.144 C 
HETATM   17  C1  UNL     1      28.374   2.290  53.533  1.00  0.00     0.024 C 
ENDBRANCH  13  16
ENDBRANCH  11  13
ENDBRANCH  10  11
ENDBRANCH   9  10
ENDBRANCH   1   9
BRANCH   8  18
HETATM   18  C11 UNL     1      23.166   2.934  50.974  1.00  0.00     0.035 C 
BRANCH  18  19
HETATM   19  C12 UNL     1      23.569   2.870  49.574  1.00  0.00    -0.014 C 
BRANCH  19  20
HETATM   20  C13 UNL     1      24.780   3.344  49.490  1.00  0.00     0.060 C 
BRANCH  20  21
HETATM   21  C14 UNL     1      25.989   4.118  49.455  1.00  0.00    -0.012 C 
HETATM   22  C15 UNL     1      26.562   3.069  50.083  1.00  0.00     0.027 C 
HETATM   23 BR1  UNL     1      26.622   5.795  48.866  1.00  0.00    -0.056 Br
ENDBRANCH  20  21
ENDBRANCH  19  20
ENDBRANCH  18  19
ENDBRANCH   8  18
TORSDOF 9
ENDMDL
MODEL 3
REMARK VINA RESULT:      -6.4      3.422      5.752
REMARK  9 active torsions:
REMARK  status: ('A' for Active; 'I' for Inactive)
REMARK    1  A    between atoms: C2_2  and  S1_3 
REMARK    2  A    between atoms: S1_3  and  N1_6 
REMARK    3  A    between atoms: N1_6  and  C3_7 
REMARK    4  A    between atoms: C3_7  and  C4_8 
REMARK    5  A    between atoms: C4_8  and  C5_9 
REMARK    6  A    between atoms: C10_16  and  C11_17 
REMARK    7  A    between atoms: C11_17  and  C12_18 
REMARK    8  A    between atoms: C12_18  and  C13_19 
REMARK    9  A    between atoms: C13_19  and  C14_20 
ROOT
HETATM    1  C5  UNL     1      25.702   1.920  53.499  1.00  0.00     0.032 A 
HETATM    2  C6  UNL     1      27.278   1.749  53.596  1.00  0.00     0.242 A 
HETATM    3  C7  UNL     1      28.301   2.433  53.630  1.00  0.00     0.178 A 
HETATM    4  C8  UNL     1      27.763   1.363  52.664  1.00  0.00     0.318 A 
HETATM    5  N2  UNL     1      27.253   0.205  53.622  1.00  0.00     0.033 N 
HETATM    6  C9  UNL     1      28.761  -0.108  53.727  1.00  0.00     0.305 A 
HETATM    7  N3  UNL     1      28.581   1.078  53.689  1.00  0.00    -0.322 N 
HETATM    8  C10 UNL     1      25.914   0.490  53.528  1.00  0.00     0.156 A 
ENDROOT
BRANCH   1   9
HETATM    9  C4  UNL     1      24.683   2.747  53.455  1.00  0.00     0.002 C 
BRANCH   9  10
HETATM   10  C3  UNL     1      24.097   3.204  52.185  1.00  0.00     0.132 C 
BRANCH  10  11
HETATM   11  N1  UNL     1      24.225   4.659  51.992  1.00  0.00    -0.216 NA
HETATM   12  H4  UNL     1      23.299   5.072  52.283  1.00  0.00     0.139 HD
BRANCH  11  13
HETATM   13  S1  UNL     1      24.596   5.020  50.338  1.00  0.00     0.215 S 
HETATM   14  O1  UNL     1      23.292   5.296  49.640  1.00  0.00    -0.211 OA
HETATM   15  O2  UNL     1      25.519   6.170  50.248  1.00  0.00    -0.211 OA
BRANCH  13  16
HETATM   16  C2  UNL     1      25.306   3.612  49.577  1.00  0.00     0.144 C 
HETATM   17  C1  UNL     1      26.645   3.529  49.541  1.00  0.00     0.024 C 
ENDBRANCH  13  16
ENDBRANCH  11  13
ENDBRANCH  10  11
ENDBRANCH   9  10
ENDBRANCH   1   9
BRANCH   8  18
HETATM   18  C11 UNL     1      24.892  -0.477  53.504  1.00  0.00     0.035 C 
BRANCH  18  19
HETATM   19  C12 UNL     1      23.683  -0.739  54.275  1.00  0.00    -0.014 C 
BRANCH  19  20
HETATM   20  C13 UNL     1      22.662  -0.425  53.530  1.00  0.00     0.060 C 
BRANCH  20  21
HETATM   21  C14 UNL     1      21.629   0.192  52.745  1.00  0.00    -0.012 C 
HETATM   22  C15 UNL     1      21.037   0.474  53.925  1.00  0.00     0.027 C 
HETATM   23 BR1  UNL     1      21.175   0.518  50.943  1.00  0.00    -0.056 Br
ENDBRANCH  20  21
ENDBRANCH  19  20
ENDBRANCH  18  19
ENDBRANCH   8  18
TORSDOF 9
ENDMDL
MODEL 4
REMARK VINA RESULT:      -6.4      2.882      4.591
REMARK  9 active torsions:
REMARK  status: ('A' for Active; 'I' for Inactive)
REMARK    1  A    between atoms: C2_2  and  S1_3 
REMARK    2  A    between atoms: S1_3  and  N1_6 
REMARK    3  A    between atoms: N1_6  and  C3_7 
REMARK    4  A    between atoms: C3_7  and  C4_8 
REMARK    5  A    between atoms: C4_8  and  C5_9 
REMARK    6  A    between atoms: C10_16  and  C11_17 
REMARK    7  A    between atoms: C11_17  and  C12_18 
REMARK    8  A    between atoms: C12_18  and  C13_19 
REMARK    9  A    between atoms: C13_19  and  C14_20 
ROOT
HETATM    1  C5  UNL     1      23.800   2.881  52.298  1.00  0.00     0.032 A 
HETATM    2  C6  UNL     1      23.416   4.282  51.657  1.00  0.00     0.242 A 
HETATM    3  C7  UNL     1      23.623   5.484  51.823  1.00  0.00     0.178 A 
HETATM    4  C8  UNL     1      22.361   4.605  51.843  1.00  0.00     0.318 A 
HETATM    5  N2  UNL     1      22.510   3.691  50.555  1.00  0.00     0.033 N 
HETATM    6  C9  UNL     1      22.061   4.977  49.828  1.00  0.00     0.305 A 
HETATM    7  N3  UNL     1      22.788   5.246  50.744  1.00  0.00    -0.322 N 
HETATM    8  C10 UNL     1      22.912   2.552  51.206  1.00  0.00     0.156 A 
ENDROOT
BRANCH   1   9
HETATM    9  C4  UNL     1      24.497   2.238  53.208  1.00  0.00     0.002 C 
BRANCH   9  10
HETATM   10  C3  UNL     1      25.633   1.370  52.857  1.00  0.00     0.132 C 
BRANCH  10  11
HETATM   11  N1  UNL     1      26.871   1.744  53.563  1.00  0.00    -0.216 NA
HETATM   12  H4  UNL     1      27.526   2.113  52.824  1.00  0.00     0.139 HD
BRANCH  11  13
HETATM   13  S1  UNL     1      27.537   0.370  54.384  1.00  0.00     0.215 S 
HETATM   14  O1  UNL     1      28.700   0.863  55.201  1.00  0.00    -0.211 OA
HETATM   15  O2  UNL     1      26.515  -0.283  55.225  1.00  0.00    -0.211 OA
BRANCH  13  16
HETATM   16  C2  UNL     1      28.170  -0.762  53.208  1.00  0.00     0.144 C 
HETATM   17  C1  UNL     1      29.422  -1.214  53.386  1.00  0.00     0.024 C 
ENDBRANCH  13  16
ENDBRANCH  11  13
ENDBRANCH  10  11
ENDBRANCH   9  10
ENDBRANCH   1   9
BRANCH   8  18
HETATM   18  C11 UNL     1      22.542   1.246  50.834  1.00  0.00     0.035 C 
BRANCH  18  19
HETATM   19  C12 UNL     1      21.391   0.381  51.063  1.00  0.00    -0.014 C 
BRANCH  19  20
HETATM   20  C13 UNL     1      21.380   0.065  52.327  1.00  0.00     0.060 C 
BRANCH  20  21
HETATM   21  C14 UNL     1      21.636  -0.181  53.719  1.00  0.00    -0.012 C 
HETATM   22  C15 UNL     1      20.578   0.625  53.955  1.00  0.00     0.027 C 
HETATM   23 BR1  UNL     1      22.830  -1.130  54.828  1.00  0.00    -0.056 Br
ENDBRANCH  20  21
ENDBRANCH  19  20
ENDBRANCH  18  19
ENDBRANCH   8  18
TORSDOF 9
ENDMDL
MODEL 5
REMARK VINA RESULT:      -6.3      1.965      2.217
REMARK  9 active torsions:
REMARK  status: ('A' for Active; 'I' for Inactive)
REMARK    1  A    between atoms: C2_2  and  S1_3 
REMARK    2  A    between atoms: S1_3  and  N1_6 
REMARK    3  A    between atoms: N1_6  and  C3_7 
REMARK    4  A    between atoms: C3_7  and  C4_8 
REMARK    5  A    between atoms: C4_8  and  C5_9 
REMARK    6  A    between atoms: C10_16  and  C11_17 
REMARK    7  A    between atoms: C11_17  and  C12_18 
REMARK    8  A    between atoms: C12_18  and  C13_19 
REMARK    9  A    between atoms: C13_19  and  C14_20 
ROOT
HETATM    1  C5  UNL     1      23.575   1.179  52.260  1.00  0.00     0.032 A 
HETATM    2  C6  UNL     1      23.596   0.110  53.434  1.00  0.00     0.242 A 
HETATM    3  C7  UNL     1      24.387  -0.623  54.029  1.00  0.00     0.178 A 
HETATM    4  C8  UNL     1      23.132  -0.875  53.175  1.00  0.00     0.318 A 
HETATM    5  N2  UNL     1      22.080   0.181  53.720  1.00  0.00     0.033 N 
HETATM    6  C9  UNL     1      21.955  -0.831  54.879  1.00  0.00     0.305 A 
HETATM    7  N3  UNL     1      23.095  -0.754  54.511  1.00  0.00    -0.322 N 
HETATM    8  C10 UNL     1      22.198   1.078  52.689  1.00  0.00     0.156 A 
ENDROOT
BRANCH   1   9
HETATM    9  C4  UNL     1      24.269   1.868  51.383  1.00  0.00     0.002 C 
BRANCH   9  10
HETATM   10  C3  UNL     1      25.601   2.412  51.691  1.00  0.00     0.132 C 
BRANCH  10  11
HETATM   11  N1  UNL     1      26.629   1.363  51.808  1.00  0.00    -0.216 NA
HETATM   12  H4  UNL     1      26.110   0.446  51.788  1.00  0.00     0.139 HD
BRANCH  11  13
HETATM   13  S1  UNL     1      27.528   1.559  53.277  1.00  0.00     0.215 S 
HETATM   14  O1  UNL     1      28.678   2.481  52.975  1.00  0.00    -0.211 OA
HETATM   15  O2  UNL     1      26.666   2.093  54.351  1.00  0.00    -0.211 OA
BRANCH  13  16
HETATM   16  C2  UNL     1      28.210   0.019  53.756  1.00  0.00     0.144 C 
HETATM   17  C1  UNL     1      29.539  -0.136  53.651  1.00  0.00     0.024 C 
ENDBRANCH  13  16
ENDBRANCH  11  13
ENDBRANCH  10  11
ENDBRANCH   9  10
ENDBRANCH   1   9
BRANCH   8  18
HETATM   18  C11 UNL     1      21.131   1.824  52.153  1.00  0.00     0.035 C 
BRANCH  18  19
HETATM   19  C12 UNL     1      20.562   3.147  52.380  1.00  0.00    -0.014 C 
BRANCH  19  20
HETATM   20  C13 UNL     1      21.192   3.986  51.608  1.00  0.00     0.060 C 
BRANCH  20  21
HETATM   21  C14 UNL     1      22.069   4.692  50.717  1.00  0.00    -0.012 C 
HETATM   22  C15 UNL     1      22.547   5.298  51.825  1.00  0.00     0.027 C 
HETATM   23 BR1  UNL     1      22.468   4.826  48.878  1.00  0.00    -0.056 Br
ENDBRANCH  20  21
ENDBRANCH  19  20
ENDBRANCH  18  19
ENDBRANCH   8  18
TORSDOF 9
ENDMDL
MODEL 6
REMARK VINA RESULT:      -6.2      4.416      6.676
REMARK  9 active torsions:
REMARK  status: ('A' for Active; 'I' for Inactive)
REMARK    1  A    between atoms: C2_2  and  S1_3 
REMARK    2  A    between atoms: S1_3  and  N1_6 
REMARK    3  A    between atoms: N1_6  and  C3_7 
REMARK    4  A    between atoms: C3_7  and  C4_8 
REMARK    5  A    between atoms: C4_8  and  C5_9 
REMARK    6  A    between atoms: C10_16  and  C11_17 
REMARK    7  A    between atoms: C11_17  and  C12_18 
REMARK    8  A    between atoms: C12_18  and  C13_19 
REMARK    9  A    between atoms: C13_19  and  C14_20 
ROOT
HETATM    1  C5  UNL     1      26.065   4.802  49.580  1.00  0.00     0.032 A 
HETATM    2  C6  UNL     1      25.154   5.969  50.152  1.00  0.00     0.242 A 
HETATM    3  C7  UNL     1      24.172   6.132  50.877  1.00  0.00     0.178 A 
HETATM    4  C8  UNL     1      24.470   6.437  49.399  1.00  0.00     0.318 A 
HETATM    5  N2  UNL     1      25.908   7.107  49.428  1.00  0.00     0.033 N 
HETATM    6  C9  UNL     1      25.112   8.337  49.914  1.00  0.00     0.305 A 
HETATM    7  N3  UNL     1      24.655   7.331  50.382  1.00  0.00    -0.322 N 
HETATM    8  C10 UNL     1      26.610   6.009  49.000  1.00  0.00     0.156 A 
ENDROOT
BRANCH   1   9
HETATM    9  C4  UNL     1      26.331   3.515  49.568  1.00  0.00     0.002 C 
BRANCH   9  10
HETATM   10  C3  UNL     1      26.264   2.689  50.784  1.00  0.00     0.132 C 
BRANCH  10  11
HETATM   11  N1  UNL     1      27.411   2.908  51.682  1.00  0.00    -0.216 NA
HETATM   12  H4  UNL     1      28.266   2.903  51.065  1.00  0.00     0.139 HD
BRANCH  11  13
HETATM   13  S1  UNL     1      27.482   1.665  52.888  1.00  0.00     0.215 S 
HETATM   14  O1  UNL     1      28.936   1.409  53.177  1.00  0.00    -0.211 OA
HETATM   15  O2  UNL     1      26.746   2.071  54.102  1.00  0.00    -0.211 OA
BRANCH  13  16
HETATM   16  C2  UNL     1      26.812   0.183  52.239  1.00  0.00     0.144 C 
HETATM   17  C1  UNL     1      25.807  -0.397  52.915  1.00  0.00     0.024 C 
ENDBRANCH  13  16
ENDBRANCH  11  13
ENDBRANCH  10  11
ENDBRANCH   9  10
ENDBRANCH   1   9
BRANCH   8  18
HETATM   18  C11 UNL     1      27.729   6.059  48.148  1.00  0.00     0.035 C 
BRANCH  18  19
HETATM   19  C12 UNL     1      29.004   6.765  48.138  1.00  0.00    -0.014 C 
BRANCH  19  20
HETATM   20  C13 UNL     1      29.947   5.878  47.993  1.00  0.00     0.060 C 
BRANCH  20  21
HETATM   21  C14 UNL     1      31.163   5.120  47.891  1.00  0.00    -0.012 C 
HETATM   22  C15 UNL     1      31.568   5.811  48.979  1.00  0.00     0.027 C 
HETATM   23 BR1  UNL     1      31.957   3.789  46.816  1.00  0.00    -0.056 Br
ENDBRANCH  20  21
ENDBRANCH  19  20
ENDBRANCH  18  19
ENDBRANCH   8  18
TORSDOF 9
ENDMDL
MODEL 7
REMARK VINA RESULT:      -6.2      3.781      5.309
REMARK  9 active torsions:
REMARK  status: ('A' for Active; 'I' for Inactive)
REMARK    1  A    between atoms: C2_2  and  S1_3 
REMARK    2  A    between atoms: S1_3  and  N1_6 
REMARK    3  A    between atoms: N1_6  and  C3_7 
REMARK    4  A    between atoms: C3_7  and  C4_8 
REMARK    5  A    between atoms: C4_8  and  C5_9 
REMARK    6  A    between atoms: C10_16  and  C11_17 
REMARK    7  A    between atoms: C11_17  and  C12_18 
REMARK    8  A    between atoms: C12_18  and  C13_19 
REMARK    9  A    between atoms: C13_19  and  C14_20 
ROOT
HETATM    1  C5  UNL     1      24.853   1.863  52.885  1.00  0.00     0.032 A 
HETATM    2  C6  UNL     1      25.202   0.361  53.263  1.00  0.00     0.242 A 
HETATM    3  C7  UNL     1      24.789  -0.553  53.977  1.00  0.00     0.178 A 
HETATM    4  C8  UNL     1      26.105   0.242  53.914  1.00  0.00     0.318 A 
HETATM    5  N2  UNL     1      26.458   0.276  52.367  1.00  0.00     0.033 N 
HETATM    6  C9  UNL     1      26.908  -1.176  52.636  1.00  0.00     0.305 A 
HETATM    7  N3  UNL     1      25.920  -0.920  53.268  1.00  0.00    -0.322 N 
HETATM    8  C10 UNL     1      26.052   1.565  52.134  1.00  0.00     0.156 A 
ENDROOT
BRANCH   1   9
HETATM    9  C4  UNL     1      24.025   2.873  53.029  1.00  0.00     0.002 C 
BRANCH   9  10
HETATM   10  C3  UNL     1      22.795   2.998  52.232  1.00  0.00     0.132 C 
BRANCH  10  11
HETATM   11  N1  UNL     1      22.281   1.695  51.774  1.00  0.00    -0.216 NA
HETATM   12  H4  UNL     1      22.151   1.786  50.731  1.00  0.00     0.139 HD
BRANCH  11  13
HETATM   13  S1  UNL     1      20.792   1.315  52.576  1.00  0.00     0.215 S 
HETATM   14  O1  UNL     1      20.123   2.621  52.911  1.00  0.00    -0.211 OA
HETATM   15  O2  UNL     1      19.939   0.466  51.721  1.00  0.00    -0.211 OA
BRANCH  13  16
HETATM   16  C2  UNL     1      21.134   0.503  54.089  1.00  0.00     0.144 C 
HETATM   17  C1  UNL     1      21.108  -0.839  54.098  1.00  0.00     0.024 C 
ENDBRANCH  13  16
ENDBRANCH  11  13
ENDBRANCH  10  11
ENDBRANCH   9  10
ENDBRANCH   1   9
BRANCH   8  18
HETATM   18  C11 UNL     1      26.693   2.457  51.253  1.00  0.00     0.035 C 
BRANCH  18  19
HETATM   19  C12 UNL     1      26.462   2.932  49.895  1.00  0.00    -0.014 C 
BRANCH  19  20
HETATM   20  C13 UNL     1      25.968   4.135  49.974  1.00  0.00     0.060 C 
BRANCH  20  21
HETATM   21  C14 UNL     1      25.268   5.381  49.833  1.00  0.00    -0.012 C 
HETATM   22  C15 UNL     1      24.344   4.671  49.151  1.00  0.00     0.027 C 
HETATM   23 BR1  UNL     1      25.434   7.200  50.304  1.00  0.00    -0.056 Br
ENDBRANCH  20  21
ENDBRANCH  19  20
ENDBRANCH  18  19
ENDBRANCH   8  18
TORSDOF 9
ENDMDL
MODEL 8
REMARK VINA RESULT:      -6.2      2.994      4.771
REMARK  9 active torsions:
REMARK  status: ('A' for Active; 'I' for Inactive)
REMARK    1  A    between atoms: C2_2  and  S1_3 
REMARK    2  A    between atoms: S1_3  and  N1_6 
REMARK    3  A    between atoms: N1_6  and  C3_7 
REMARK    4  A    between atoms: C3_7  and  C4_8 
REMARK    5  A    between atoms: C4_8  and  C5_9 
REMARK    6  A    between atoms: C10_16  and  C11_17 
REMARK    7  A    between atoms: C11_17  and  C12_18 
REMARK    8  A    between atoms: C12_18  and  C13_19 
REMARK    9  A    between atoms: C13_19  and  C14_20 
ROOT
HETATM    1  C5  UNL     1      24.755   4.062  49.899  1.00  0.00     0.032 A 
HETATM    2  C6  UNL     1      23.896   5.230  50.547  1.00  0.00     0.242 A 
HETATM    3  C7  UNL     1      24.032   6.198  51.296  1.00  0.00     0.178 A 
HETATM    4  C8  UNL     1      23.206   4.901  51.364  1.00  0.00     0.318 A 
HETATM    5  N2  UNL     1      22.555   4.786  49.922  1.00  0.00     0.033 N 
HETATM    6  C9  UNL     1      21.604   5.868  50.476  1.00  0.00     0.305 A 
HETATM    7  N3  UNL     1      22.722   6.052  50.870  1.00  0.00    -0.322 N 
HETATM    8  C10 UNL     1      23.406   3.827  49.434  1.00  0.00     0.156 A 
ENDROOT
BRANCH   1   9
HETATM    9  C4  UNL     1      25.943   3.525  49.739  1.00  0.00     0.002 C 
BRANCH   9  10
HETATM   10  C3  UNL     1      26.482   2.523  50.673  1.00  0.00     0.132 C 
BRANCH  10  11
HETATM   11  N1  UNL     1      26.335   2.925  52.083  1.00  0.00    -0.216 NA
HETATM   12  H4  UNL     1      26.641   3.933  52.129  1.00  0.00     0.139 HD
BRANCH  11  13
HETATM   13  S1  UNL     1      27.303   1.913  53.105  1.00  0.00     0.215 S 
HETATM   14  O1  UNL     1      28.701   2.469  53.083  1.00  0.00    -0.211 OA
HETATM   15  O2  UNL     1      26.751   1.873  54.474  1.00  0.00    -0.211 OA
BRANCH  13  16
HETATM   16  C2  UNL     1      27.374   0.299  52.431  1.00  0.00     0.144 C 
HETATM   17  C1  UNL     1      26.430  -0.578  52.808  1.00  0.00     0.024 C 
ENDBRANCH  13  16
ENDBRANCH  11  13
ENDBRANCH  10  11
ENDBRANCH   9  10
ENDBRANCH   1   9
BRANCH   8  18
HETATM   18  C11 UNL     1      23.024   2.784  48.569  1.00  0.00     0.035 C 
BRANCH  18  19
HETATM   19  C12 UNL     1      22.023   1.725  48.588  1.00  0.00    -0.014 C 
BRANCH  19  20
HETATM   20  C13 UNL     1      21.902   1.316  49.819  1.00  0.00     0.060 C 
BRANCH  20  21
HETATM   21  C14 UNL     1      22.010   1.019  51.220  1.00  0.00    -0.012 C 
HETATM   22  C15 UNL     1      20.827   0.384  51.075  1.00  0.00     0.027 C 
HETATM   23 BR1  UNL     1      23.166   1.313  52.681  1.00  0.00    -0.056 Br
ENDBRANCH  20  21
ENDBRANCH  19  20
ENDBRANCH  18  19
ENDBRANCH   8  18
TORSDOF 9
ENDMDL
MODEL 9
REMARK VINA RESULT:      -6.2      2.874      4.069
REMARK  9 active torsions:
REMARK  status: ('A' for Active; 'I' for Inactive)
REMARK    1  A    between atoms: C2_2  and  S1_3 
REMARK    2  A    between atoms: S1_3  and  N1_6 
REMARK    3  A    between atoms: N1_6  and  C3_7 
REMARK    4  A    between atoms: C3_7  and  C4_8 
REMARK    5  A    between atoms: C4_8  and  C5_9 
REMARK    6  A    between atoms: C10_16  and  C11_17 
REMARK    7  A    between atoms: C11_17  and  C12_18 
REMARK    8  A    between atoms: C12_18  and  C13_19 
REMARK    9  A    between atoms: C13_19  and  C14_20 
ROOT
HETATM    1  C5  UNL     1      23.740   2.699  51.652  1.00  0.00     0.032 A 
HETATM    2  C6  UNL     1      22.595   3.795  51.557  1.00  0.00     0.242 A 
HETATM    3  C7  UNL     1      21.599   4.176  52.173  1.00  0.00     0.178 A 
HETATM    4  C8  UNL     1      21.829   3.601  50.765  1.00  0.00     0.318 A 
HETATM    5  N2  UNL     1      23.087   4.401  50.224  1.00  0.00     0.033 N 
HETATM    6  C9  UNL     1      22.043   5.517  50.009  1.00  0.00     0.305 A 
HETATM    7  N3  UNL     1      21.812   4.918  51.023  1.00  0.00    -0.322 N 
HETATM    8  C10 UNL     1      24.012   3.407  50.421  1.00  0.00     0.156 A 
ENDROOT
BRANCH   1   9
HETATM    9  C4  UNL     1      24.277   1.723  52.348  1.00  0.00     0.002 C 
BRANCH   9  10
HETATM   10  C3  UNL     1      25.463   1.926  53.195  1.00  0.00     0.132 C 
BRANCH  10  11
HETATM   11  N1  UNL     1      26.629   1.151  52.734  1.00  0.00    -0.216 NA
HETATM   12  H4  UNL     1      26.290   0.579  51.915  1.00  0.00     0.139 HD
BRANCH  11  13
HETATM   13  S1  UNL     1      27.232   0.146  54.011  1.00  0.00     0.215 S 
HETATM   14  O1  UNL     1      26.746   0.737  55.307  1.00  0.00    -0.211 OA
HETATM   15  O2  UNL     1      26.775  -1.248  53.840  1.00  0.00    -0.211 OA
BRANCH  13  16
HETATM   16  C2  UNL     1      28.981   0.214  54.032  1.00  0.00     0.144 C 
HETATM   17  C1  UNL     1      29.653  -0.871  53.614  1.00  0.00     0.024 C 
ENDBRANCH  13  16
ENDBRANCH  11  13
ENDBRANCH  10  11
ENDBRANCH   9  10
ENDBRANCH   1   9
BRANCH   8  18
HETATM   18  C11 UNL     1      25.097   3.143  49.564  1.00  0.00     0.035 C 
BRANCH  18  19
HETATM   19  C12 UNL     1      26.550   3.169  49.678  1.00  0.00    -0.014 C 
BRANCH  19  20
HETATM   20  C13 UNL     1      26.971   4.271  49.124  1.00  0.00     0.060 C 
BRANCH  20  21
HETATM   21  C14 UNL     1      27.689   5.409  48.624  1.00  0.00    -0.012 C 
HETATM   22  C15 UNL     1      26.515   6.069  48.719  1.00  0.00     0.027 C 
HETATM   23 BR1  UNL     1      29.421   5.898  48.058  1.00  0.00    -0.056 Br
ENDBRANCH  20  21
ENDBRANCH  19  20
ENDBRANCH  18  19
ENDBRANCH   8  18
TORSDOF 9
ENDMDL
