MODEL 1
REMARK VINA RESULT:      -7.4      0.000      0.000
REMARK  9 active torsions:
REMARK  status: ('A' for Active; 'I' for Inactive)
REMARK    1  A    between atoms: O1_2  and  C2_3 
REMARK    2  A    between atoms: C2_3  and  C3_4 
REMARK    3  A    between atoms: C3_4  and  N1_5 
REMARK    4  A    between atoms: N1_5  and  C5_7 
REMARK    5  A    between atoms: C5_7  and  C6_8 
REMARK    6  A    between atoms: C6_8  and  O2_9 
REMARK    7  A    between atoms: C8_11  and  C9_12 
REMARK    8  A    between atoms: C11_14  and  N2_15 
REMARK    9  A    between atoms: N2_15  and  C12_16 
ROOT
HETATM    1  C9  UNL     1      26.364   4.405  49.323  1.00  0.00     0.062 A 
HETATM    2  C10 UNL     1      26.675   3.436  50.248  1.00  0.00     0.082 A 
HETATM    3  C11 UNL     1      25.653   2.808  50.934  1.00  0.00     0.131 A 
HETATM    4  N3  UNL     1      24.375   3.167  50.675  1.00  0.00    -0.224 NA
HETATM    5  C18 UNL     1      24.062   4.119  49.769  1.00  0.00     0.235 A 
HETATM    6  N4  UNL     1      25.088   4.720  49.108  1.00  0.00    -0.242 NA
ENDROOT
BRANCH   1   7
HETATM    7  C8  UNL     1      27.457   5.046  48.602  1.00  0.00     0.045 C 
HETATM    8  C7  UNL     1      27.571   6.381  48.599  1.00  0.00    -0.012 A 
HETATM    9  O2  UNL     1      28.316   7.431  48.141  1.00  0.00     0.000 OA
HETATM   10  O3  UNL     1      27.183   7.663  48.944  1.00  0.00     0.000 OA
HETATM   11  C19 UNL     1      26.369   8.033  50.017  1.00  0.00     0.000 C 
BRANCH   9  12
HETATM   12  C6  UNL     1      29.107   7.370  46.985  1.00  0.00     0.032 C 
BRANCH  12  13
HETATM   13  C5  UNL     1      30.265   8.329  47.227  1.00  0.00     0.272 C 
BRANCH  13  14
HETATM   14  N1  UNL     1      30.672   8.143  48.599  1.00  0.00     0.086 N 
HETATM   15  C4  UNL     1      30.801   9.344  49.364  1.00  0.00     0.310 C 
BRANCH  14  16
HETATM   16  C3  UNL     1      31.806   7.257  48.740  1.00  0.00     0.297 C 
BRANCH  16  17
HETATM   17  C2  UNL     1      31.452   5.956  49.400  1.00  0.00     0.197 C 
BRANCH  17  18
HETATM   18  O1  UNL     1      32.052   4.897  48.755  1.00  0.00    -0.394 OA
HETATM   19  C1  UNL     1      31.539   4.597  47.522  1.00  0.00     0.201 C 
ENDBRANCH  17  18
ENDBRANCH  16  17
ENDBRANCH  14  16
ENDBRANCH  13  14
ENDBRANCH  12  13
ENDBRANCH   9  12
ENDBRANCH   1   7
BRANCH   3  20
HETATM   20  N2  UNL     1      25.728   1.797  51.926  1.00  0.00    -0.341 N 
HETATM   21  H17 UNL     1      24.749   1.563  52.216  1.00  0.00     0.167 HD
BRANCH  20  22
HETATM   22  C12 UNL     1      26.841   1.152  52.495  1.00  0.00     0.035 A 
HETATM   23  C13 UNL     1      27.830   1.878  53.085  1.00  0.00     0.032 A 
HETATM   24  C14 UNL     1      28.920   1.197  53.627  1.00  0.00     0.046 A 
HETATM   25  C15 UNL     1      28.930  -0.199  53.534  1.00  0.00     0.138 A 
HETATM   26  F1  UNL     1      29.987  -0.863  54.060  1.00  0.00    -0.204 F 
HETATM   27  C16 UNL     1      27.902  -0.925  52.925  1.00  0.00     0.074 A 
HETATM   28 CL1  UNL     1      27.953  -2.676  52.824  1.00  0.00    -0.081 Cl
HETATM   29  C17 UNL     1      26.832  -0.226  52.394  1.00  0.00     0.056 A 
ENDBRANCH  20  22
ENDBRANCH   3  20
TORSDOF 9
ENDMDL
MODEL 2
REMARK VINA RESULT:      -7.0      1.376      2.299
REMARK  9 active torsions:
REMARK  status: ('A' for Active; 'I' for Inactive)
REMARK    1  A    between atoms: O1_2  and  C2_3 
REMARK    2  A    between atoms: C2_3  and  C3_4 
REMARK    3  A    between atoms: C3_4  and  N1_5 
REMARK    4  A    between atoms: N1_5  and  C5_7 
REMARK    5  A    between atoms: C5_7  and  C6_8 
REMARK    6  A    between atoms: C6_8  and  O2_9 
REMARK    7  A    between atoms: C8_11  and  C9_12 
REMARK    8  A    between atoms: C11_14  and  N2_15 
REMARK    9  A    between atoms: N2_15  and  C12_16 
ROOT
HETATM    1  C9  UNL     1      26.163   3.905  49.562  1.00  0.00     0.062 A 
HETATM    2  C10 UNL     1      26.608   3.143  50.617  1.00  0.00     0.082 A 
HETATM    3  C11 UNL     1      25.704   2.363  51.311  1.00  0.00     0.131 A 
HETATM    4  N3  UNL     1      24.406   2.372  50.932  1.00  0.00    -0.224 NA
HETATM    5  C18 UNL     1      23.962   3.119  49.898  1.00  0.00     0.235 A 
HETATM    6  N4  UNL     1      24.873   3.878  49.232  1.00  0.00    -0.242 NA
ENDROOT
BRANCH   1   7
HETATM    7  C8  UNL     1      27.136   4.713  48.836  1.00  0.00     0.045 C 
HETATM    8  C7  UNL     1      27.064   6.050  48.871  1.00  0.00    -0.012 A 
HETATM    9  O2  UNL     1      27.642   7.205  48.427  1.00  0.00     0.000 OA
HETATM   10  O3  UNL     1      26.509   7.255  49.263  1.00  0.00     0.000 OA
HETATM   11  C19 UNL     1      25.682   7.478  50.365  1.00  0.00     0.000 C 
BRANCH   9  12
HETATM   12  C6  UNL     1      28.402   7.287  47.252  1.00  0.00     0.032 C 
BRANCH  12  13
HETATM   13  C5  UNL     1      29.809   6.850  47.640  1.00  0.00     0.272 C 
BRANCH  13  14
HETATM   14  N1  UNL     1      30.580   8.058  47.812  1.00  0.00     0.086 N 
HETATM   15  C4  UNL     1      30.926   8.372  49.164  1.00  0.00     0.310 C 
BRANCH  14  16
HETATM   16  C3  UNL     1      30.037   9.187  47.089  1.00  0.00     0.297 C 
BRANCH  16  17
HETATM   17  C2  UNL     1      30.094  10.465  47.876  1.00  0.00     0.197 C 
BRANCH  17  18
HETATM   18  O1  UNL     1      28.863  11.083  47.900  1.00  0.00    -0.394 OA
HETATM   19  C1  UNL     1      28.031  10.688  48.912  1.00  0.00     0.201 C 
ENDBRANCH  17  18
ENDBRANCH  16  17
ENDBRANCH  14  16
ENDBRANCH  13  14
ENDBRANCH  12  13
ENDBRANCH   9  12
ENDBRANCH   1   7
BRANCH   3  20
HETATM   20  N2  UNL     1      25.925   1.510  52.423  1.00  0.00    -0.341 N 
HETATM   21  H17 UNL     1      25.010   1.395  52.921  1.00  0.00     0.167 HD
BRANCH  20  22
HETATM   22  C12 UNL     1      27.097   0.879  52.876  1.00  0.00     0.035 A 
HETATM   23  C13 UNL     1      28.096   1.608  53.445  1.00  0.00     0.032 A 
HETATM   24  C14 UNL     1      29.245   0.941  53.871  1.00  0.00     0.046 A 
HETATM   25  C15 UNL     1      29.301  -0.445  53.688  1.00  0.00     0.138 A 
HETATM   26  F1  UNL     1      30.416  -1.095  54.100  1.00  0.00    -0.204 F 
HETATM   27  C16 UNL     1      28.262  -1.175  53.102  1.00  0.00     0.074 A 
HETATM   28 CL1  UNL     1      28.373  -2.913  52.885  1.00  0.00    -0.081 Cl
HETATM   29  C17 UNL     1      27.133  -0.490  52.688  1.00  0.00     0.056 A 
ENDBRANCH  20  22
ENDBRANCH   3  20
TORSDOF 9
ENDMDL
MODEL 3
REMARK VINA RESULT:      -6.9      3.666      5.305
REMARK  9 active torsions:
REMARK  status: ('A' for Active; 'I' for Inactive)
REMARK    1  A    between atoms: O1_2  and  C2_3 
REMARK    2  A    between atoms: C2_3  and  C3_4 
REMARK    3  A    between atoms: C3_4  and  N1_5 
REMARK    4  A    between atoms: N1_5  and  C5_7 
REMARK    5  A    between atoms: C5_7  and  C6_8 
REMARK    6  A    between atoms: C6_8  and  O2_9 
REMARK    7  A    between atoms: C8_11  and  C9_12 
REMARK    8  A    between atoms: C11_14  and  N2_15 
REMARK    9  A    between atoms: N2_15  and  C12_16 
ROOT
HETATM    1  C9  UNL     1      22.631   1.788  52.324  1.00  0.00     0.062 A 
HETATM    2  C10 UNL     1      23.779   1.427  52.991  1.00  0.00     0.082 A 
HETATM    3  C11 UNL     1      23.902   0.137  53.467  1.00  0.00     0.131 A 
HETATM    4  N3  UNL     1      22.889  -0.735  53.265  1.00  0.00    -0.224 NA
HETATM    5  C18 UNL     1      21.758  -0.388  52.612  1.00  0.00     0.235 A 
HETATM    6  N4  UNL     1      21.663   0.889  52.152  1.00  0.00    -0.242 NA
ENDROOT
BRANCH   1   7
HETATM    7  C8  UNL     1      22.526   3.151  51.818  1.00  0.00     0.045 C 
HETATM    8  C7  UNL     1      22.396   3.375  50.504  1.00  0.00    -0.012 A 
HETATM    9  O2  UNL     1      22.269   4.344  49.549  1.00  0.00     0.000 OA
HETATM   10  O3  UNL     1      22.291   2.985  49.181  1.00  0.00     0.000 OA
HETATM   11  C19 UNL     1      21.898   1.732  48.704  1.00  0.00     0.000 C 
BRANCH   9  12
HETATM   12  C6  UNL     1      22.727   5.659  49.718  1.00  0.00     0.032 C 
BRANCH  12  13
HETATM   13  C5  UNL     1      23.960   5.781  48.832  1.00  0.00     0.272 C 
BRANCH  13  14
HETATM   14  N1  UNL     1      25.088   5.935  49.719  1.00  0.00     0.086 N 
HETATM   15  C4  UNL     1      25.426   7.287  50.046  1.00  0.00     0.310 C 
BRANCH  14  16
HETATM   16  C3  UNL     1      26.233   5.146  49.323  1.00  0.00     0.297 C 
BRANCH  16  17
HETATM   17  C2  UNL     1      26.051   3.679  49.590  1.00  0.00     0.197 C 
BRANCH  17  18
HETATM   18  O1  UNL     1      26.524   3.344  50.841  1.00  0.00    -0.394 OA
HETATM   19  C1  UNL     1      26.643   2.003  51.080  1.00  0.00     0.201 C 
ENDBRANCH  17  18
ENDBRANCH  16  17
ENDBRANCH  14  16
ENDBRANCH  13  14
ENDBRANCH  12  13
ENDBRANCH   9  12
ENDBRANCH   1   7
BRANCH   3  20
HETATM   20  N2  UNL     1      24.975  -0.455  54.182  1.00  0.00    -0.341 N 
HETATM   21  H17 UNL     1      24.577  -0.899  55.043  1.00  0.00     0.167 HD
BRANCH  20  22
HETATM   22  C12 UNL     1      26.351  -0.505  53.895  1.00  0.00     0.035 A 
HETATM   23  C13 UNL     1      26.872  -1.553  53.199  1.00  0.00     0.032 A 
HETATM   24  C14 UNL     1      28.244  -1.567  52.947  1.00  0.00     0.046 A 
HETATM   25  C15 UNL     1      29.006  -0.494  53.424  1.00  0.00     0.138 A 
HETATM   26  F1  UNL     1      30.339  -0.505  53.181  1.00  0.00    -0.204 F 
HETATM   27  C16 UNL     1      28.450   0.573  54.136  1.00  0.00     0.074 A 
HETATM   28 CL1  UNL     1      29.441   1.897  54.723  1.00  0.00    -0.081 Cl
HETATM   29  C17 UNL     1      27.087   0.562  54.373  1.00  0.00     0.056 A 
ENDBRANCH  20  22
ENDBRANCH   3  20
TORSDOF 9
ENDMDL
MODEL 4
REMARK VINA RESULT:      -6.9      3.703      7.476
REMARK  9 active torsions:
REMARK  status: ('A' for Active; 'I' for Inactive)
REMARK    1  A    between atoms: O1_2  and  C2_3 
REMARK    2  A    between atoms: C2_3  and  C3_4 
REMARK    3  A    between atoms: C3_4  and  N1_5 
REMARK    4  A    between atoms: N1_5  and  C5_7 
REMARK    5  A    between atoms: C5_7  and  C6_8 
REMARK    6  A    between atoms: C6_8  and  O2_9 
REMARK    7  A    between atoms: C8_11  and  C9_12 
REMARK    8  A    between atoms: C11_14  and  N2_15 
REMARK    9  A    between atoms: N2_15  and  C12_16 
ROOT
HETATM    1  C9  UNL     1      26.542   5.010  49.288  1.00  0.00     0.062 A 
HETATM    2  C10 UNL     1      27.734   4.962  48.605  1.00  0.00     0.082 A 
HETATM    3  C11 UNL     1      28.330   6.143  48.208  1.00  0.00     0.131 A 
HETATM    4  N3  UNL     1      27.722   7.313  48.503  1.00  0.00    -0.224 NA
HETATM    5  C18 UNL     1      26.551   7.369  49.174  1.00  0.00     0.235 A 
HETATM    6  N4  UNL     1      25.986   6.191  49.553  1.00  0.00    -0.242 NA
ENDROOT
BRANCH   1   7
HETATM    7  C8  UNL     1      25.936   3.752  49.708  1.00  0.00     0.045 C 
HETATM    8  C7  UNL     1      24.716   3.743  50.262  1.00  0.00    -0.012 A 
HETATM    9  O2  UNL     1      23.745   2.944  50.796  1.00  0.00     0.000 OA
HETATM   10  O3  UNL     1      23.554   4.337  50.718  1.00  0.00     0.000 OA
HETATM   11  C19 UNL     1      23.055   5.590  50.357  1.00  0.00     0.000 C 
BRANCH   9  12
HETATM   12  C6  UNL     1      24.005   1.692  51.371  1.00  0.00     0.032 C 
BRANCH  12  13
HETATM   13  C5  UNL     1      24.526   1.984  52.773  1.00  0.00     0.272 C 
BRANCH  13  14
HETATM   14  N1  UNL     1      25.914   1.591  52.784  1.00  0.00     0.086 N 
HETATM   15  C4  UNL     1      26.246   0.499  51.922  1.00  0.00     0.310 C 
BRANCH  14  16
HETATM   16  C3  UNL     1      26.452   1.442  54.118  1.00  0.00     0.297 C 
BRANCH  16  17
HETATM   17  C2  UNL     1      26.353   0.034  54.633  1.00  0.00     0.197 C 
BRANCH  17  18
HETATM   18  O1  UNL     1      27.559  -0.386  55.149  1.00  0.00    -0.394 OA
HETATM   19  C1  UNL     1      28.641   0.377  54.804  1.00  0.00     0.201 C 
ENDBRANCH  17  18
ENDBRANCH  16  17
ENDBRANCH  14  16
ENDBRANCH  13  14
ENDBRANCH  12  13
ENDBRANCH   9  12
ENDBRANCH   1   7
BRANCH   3  20
HETATM   20  N2  UNL     1      29.540   6.340  47.494  1.00  0.00    -0.341 N 
HETATM   21  H17 UNL     1      29.295   6.739  46.557  1.00  0.00     0.167 HD
BRANCH  20  22
HETATM   22  C12 UNL     1      30.874   6.089  47.863  1.00  0.00     0.035 A 
HETATM   23  C13 UNL     1      31.635   7.075  48.411  1.00  0.00     0.032 A 
HETATM   24  C14 UNL     1      32.956   6.784  48.752  1.00  0.00     0.046 A 
HETATM   25  C15 UNL     1      33.421   5.486  48.511  1.00  0.00     0.138 A 
HETATM   26  F1  UNL     1      34.704   5.201  48.840  1.00  0.00    -0.204 F 
HETATM   27  C16 UNL     1      32.622   4.487  47.948  1.00  0.00     0.074 A 
HETATM   28 CL1  UNL     1      33.244   2.873  47.656  1.00  0.00    -0.081 Cl
HETATM   29  C17 UNL     1      31.315   4.802  47.618  1.00  0.00     0.056 A 
ENDBRANCH  20  22
ENDBRANCH   3  20
TORSDOF 9
ENDMDL
MODEL 5
REMARK VINA RESULT:      -6.7      4.538      8.031
REMARK  9 active torsions:
REMARK  status: ('A' for Active; 'I' for Inactive)
REMARK    1  A    between atoms: O1_2  and  C2_3 
REMARK    2  A    between atoms: C2_3  and  C3_4 
REMARK    3  A    between atoms: C3_4  and  N1_5 
REMARK    4  A    between atoms: N1_5  and  C5_7 
REMARK    5  A    between atoms: C5_7  and  C6_8 
REMARK    6  A    between atoms: C6_8  and  O2_9 
REMARK    7  A    between atoms: C8_11  and  C9_12 
REMARK    8  A    between atoms: C11_14  and  N2_15 
REMARK    9  A    between atoms: N2_15  and  C12_16 
ROOT
HETATM    1  C9  UNL     1      24.730   3.846  51.103  1.00  0.00     0.062 A 
HETATM    2  C10 UNL     1      25.658   4.235  50.165  1.00  0.00     0.082 A 
HETATM    3  C11 UNL     1      25.453   5.406  49.461  1.00  0.00     0.131 A 
HETATM    4  N3  UNL     1      24.343   6.136  49.715  1.00  0.00    -0.224 NA
HETATM    5  C18 UNL     1      23.427   5.760  50.634  1.00  0.00     0.235 A 
HETATM    6  N4  UNL     1      23.654   4.603  51.313  1.00  0.00    -0.242 NA
ENDROOT
BRANCH   1   7
HETATM    7  C8  UNL     1      24.972   2.613  51.843  1.00  0.00     0.045 C 
HETATM    8  C7  UNL     1      24.053   1.638  51.847  1.00  0.00    -0.012 A 
HETATM    9  O2  UNL     1      23.762   0.389  52.317  1.00  0.00     0.000 OA
HETATM   10  O3  UNL     1      22.843   1.069  51.495  1.00  0.00     0.000 OA
HETATM   11  C19 UNL     1      22.038   1.415  50.407  1.00  0.00     0.000 C 
BRANCH   9  12
HETATM   12  C6  UNL     1      24.320  -0.144  53.488  1.00  0.00     0.032 C 
BRANCH  12  13
HETATM   13  C5  UNL     1      25.602  -0.842  53.051  1.00  0.00     0.272 C 
BRANCH  13  14
HETATM   14  N1  UNL     1      26.669  -0.268  53.834  1.00  0.00     0.086 N 
HETATM   15  C4  UNL     1      26.249   0.488  54.974  1.00  0.00     0.310 C 
BRANCH  14  16
HETATM   16  C3  UNL     1      27.657   0.418  53.032  1.00  0.00     0.297 C 
BRANCH  16  17
HETATM   17  C2  UNL     1      28.890   0.781  53.809  1.00  0.00     0.197 C 
BRANCH  17  18
HETATM   18  O1  UNL     1      29.423  -0.327  54.430  1.00  0.00    -0.394 OA
HETATM   19  C1  UNL     1      30.023  -1.232  53.597  1.00  0.00     0.201 C 
ENDBRANCH  17  18
ENDBRANCH  16  17
ENDBRANCH  14  16
ENDBRANCH  13  14
ENDBRANCH  12  13
ENDBRANCH   9  12
ENDBRANCH   1   7
BRANCH   3  20
HETATM   20  N2  UNL     1      26.256   5.998  48.454  1.00  0.00    -0.341 N 
HETATM   21  H17 UNL     1      25.653   6.144  47.610  1.00  0.00     0.167 HD
BRANCH  20  22
HETATM   22  C12 UNL     1      27.614   6.367  48.462  1.00  0.00     0.035 A 
HETATM   23  C13 UNL     1      28.584   5.429  48.283  1.00  0.00     0.032 A 
HETATM   24  C14 UNL     1      29.917   5.838  48.310  1.00  0.00     0.046 A 
HETATM   25  C15 UNL     1      30.179   7.197  48.518  1.00  0.00     0.138 A 
HETATM   26  F1  UNL     1      31.473   7.598  48.544  1.00  0.00    -0.204 F 
HETATM   27  C16 UNL     1      29.166   8.145  48.698  1.00  0.00     0.074 A 
HETATM   28 CL1  UNL     1      29.536   9.840  48.961  1.00  0.00    -0.081 Cl
HETATM   29  C17 UNL     1      27.852   7.713  48.668  1.00  0.00     0.056 A 
ENDBRANCH  20  22
ENDBRANCH   3  20
TORSDOF 9
ENDMDL
MODEL 6
REMARK VINA RESULT:      -6.6      6.166      9.066
REMARK  9 active torsions:
REMARK  status: ('A' for Active; 'I' for Inactive)
REMARK    1  A    between atoms: O1_2  and  C2_3 
REMARK    2  A    between atoms: C2_3  and  C3_4 
REMARK    3  A    between atoms: C3_4  and  N1_5 
REMARK    4  A    between atoms: N1_5  and  C5_7 
REMARK    5  A    between atoms: C5_7  and  C6_8 
REMARK    6  A    between atoms: C6_8  and  O2_9 
REMARK    7  A    between atoms: C8_11  and  C9_12 
REMARK    8  A    between atoms: C11_14  and  N2_15 
REMARK    9  A    between atoms: N2_15  and  C12_16 
ROOT
HETATM    1  C9  UNL     1      21.395   0.135  52.999  1.00  0.00     0.062 A 
HETATM    2  C10 UNL     1      22.729   0.064  52.673  1.00  0.00     0.082 A 
HETATM    3  C11 UNL     1      23.603  -0.551  53.548  1.00  0.00     0.131 A 
HETATM    4  N3  UNL     1      23.120  -1.066  54.701  1.00  0.00    -0.224 NA
HETATM    5  C18 UNL     1      21.811  -1.000  55.028  1.00  0.00     0.235 A 
HETATM    6  N4  UNL     1      20.972  -0.389  54.149  1.00  0.00    -0.242 NA
ENDROOT
BRANCH   1   7
HETATM    7  C8  UNL     1      20.487   0.778  52.056  1.00  0.00     0.045 C 
HETATM    8  C7  UNL     1      19.250   0.297  51.876  1.00  0.00    -0.012 A 
HETATM    9  O2  UNL     1      18.080   0.471  51.192  1.00  0.00     0.000 OA
HETATM   10  O3  UNL     1      18.212  -0.584  52.115  1.00  0.00     0.000 OA
HETATM   11  C19 UNL     1      18.040  -1.391  53.242  1.00  0.00     0.000 C 
BRANCH   9  12
HETATM   12  C6  UNL     1      18.001   1.116  49.949  1.00  0.00     0.032 C 
BRANCH  12  13
HETATM   13  C5  UNL     1      17.625   2.559  50.258  1.00  0.00     0.272 C 
BRANCH  13  14
HETATM   14  N1  UNL     1      18.399   3.385  49.364  1.00  0.00     0.086 N 
HETATM   15  C4  UNL     1      18.282   3.056  47.976  1.00  0.00     0.310 C 
BRANCH  14  16
HETATM   16  C3  UNL     1      19.770   3.557  49.791  1.00  0.00     0.297 C 
BRANCH  16  17
HETATM   17  C2  UNL     1      19.884   4.225  51.131  1.00  0.00     0.197 C 
BRANCH  17  18
HETATM   18  O1  UNL     1      20.959   5.087  51.161  1.00  0.00    -0.394 OA
HETATM   19  C1  UNL     1      21.962   4.741  52.024  1.00  0.00     0.201 C 
ENDBRANCH  17  18
ENDBRANCH  16  17
ENDBRANCH  14  16
ENDBRANCH  13  14
ENDBRANCH  12  13
ENDBRANCH   9  12
ENDBRANCH   1   7
BRANCH   3  20
HETATM   20  N2  UNL     1      25.004  -0.735  53.433  1.00  0.00    -0.341 N 
HETATM   21  H17 UNL     1      25.179  -1.756  53.274  1.00  0.00     0.167 HD
BRANCH  20  22
HETATM   22  C12 UNL     1      26.060   0.192  53.501  1.00  0.00     0.035 A 
HETATM   23  C13 UNL     1      25.801   1.525  53.598  1.00  0.00     0.032 A 
HETATM   24  C14 UNL     1      26.878   2.409  53.653  1.00  0.00     0.046 A 
HETATM   25  C15 UNL     1      28.169   1.869  53.605  1.00  0.00     0.138 A 
HETATM   26  F1  UNL     1      29.218   2.725  53.657  1.00  0.00    -0.204 F 
HETATM   27  C16 UNL     1      28.412   0.495  53.506  1.00  0.00     0.074 A 
HETATM   28 CL1  UNL     1      30.046  -0.142  53.444  1.00  0.00    -0.081 Cl
HETATM   29  C17 UNL     1      27.326  -0.360  53.454  1.00  0.00     0.056 A 
ENDBRANCH  20  22
ENDBRANCH   3  20
TORSDOF 9
ENDMDL
MODEL 7
REMARK VINA RESULT:      -6.5      3.403      4.474
REMARK  9 active torsions:
REMARK  status: ('A' for Active; 'I' for Inactive)
REMARK    1  A    between atoms: O1_2  and  C2_3 
REMARK    2  A    between atoms: C2_3  and  C3_4 
REMARK    3  A    between atoms: C3_4  and  N1_5 
REMARK    4  A    between atoms: N1_5  and  C5_7 
REMARK    5  A    between atoms: C5_7  and  C6_8 
REMARK    6  A    between atoms: C6_8  and  O2_9 
REMARK    7  A    between atoms: C8_11  and  C9_12 
REMARK    8  A    between atoms: C11_14  and  N2_15 
REMARK    9  A    between atoms: N2_15  and  C12_16 
ROOT
HETATM    1  C9  UNL     1      23.012   3.406  49.173  1.00  0.00     0.062 A 
HETATM    2  C10 UNL     1      22.614   3.234  50.478  1.00  0.00     0.082 A 
HETATM    3  C11 UNL     1      21.846   2.134  50.807  1.00  0.00     0.131 A 
HETATM    4  N3  UNL     1      21.507   1.259  49.833  1.00  0.00    -0.224 NA
HETATM    5  C18 UNL     1      21.894   1.422  48.549  1.00  0.00     0.235 A 
HETATM    6  N4  UNL     1      22.650   2.514  48.254  1.00  0.00    -0.242 NA
ENDROOT
BRANCH   1   7
HETATM    7  C8  UNL     1      23.832   4.568  48.850  1.00  0.00     0.045 C 
HETATM    8  C7  UNL     1      25.057   4.696  49.377  1.00  0.00    -0.012 A 
HETATM    9  O2  UNL     1      26.166   5.493  49.429  1.00  0.00     0.000 OA
HETATM   10  O3  UNL     1      26.122   4.290  50.161  1.00  0.00     0.000 OA
HETATM   11  C19 UNL     1      26.394   2.992  50.599  1.00  0.00     0.000 C 
BRANCH   9  12
HETATM   12  C6  UNL     1      26.137   6.873  49.184  1.00  0.00     0.032 C 
BRANCH  12  13
HETATM   13  C5  UNL     1      27.434   7.187  48.449  1.00  0.00     0.272 C 
BRANCH  13  14
HETATM   14  N1  UNL     1      28.066   8.262  49.174  1.00  0.00     0.086 N 
HETATM   15  C4  UNL     1      27.194   9.028  50.011  1.00  0.00     0.310 C 
BRANCH  14  16
HETATM   16  C3  UNL     1      28.920   9.083  48.344  1.00  0.00     0.297 C 
BRANCH  16  17
HETATM   17  C2  UNL     1      29.928   9.864  49.136  1.00  0.00     0.197 C 
BRANCH  17  18
HETATM   18  O1  UNL     1      30.949   9.049  49.574  1.00  0.00    -0.394 OA
HETATM   19  C1  UNL     1      31.774   8.568  48.594  1.00  0.00     0.201 C 
ENDBRANCH  17  18
ENDBRANCH  16  17
ENDBRANCH  14  16
ENDBRANCH  13  14
ENDBRANCH  12  13
ENDBRANCH   9  12
ENDBRANCH   1   7
BRANCH   3  20
HETATM   20  N2  UNL     1      21.319   1.754  52.067  1.00  0.00    -0.341 N 
HETATM   21  H17 UNL     1      20.466   2.336  52.243  1.00  0.00     0.167 HD
BRANCH  20  22
HETATM   22  C12 UNL     1      21.762   0.795  52.996  1.00  0.00     0.035 A 
HETATM   23  C13 UNL     1      20.879   0.188  53.835  1.00  0.00     0.032 A 
HETATM   24  C14 UNL     1      21.365  -0.749  54.747  1.00  0.00     0.046 A 
HETATM   25  C15 UNL     1      22.740  -1.011  54.743  1.00  0.00     0.138 A 
HETATM   26  F1  UNL     1      23.215  -1.920  55.629  1.00  0.00    -0.204 F 
HETATM   27  C16 UNL     1      23.630  -0.376  53.872  1.00  0.00     0.074 A 
HETATM   28 CL1  UNL     1      25.349  -0.729  53.902  1.00  0.00    -0.081 Cl
HETATM   29  C17 UNL     1      23.122   0.549  52.976  1.00  0.00     0.056 A 
ENDBRANCH  20  22
ENDBRANCH   3  20
TORSDOF 9
ENDMDL
MODEL 8
REMARK VINA RESULT:      -6.5      3.721      5.780
REMARK  9 active torsions:
REMARK  status: ('A' for Active; 'I' for Inactive)
REMARK    1  A    between atoms: O1_2  and  C2_3 
REMARK    2  A    between atoms: C2_3  and  C3_4 
REMARK    3  A    between atoms: C3_4  and  N1_5 
REMARK    4  A    between atoms: N1_5  and  C5_7 
REMARK    5  A    between atoms: C5_7  and  C6_8 
REMARK    6  A    between atoms: C6_8  and  O2_9 
REMARK    7  A    between atoms: C8_11  and  C9_12 
REMARK    8  A    between atoms: C11_14  and  N2_15 
REMARK    9  A    between atoms: N2_15  and  C12_16 
ROOT
HETATM    1  C9  UNL     1      22.930   1.944  52.065  1.00  0.00     0.062 A 
HETATM    2  C10 UNL     1      24.086   1.284  52.410  1.00  0.00     0.082 A 
HETATM    3  C11 UNL     1      24.011   0.191  53.251  1.00  0.00     0.131 A 
HETATM    4  N3  UNL     1      22.800  -0.197  53.713  1.00  0.00    -0.224 NA
HETATM    5  C18 UNL     1      21.661   0.447  53.379  1.00  0.00     0.235 A 
HETATM    6  N4  UNL     1      21.764   1.519  52.548  1.00  0.00    -0.242 NA
ENDROOT
BRANCH   1   7
HETATM    7  C8  UNL     1      23.031   3.088  51.166  1.00  0.00     0.045 C 
HETATM    8  C7  UNL     1      22.506   3.026  49.935  1.00  0.00    -0.012 A 
HETATM    9  O2  UNL     1      22.318   3.718  48.772  1.00  0.00     0.000 OA
HETATM   10  O3  UNL     1      21.831   2.403  48.901  1.00  0.00     0.000 OA
HETATM   11  C19 UNL     1      20.965   1.312  49.002  1.00  0.00     0.000 C 
BRANCH   9  12
HETATM   12  C6  UNL     1      23.149   4.768  48.355  1.00  0.00     0.032 C 
BRANCH  12  13
HETATM   13  C5  UNL     1      22.329   6.039  48.538  1.00  0.00     0.272 C 
BRANCH  13  14
HETATM   14  N1  UNL     1      22.644   6.544  49.853  1.00  0.00     0.086 N 
HETATM   15  C4  UNL     1      21.520   6.977  50.624  1.00  0.00     0.310 C 
BRANCH  14  16
HETATM   16  C3  UNL     1      23.730   7.499  49.849  1.00  0.00     0.297 C 
BRANCH  16  17
HETATM   17  C2  UNL     1      24.840   7.124  50.788  1.00  0.00     0.197 C 
BRANCH  17  18
HETATM   18  O1  UNL     1      26.070   7.360  50.215  1.00  0.00    -0.394 OA
HETATM   19  C1  UNL     1      26.264   6.784  48.989  1.00  0.00     0.201 C 
ENDBRANCH  17  18
ENDBRANCH  16  17
ENDBRANCH  14  16
ENDBRANCH  13  14
ENDBRANCH  12  13
ENDBRANCH   9  12
ENDBRANCH   1   7
BRANCH   3  20
HETATM   20  N2  UNL     1      25.054  -0.633  53.746  1.00  0.00    -0.341 N 
HETATM   21  H17 UNL     1      24.614  -1.404  54.302  1.00  0.00     0.167 HD
BRANCH  20  22
HETATM   22  C12 UNL     1      26.449  -0.539  53.589  1.00  0.00     0.035 A 
HETATM   23  C13 UNL     1      27.170  -1.618  53.178  1.00  0.00     0.032 A 
HETATM   24  C14 UNL     1      28.552  -1.482  53.047  1.00  0.00     0.046 A 
HETATM   25  C15 UNL     1      29.118  -0.237  53.346  1.00  0.00     0.138 A 
HETATM   26  F1  UNL     1      30.460  -0.103  53.220  1.00  0.00    -0.204 F 
HETATM   27  C16 UNL     1      28.357   0.858  53.766  1.00  0.00     0.074 A 
HETATM   28 CL1  UNL     1      29.105   2.402  54.137  1.00  0.00    -0.081 Cl
HETATM   29  C17 UNL     1      26.988   0.698  53.889  1.00  0.00     0.056 A 
ENDBRANCH  20  22
ENDBRANCH   3  20
TORSDOF 9
ENDMDL
MODEL 9
REMARK VINA RESULT:      -6.4      2.082      2.531
REMARK  9 active torsions:
REMARK  status: ('A' for Active; 'I' for Inactive)
REMARK    1  A    between atoms: O1_2  and  C2_3 
REMARK    2  A    between atoms: C2_3  and  C3_4 
REMARK    3  A    between atoms: C3_4  and  N1_5 
REMARK    4  A    between atoms: N1_5  and  C5_7 
REMARK    5  A    between atoms: C5_7  and  C6_8 
REMARK    6  A    between atoms: C6_8  and  O2_9 
REMARK    7  A    between atoms: C8_11  and  C9_12 
REMARK    8  A    between atoms: C11_14  and  N2_15 
REMARK    9  A    between atoms: N2_15  and  C12_16 
ROOT
HETATM    1  C9  UNL     1      26.040   5.598  49.418  1.00  0.00     0.062 A 
HETATM    2  C10 UNL     1      25.690   4.279  49.590  1.00  0.00     0.082 A 
HETATM    3  C11 UNL     1      24.587   3.972  50.363  1.00  0.00     0.131 A 
HETATM    4  N3  UNL     1      23.885   4.978  50.930  1.00  0.00    -0.224 NA
HETATM    5  C18 UNL     1      24.223   6.276  50.766  1.00  0.00     0.235 A 
HETATM    6  N4  UNL     1      25.313   6.550  50.000  1.00  0.00    -0.242 NA
ENDROOT
BRANCH   1   7
HETATM    7  C8  UNL     1      27.200   5.901  48.588  1.00  0.00     0.045 C 
HETATM    8  C7  UNL     1      27.722   7.135  48.584  1.00  0.00    -0.012 A 
HETATM    9  O2  UNL     1      28.706   7.922  48.056  1.00  0.00     0.000 OA
HETATM   10  O3  UNL     1      27.787   8.458  48.979  1.00  0.00     0.000 OA
HETATM   11  C19 UNL     1      27.241   9.016  50.137  1.00  0.00     0.000 C 
BRANCH   9  12
HETATM   12  C6  UNL     1      29.318   7.669  46.820  1.00  0.00     0.032 C 
BRANCH  12  13
HETATM   13  C5  UNL     1      30.817   7.713  47.087  1.00  0.00     0.272 C 
BRANCH  13  14
HETATM   14  N1  UNL     1      31.037   6.983  48.313  1.00  0.00     0.086 N 
HETATM   15  C4  UNL     1      31.992   7.565  49.205  1.00  0.00     0.310 C 
BRANCH  14  16
HETATM   16  C3  UNL     1      31.248   5.568  48.102  1.00  0.00     0.297 C 
BRANCH  16  17
HETATM   17  C2  UNL     1      32.491   5.275  47.312  1.00  0.00     0.197 C 
BRANCH  17  18
HETATM   18  O1  UNL     1      33.383   4.533  48.056  1.00  0.00    -0.394 OA
HETATM   19  C1  UNL     1      34.688   4.937  47.977  1.00  0.00     0.201 C 
ENDBRANCH  17  18
ENDBRANCH  16  17
ENDBRANCH  14  16
ENDBRANCH  13  14
ENDBRANCH  12  13
ENDBRANCH   9  12
ENDBRANCH   1   7
BRANCH   3  20
HETATM   20  N2  UNL     1      24.045   2.701  50.685  1.00  0.00    -0.341 N 
HETATM   21  H17 UNL     1      23.185   2.566  50.102  1.00  0.00     0.167 HD
BRANCH  20  22
HETATM   22  C12 UNL     1      24.482   1.721  51.594  1.00  0.00     0.035 A 
HETATM   23  C13 UNL     1      25.807   1.428  51.707  1.00  0.00     0.032 A 
HETATM   24  C14 UNL     1      26.195   0.442  52.613  1.00  0.00     0.046 A 
HETATM   25  C15 UNL     1      25.192  -0.191  53.358  1.00  0.00     0.138 A 
HETATM   26  F1  UNL     1      25.566  -1.150  54.238  1.00  0.00    -0.204 F 
HETATM   27  C16 UNL     1      23.837   0.126  53.226  1.00  0.00     0.074 A 
HETATM   28 CL1  UNL     1      22.609  -0.694  54.175  1.00  0.00    -0.081 Cl
HETATM   29  C17 UNL     1      23.479   1.109  52.320  1.00  0.00     0.056 A 
ENDBRANCH  20  22
ENDBRANCH   3  20
TORSDOF 9
ENDMDL
