MODEL 1
REMARK VINA RESULT:      -7.8      0.000      0.000
REMARK  5 active torsions:
REMARK  status: ('A' for Active; 'I' for Inactive)
REMARK    1  A    between atoms: O1_2  and  C2_3 
REMARK    2  A    between atoms: C2_3  and  C3_4 
REMARK    3  A    between atoms: C3_4  and  O2_5 
REMARK    4  A    between atoms: O2_5  and  C4_6 
REMARK    5  A    between atoms: C13_19  and  N3_20 
ROOT
HETATM    1  C4  UNL     1      24.847   0.941  53.573  1.00  0.00     0.102 A 
HETATM    2  C5  UNL     1      25.279   2.236  53.414  1.00  0.00     0.040 A 
HETATM    3  C6  UNL     1      24.613   3.089  52.556  1.00  0.00     0.018 A 
HETATM    4  C7  UNL     1      23.543   2.568  51.905  1.00  0.00     0.013 A 
HETATM    5  C8  UNL     1      23.072   1.284  52.014  1.00  0.00     0.055 A 
HETATM    6  C9  UNL     1      23.731   0.436  52.873  1.00  0.00     0.103 A 
HETATM    7  O3  UNL     1      23.459  -0.859  53.168  1.00  0.00    -0.346 OA
HETATM    8  C10 UNL     1      22.242  -1.504  53.086  1.00  0.00     0.204 C 
HETATM    9  C11 UNL     1      21.202  -0.789  53.944  1.00  0.00     0.230 C 
HETATM   10  O4  UNL     1      20.885   0.452  53.654  1.00  0.00    -0.253 OA
HETATM   11  N1  UNL     1      20.562   1.634  53.402  1.00  0.00    -0.127 NA
HETATM   12  C12 UNL     1      20.863   2.419  52.412  1.00  0.00     0.264 C 
HETATM   13  N2  UNL     1      21.267   3.233  51.235  1.00  0.00    -0.222 NA
HETATM   14  C13 UNL     1      22.599   3.219  51.107  1.00  0.00     0.138 C 
ENDROOT
BRANCH  14  15
HETATM   15  N3  UNL     1      23.143   4.048  50.057  1.00  0.00    -0.358 N 
HETATM   16  C14 UNL     1      22.228   5.184  49.911  1.00  0.00     0.152 C 
HETATM   17  C15 UNL     1      22.630   6.102  51.054  1.00  0.00    -0.007 C 
HETATM   18  C16 UNL     1      23.921   6.481  51.191  1.00  0.00    -0.002 C 
HETATM   19  C17 UNL     1      25.124   6.182  50.422  1.00  0.00     0.004 C 
HETATM   20  C18 UNL     1      25.258   5.130  49.605  1.00  0.00    -0.066 C 
HETATM   21  C19 UNL     1      26.591   5.043  48.922  1.00  0.00     0.045 C 
HETATM   22  C20 UNL     1      24.348   3.990  49.213  1.00  0.00     0.158 C 
ENDBRANCH  14  15
BRANCH   1  23
HETATM   23  O2  UNL     1      25.522   0.123  54.438  1.00  0.00    -0.346 OA
BRANCH  23  24
HETATM   24  C3  UNL     1      26.597   0.217  55.252  1.00  0.00     0.201 C 
BRANCH  24  25
HETATM   25  C2  UNL     1      27.901   0.118  54.506  1.00  0.00     0.193 C 
BRANCH  25  26
HETATM   26  O1  UNL     1      28.798   1.120  54.910  1.00  0.00    -0.394 OA
HETATM   27  C1  UNL     1      28.847   2.029  53.828  1.00  0.00     0.201 C 
ENDBRANCH  25  26
ENDBRANCH  24  25
ENDBRANCH  23  24
ENDBRANCH   1  23
TORSDOF 5
ENDMDL
MODEL 2
REMARK VINA RESULT:      -7.7      3.220      6.221
REMARK  5 active torsions:
REMARK  status: ('A' for Active; 'I' for Inactive)
REMARK    1  A    between atoms: O1_2  and  C2_3 
REMARK    2  A    between atoms: C2_3  and  C3_4 
REMARK    3  A    between atoms: C3_4  and  O2_5 
REMARK    4  A    between atoms: O2_5  and  C4_6 
REMARK    5  A    between atoms: C13_19  and  N3_20 
ROOT
HETATM    1  C4  UNL     1      25.614   4.157  50.119  1.00  0.00     0.102 A 
HETATM    2  C5  UNL     1      26.464   3.080  50.192  1.00  0.00     0.040 A 
HETATM    3  C6  UNL     1      26.263   2.101  51.145  1.00  0.00     0.018 A 
HETATM    4  C7  UNL     1      25.204   2.280  51.974  1.00  0.00     0.013 A 
HETATM    5  C8  UNL     1      24.329   3.337  51.956  1.00  0.00     0.055 A 
HETATM    6  C9  UNL     1      24.525   4.308  51.003  1.00  0.00     0.103 A 
HETATM    7  O3  UNL     1      23.801   5.431  50.769  1.00  0.00    -0.346 OA
HETATM    8  C10 UNL     1      22.471   5.652  51.062  1.00  0.00     0.204 C 
HETATM    9  C11 UNL     1      21.595   4.600  50.391  1.00  0.00     0.230 C 
HETATM   10  O4  UNL     1      21.752   3.338  50.721  1.00  0.00    -0.253 OA
HETATM   11  N1  UNL     1      21.878   2.129  51.016  1.00  0.00    -0.127 NA
HETATM   12  C12 UNL     1      22.577   1.533  51.934  1.00  0.00     0.264 C 
HETATM   13  N2  UNL     1      23.412   0.951  53.018  1.00  0.00    -0.222 NA
HETATM   14  C13 UNL     1      24.668   1.399  52.916  1.00  0.00     0.138 C 
ENDROOT
BRANCH  14  15
HETATM   15  N3  UNL     1      25.618   0.843  53.851  1.00  0.00    -0.358 N 
HETATM   16  C14 UNL     1      25.210  -0.547  54.078  1.00  0.00     0.152 C 
HETATM   17  C15 UNL     1      25.754  -1.271  52.857  1.00  0.00    -0.007 C 
HETATM   18  C16 UNL     1      27.062  -1.153  52.532  1.00  0.00    -0.002 C 
HETATM   19  C17 UNL     1      28.168  -0.424  53.142  1.00  0.00     0.004 C 
HETATM   20  C18 UNL     1      28.022   0.616  53.973  1.00  0.00    -0.066 C 
HETATM   21  C19 UNL     1      29.314   1.195  54.472  1.00  0.00     0.045 C 
HETATM   22  C20 UNL     1      26.824   1.350  54.526  1.00  0.00     0.158 C 
ENDBRANCH  14  15
BRANCH   1  23
HETATM   23  O2  UNL     1      25.833   5.106  49.157  1.00  0.00    -0.346 OA
BRANCH  23  24
HETATM   24  C3  UNL     1      26.883   5.820  48.696  1.00  0.00     0.201 C 
BRANCH  24  25
HETATM   25  C2  UNL     1      26.646   7.306  48.758  1.00  0.00     0.193 C 
BRANCH  25  26
HETATM   26  O1  UNL     1      26.374   7.725  50.071  1.00  0.00    -0.394 OA
HETATM   27  C1  UNL     1      27.009   8.982  50.195  1.00  0.00     0.201 C 
ENDBRANCH  25  26
ENDBRANCH  24  25
ENDBRANCH  23  24
ENDBRANCH   1  23
TORSDOF 5
ENDMDL
MODEL 3
REMARK VINA RESULT:      -7.5      2.968      6.286
REMARK  5 active torsions:
REMARK  status: ('A' for Active; 'I' for Inactive)
REMARK    1  A    between atoms: O1_2  and  C2_3 
REMARK    2  A    between atoms: C2_3  and  C3_4 
REMARK    3  A    between atoms: C3_4  and  O2_5 
REMARK    4  A    between atoms: O2_5  and  C4_6 
REMARK    5  A    between atoms: C13_19  and  N3_20 
ROOT
HETATM    1  C4  UNL     1      21.251   0.408  51.884  1.00  0.00     0.102 A 
HETATM    2  C5  UNL     1      22.110   0.148  52.924  1.00  0.00     0.040 A 
HETATM    3  C6  UNL     1      23.408   0.619  52.886  1.00  0.00     0.018 A 
HETATM    4  C7  UNL     1      23.756   1.328  51.782  1.00  0.00     0.013 A 
HETATM    5  C8  UNL     1      22.947   1.608  50.710  1.00  0.00     0.055 A 
HETATM    6  C9  UNL     1      21.653   1.146  50.750  1.00  0.00     0.103 A 
HETATM    7  O3  UNL     1      20.663   1.299  49.836  1.00  0.00    -0.346 OA
HETATM    8  C10 UNL     1      20.524   2.311  48.908  1.00  0.00     0.204 C 
HETATM    9  C11 UNL     1      20.489   3.669  49.602  1.00  0.00     0.230 C 
HETATM   10  O4  UNL     1      21.538   4.058  50.290  1.00  0.00    -0.253 OA
HETATM   11  N1  UNL     1      22.522   4.456  50.952  1.00  0.00    -0.127 NA
HETATM   12  C12 UNL     1      23.718   3.971  51.096  1.00  0.00     0.264 C 
HETATM   13  N2  UNL     1      25.058   3.334  51.192  1.00  0.00    -0.222 NA
HETATM   14  C13 UNL     1      24.927   2.047  51.534  1.00  0.00     0.138 C 
ENDROOT
BRANCH  14  15
HETATM   15  N3  UNL     1      26.156   1.322  51.756  1.00  0.00    -0.358 N 
HETATM   16  C14 UNL     1      27.065   2.247  52.439  1.00  0.00     0.152 C 
HETATM   17  C15 UNL     1      26.593   2.195  53.883  1.00  0.00    -0.007 C 
HETATM   18  C16 UNL     1      26.486   1.002  54.513  1.00  0.00    -0.002 C 
HETATM   19  C17 UNL     1      26.744  -0.367  54.083  1.00  0.00     0.004 C 
HETATM   20  C18 UNL     1      26.789  -0.763  52.805  1.00  0.00    -0.066 C 
HETATM   21  C19 UNL     1      27.076  -2.225  52.620  1.00  0.00     0.045 C 
HETATM   22  C20 UNL     1      26.610  -0.052  51.485  1.00  0.00     0.158 C 
ENDBRANCH  14  15
BRANCH   1  23
HETATM   23  O2  UNL     1      19.968  -0.064  51.955  1.00  0.00    -0.346 OA
BRANCH  23  24
HETATM   24  C3  UNL     1      19.119  -0.475  52.922  1.00  0.00     0.201 C 
BRANCH  24  25
HETATM   25  C2  UNL     1      17.706  -0.634  52.427  1.00  0.00     0.193 C 
BRANCH  25  26
HETATM   26  O1  UNL     1      16.973  -1.507  53.246  1.00  0.00    -0.394 OA
HETATM   27  C1  UNL     1      17.892  -2.511  53.629  1.00  0.00     0.201 C 
ENDBRANCH  25  26
ENDBRANCH  24  25
ENDBRANCH  23  24
ENDBRANCH   1  23
TORSDOF 5
ENDMDL
MODEL 4
REMARK VINA RESULT:      -7.1      2.934      5.943
REMARK  5 active torsions:
REMARK  status: ('A' for Active; 'I' for Inactive)
REMARK    1  A    between atoms: O1_2  and  C2_3 
REMARK    2  A    between atoms: C2_3  and  C3_4 
REMARK    3  A    between atoms: C3_4  and  O2_5 
REMARK    4  A    between atoms: O2_5  and  C4_6 
REMARK    5  A    between atoms: C13_19  and  N3_20 
ROOT
HETATM    1  C4  UNL     1      23.195   3.821  50.489  1.00  0.00     0.102 A 
HETATM    2  C5  UNL     1      24.449   3.277  50.349  1.00  0.00     0.040 A 
HETATM    3  C6  UNL     1      24.875   2.287  51.213  1.00  0.00     0.018 A 
HETATM    4  C7  UNL     1      23.996   1.912  52.175  1.00  0.00     0.013 A 
HETATM    5  C8  UNL     1      22.738   2.426  52.370  1.00  0.00     0.055 A 
HETATM    6  C9  UNL     1      22.310   3.406  51.507  1.00  0.00     0.103 A 
HETATM    7  O3  UNL     1      21.121   4.057  51.477  1.00  0.00    -0.346 OA
HETATM    8  C10 UNL     1      19.904   3.608  51.947  1.00  0.00     0.204 C 
HETATM    9  C11 UNL     1      19.527   2.289  51.279  1.00  0.00     0.230 C 
HETATM   10  O4  UNL     1      20.302   1.244  51.457  1.00  0.00    -0.253 OA
HETATM   11  N1  UNL     1      21.021   0.230  51.608  1.00  0.00    -0.127 NA
HETATM   12  C12 UNL     1      22.048   0.007  52.370  1.00  0.00     0.264 C 
HETATM   13  N2  UNL     1      23.213  -0.145  53.282  1.00  0.00    -0.222 NA
HETATM   14  C13 UNL     1      24.083   0.850  53.079  1.00  0.00     0.138 C 
ENDROOT
BRANCH  14  15
HETATM   15  N3  UNL     1      25.313   0.780  53.832  1.00  0.00    -0.358 N 
HETATM   16  C14 UNL     1      25.490  -0.626  54.207  1.00  0.00     0.152 C 
HETATM   17  C15 UNL     1      26.050  -1.254  52.941  1.00  0.00    -0.007 C 
HETATM   18  C16 UNL     1      27.148  -0.723  52.355  1.00  0.00    -0.002 C 
HETATM   19  C17 UNL     1      27.993   0.416  52.693  1.00  0.00     0.004 C 
HETATM   20  C18 UNL     1      27.616   1.431  53.482  1.00  0.00    -0.066 C 
HETATM   21  C19 UNL     1      28.667   2.482  53.683  1.00  0.00     0.045 C 
HETATM   22  C20 UNL     1      26.343   1.757  54.226  1.00  0.00     0.158 C 
ENDBRANCH  14  15
BRANCH   1  23
HETATM   23  O2  UNL     1      22.797   4.793  49.611  1.00  0.00    -0.346 OA
BRANCH  23  24
HETATM   24  C3  UNL     1      23.191   5.256  48.404  1.00  0.00     0.201 C 
BRANCH  24  25
HETATM   25  C2  UNL     1      24.040   6.495  48.507  1.00  0.00     0.193 C 
BRANCH  25  26
HETATM   26  O1  UNL     1      23.983   7.047  49.797  1.00  0.00    -0.394 OA
HETATM   27  C1  UNL     1      23.877   8.443  49.595  1.00  0.00     0.201 C 
ENDBRANCH  25  26
ENDBRANCH  24  25
ENDBRANCH  23  24
ENDBRANCH   1  23
TORSDOF 5
ENDMDL
MODEL 5
REMARK VINA RESULT:      -7.0      2.275      4.651
REMARK  5 active torsions:
REMARK  status: ('A' for Active; 'I' for Inactive)
REMARK    1  A    between atoms: O1_2  and  C2_3 
REMARK    2  A    between atoms: C2_3  and  C3_4 
REMARK    3  A    between atoms: C3_4  and  O2_5 
REMARK    4  A    between atoms: O2_5  and  C4_6 
REMARK    5  A    between atoms: C13_19  and  N3_20 
ROOT
HETATM    1  C4  UNL     1      23.315   1.384  51.643  1.00  0.00     0.102 A 
HETATM    2  C5  UNL     1      22.585   1.586  50.497  1.00  0.00     0.040 A 
HETATM    3  C6  UNL     1      22.769   2.733  49.750  1.00  0.00     0.018 A 
HETATM    4  C7  UNL     1      23.690   3.612  50.219  1.00  0.00     0.013 A 
HETATM    5  C8  UNL     1      24.439   3.470  51.360  1.00  0.00     0.055 A 
HETATM    6  C9  UNL     1      24.261   2.326  52.100  1.00  0.00     0.103 A 
HETATM    7  O3  UNL     1      24.882   1.944  53.244  1.00  0.00    -0.346 OA
HETATM    8  C10 UNL     1      26.132   2.322  53.690  1.00  0.00     0.204 C 
HETATM    9  C11 UNL     1      27.195   1.971  52.654  1.00  0.00     0.230 C 
HETATM   10  O4  UNL     1      27.136   2.532  51.468  1.00  0.00    -0.253 OA
HETATM   11  N1  UNL     1      27.106   3.051  50.330  1.00  0.00    -0.127 NA
HETATM   12  C12 UNL     1      26.366   3.994  49.831  1.00  0.00     0.264 C 
HETATM   13  N2  UNL     1      25.469   5.082  49.359  1.00  0.00    -0.222 NA
HETATM   14  C13 UNL     1      24.194   4.763  49.610  1.00  0.00     0.138 C 
ENDROOT
BRANCH  14  15
HETATM   15  N3  UNL     1      23.201   5.689  49.120  1.00  0.00    -0.358 N 
HETATM   16  C14 UNL     1      22.484   6.188  50.297  1.00  0.00     0.152 C 
HETATM   17  C15 UNL     1      23.422   7.249  50.850  1.00  0.00    -0.007 C 
HETATM   18  C16 UNL     1      23.865   8.241  50.044  1.00  0.00    -0.002 C 
HETATM   19  C17 UNL     1      23.627   8.553  48.640  1.00  0.00     0.004 C 
HETATM   20  C18 UNL     1      23.192   7.669  47.732  1.00  0.00    -0.066 C 
HETATM   21  C19 UNL     1      23.020   8.234  46.352  1.00  0.00     0.045 C 
HETATM   22  C20 UNL     1      22.833   6.204  47.791  1.00  0.00     0.158 C 
ENDBRANCH  14  15
BRANCH   1  23
HETATM   23  O2  UNL     1      23.117   0.232  52.356  1.00  0.00    -0.346 OA
BRANCH  23  24
HETATM   24  C3  UNL     1      22.161  -0.276  53.165  1.00  0.00     0.201 C 
BRANCH  24  25
HETATM   25  C2  UNL     1      22.727  -0.883  54.421  1.00  0.00     0.193 C 
BRANCH  25  26
HETATM   26  O1  UNL     1      21.754  -1.622  55.114  1.00  0.00    -0.394 OA
HETATM   27  C1  UNL     1      20.622  -1.625  54.266  1.00  0.00     0.201 C 
ENDBRANCH  25  26
ENDBRANCH  24  25
ENDBRANCH  23  24
ENDBRANCH   1  23
TORSDOF 5
ENDMDL
MODEL 6
REMARK VINA RESULT:      -6.9      2.003      4.923
REMARK  5 active torsions:
REMARK  status: ('A' for Active; 'I' for Inactive)
REMARK    1  A    between atoms: O1_2  and  C2_3 
REMARK    2  A    between atoms: C2_3  and  C3_4 
REMARK    3  A    between atoms: C3_4  and  O2_5 
REMARK    4  A    between atoms: O2_5  and  C4_6 
REMARK    5  A    between atoms: C13_19  and  N3_20 
ROOT
HETATM    1  C4  UNL     1      23.797   0.628  52.615  1.00  0.00     0.102 A 
HETATM    2  C5  UNL     1      22.806   0.641  51.663  1.00  0.00     0.040 A 
HETATM    3  C6  UNL     1      22.597   1.770  50.895  1.00  0.00     0.018 A 
HETATM    4  C7  UNL     1      23.412   2.825  51.146  1.00  0.00     0.013 A 
HETATM    5  C8  UNL     1      24.408   2.875  52.088  1.00  0.00     0.055 A 
HETATM    6  C9  UNL     1      24.621   1.749  52.848  1.00  0.00     0.103 A 
HETATM    7  O3  UNL     1      25.541   1.540  53.823  1.00  0.00    -0.346 OA
HETATM    8  C10 UNL     1      26.762   2.164  53.975  1.00  0.00     0.204 C 
HETATM    9  C11 UNL     1      27.618   1.975  52.727  1.00  0.00     0.230 C 
HETATM   10  O4  UNL     1      27.191   2.464  51.585  1.00  0.00    -0.253 OA
HETATM   11  N1  UNL     1      26.811   2.919  50.483  1.00  0.00    -0.127 NA
HETATM   12  C12 UNL     1      25.811   3.685  50.165  1.00  0.00     0.264 C 
HETATM   13  N2  UNL     1      24.640   4.565  49.908  1.00  0.00    -0.222 NA
HETATM   14  C13 UNL     1      23.538   4.024  50.440  1.00  0.00     0.138 C 
ENDROOT
BRANCH  14  15
HETATM   15  N3  UNL     1      22.302   4.725  50.187  1.00  0.00    -0.358 N 
HETATM   16  C14 UNL     1      22.425   5.313  48.850  1.00  0.00     0.152 C 
HETATM   17  C15 UNL     1      22.129   4.142  47.928  1.00  0.00    -0.007 C 
HETATM   18  C16 UNL     1      20.987   3.432  48.087  1.00  0.00    -0.002 C 
HETATM   19  C17 UNL     1      19.878   3.546  49.026  1.00  0.00     0.004 C 
HETATM   20  C18 UNL     1      19.947   4.177  50.206  1.00  0.00    -0.066 C 
HETATM   21  C19 UNL     1      18.668   4.160  50.991  1.00  0.00     0.045 C 
HETATM   22  C20 UNL     1      21.047   4.912  50.934  1.00  0.00     0.158 C 
ENDBRANCH  14  15
BRANCH   1  23
HETATM   23  O2  UNL     1      23.987  -0.509  53.354  1.00  0.00    -0.346 OA
BRANCH  23  24
HETATM   24  C3  UNL     1      23.705  -0.931  54.606  1.00  0.00     0.201 C 
BRANCH  24  25
HETATM   25  C2  UNL     1      22.276  -0.667  55.000  1.00  0.00     0.193 C 
BRANCH  25  26
HETATM   26  O1  UNL     1      21.496  -1.831  54.902  1.00  0.00    -0.394 OA
HETATM   27  C1  UNL     1      20.451  -1.500  54.010  1.00  0.00     0.201 C 
ENDBRANCH  25  26
ENDBRANCH  24  25
ENDBRANCH  23  24
ENDBRANCH   1  23
TORSDOF 5
ENDMDL
MODEL 7
REMARK VINA RESULT:      -6.9      2.390      3.339
REMARK  5 active torsions:
REMARK  status: ('A' for Active; 'I' for Inactive)
REMARK    1  A    between atoms: O1_2  and  C2_3 
REMARK    2  A    between atoms: C2_3  and  C3_4 
REMARK    3  A    between atoms: C3_4  and  O2_5 
REMARK    4  A    between atoms: O2_5  and  C4_6 
REMARK    5  A    between atoms: C13_19  and  N3_20 
ROOT
HETATM    1  C4  UNL     1      24.977   1.859  52.952  1.00  0.00     0.102 A 
HETATM    2  C5  UNL     1      24.200   2.829  52.366  1.00  0.00     0.040 A 
HETATM    3  C6  UNL     1      22.954   2.511  51.864  1.00  0.00     0.018 A 
HETATM    4  C7  UNL     1      22.572   1.215  51.987  1.00  0.00     0.013 A 
HETATM    5  C8  UNL     1      23.307   0.202  52.551  1.00  0.00     0.055 A 
HETATM    6  C9  UNL     1      24.545   0.520  53.056  1.00  0.00     0.103 A 
HETATM    7  O3  UNL     1      25.448  -0.285  53.669  1.00  0.00    -0.346 OA
HETATM    8  C10 UNL     1      25.202  -1.452  54.363  1.00  0.00     0.204 C 
HETATM    9  C11 UNL     1      24.223  -1.196  55.505  1.00  0.00     0.230 C 
HETATM   10  O4  UNL     1      23.012  -0.776  55.220  1.00  0.00    -0.253 OA
HETATM   11  N1  UNL     1      21.851  -0.374  54.980  1.00  0.00    -0.127 NA
HETATM   12  C12 UNL     1      21.204  -0.223  53.864  1.00  0.00     0.264 C 
HETATM   13  N2  UNL     1      20.553  -0.088  52.534  1.00  0.00    -0.222 NA
HETATM   14  C13 UNL     1      21.329   0.637  51.719  1.00  0.00     0.138 C 
ENDROOT
BRANCH  14  15
HETATM   15  N3  UNL     1      20.779   0.930  50.416  1.00  0.00    -0.358 N 
HETATM   16  C14 UNL     1      19.345   1.158  50.614  1.00  0.00     0.152 C 
HETATM   17  C15 UNL     1      19.289   2.587  51.130  1.00  0.00    -0.007 C 
HETATM   18  C16 UNL     1      19.888   3.579  50.430  1.00  0.00    -0.002 C 
HETATM   19  C17 UNL     1      20.642   3.589  49.182  1.00  0.00     0.004 C 
HETATM   20  C18 UNL     1      21.232   2.513  48.645  1.00  0.00    -0.066 C 
HETATM   21  C19 UNL     1      21.946   2.780  47.352  1.00  0.00     0.045 C 
HETATM   22  C20 UNL     1      21.342   1.066  49.063  1.00  0.00     0.158 C 
ENDBRANCH  14  15
BRANCH   1  23
HETATM   23  O2  UNL     1      26.204   2.208  53.448  1.00  0.00    -0.346 OA
BRANCH  23  24
HETATM   24  C3  UNL     1      27.466   2.315  52.978  1.00  0.00     0.201 C 
BRANCH  24  25
HETATM   25  C2  UNL     1      28.504   2.116  54.050  1.00  0.00     0.193 C 
BRANCH  25  26
HETATM   26  O1  UNL     1      28.133   1.092  54.936  1.00  0.00    -0.394 OA
HETATM   27  C1  UNL     1      28.885  -0.036  54.532  1.00  0.00     0.201 C 
ENDBRANCH  25  26
ENDBRANCH  24  25
ENDBRANCH  23  24
ENDBRANCH   1  23
TORSDOF 5
ENDMDL
MODEL 8
REMARK VINA RESULT:      -6.9      4.063      7.034
REMARK  5 active torsions:
REMARK  status: ('A' for Active; 'I' for Inactive)
REMARK    1  A    between atoms: O1_2  and  C2_3 
REMARK    2  A    between atoms: C2_3  and  C3_4 
REMARK    3  A    between atoms: C3_4  and  O2_5 
REMARK    4  A    between atoms: O2_5  and  C4_6 
REMARK    5  A    between atoms: C13_19  and  N3_20 
ROOT
HETATM    1  C4  UNL     1      26.778   5.783  48.970  1.00  0.00     0.102 A 
HETATM    2  C5  UNL     1      26.397   4.467  49.075  1.00  0.00     0.040 A 
HETATM    3  C6  UNL     1      25.306   4.121  49.848  1.00  0.00     0.018 A 
HETATM    4  C7  UNL     1      24.667   5.141  50.475  1.00  0.00     0.013 A 
HETATM    5  C8  UNL     1      25.008   6.469  50.416  1.00  0.00     0.055 A 
HETATM    6  C9  UNL     1      26.089   6.815  49.641  1.00  0.00     0.103 A 
HETATM    7  O3  UNL     1      26.614   8.044  49.409  1.00  0.00    -0.346 OA
HETATM    8  C10 UNL     1      25.965   9.260  49.467  1.00  0.00     0.204 C 
HETATM    9  C11 UNL     1      24.770   9.274  48.520  1.00  0.00     0.230 C 
HETATM   10  O4  UNL     1      23.791   8.422  48.721  1.00  0.00    -0.253 OA
HETATM   11  N1  UNL     1      22.843   7.622  48.888  1.00  0.00    -0.127 NA
HETATM   12  C12 UNL     1      22.579   6.785  49.845  1.00  0.00     0.264 C 
HETATM   13  N2  UNL     1      22.369   5.861  50.991  1.00  0.00    -0.222 NA
HETATM   14  C13 UNL     1      23.465   5.119  51.186  1.00  0.00     0.138 C 
ENDROOT
BRANCH  14  15
HETATM   15  N3  UNL     1      23.373   4.108  52.212  1.00  0.00    -0.358 N 
HETATM   16  C14 UNL     1      22.014   3.561  52.133  1.00  0.00     0.152 C 
HETATM   17  C15 UNL     1      22.098   2.590  50.967  1.00  0.00    -0.007 C 
HETATM   18  C16 UNL     1      23.053   1.631  50.957  1.00  0.00    -0.002 C 
HETATM   19  C17 UNL     1      24.114   1.285  51.896  1.00  0.00     0.004 C 
HETATM   20  C18 UNL     1      24.607   2.119  52.821  1.00  0.00    -0.066 C 
HETATM   21  C19 UNL     1      25.692   1.527  53.672  1.00  0.00     0.045 C 
HETATM   22  C20 UNL     1      24.308   3.549  53.202  1.00  0.00     0.158 C 
ENDBRANCH  14  15
BRANCH   1  23
HETATM   23  O2  UNL     1      27.857   6.096  48.188  1.00  0.00    -0.346 OA
BRANCH  23  24
HETATM   24  C3  UNL     1      29.190   5.875  48.210  1.00  0.00     0.201 C 
BRANCH  24  25
HETATM   25  C2  UNL     1      29.989   7.118  47.918  1.00  0.00     0.193 C 
BRANCH  25  26
HETATM   26  O1  UNL     1      30.503   7.683  49.097  1.00  0.00    -0.394 OA
HETATM   27  C1  UNL     1      30.005   9.007  49.117  1.00  0.00     0.201 C 
ENDBRANCH  25  26
ENDBRANCH  24  25
ENDBRANCH  23  24
ENDBRANCH   1  23
TORSDOF 5
ENDMDL
MODEL 9
REMARK VINA RESULT:      -6.8      3.944      6.876
REMARK  5 active torsions:
REMARK  status: ('A' for Active; 'I' for Inactive)
REMARK    1  A    between atoms: O1_2  and  C2_3 
REMARK    2  A    between atoms: C2_3  and  C3_4 
REMARK    3  A    between atoms: C3_4  and  O2_5 
REMARK    4  A    between atoms: O2_5  and  C4_6 
REMARK    5  A    between atoms: C13_19  and  N3_20 
ROOT
HETATM    1  C4  UNL     1      25.701   6.253  48.714  1.00  0.00     0.102 A 
HETATM    2  C5  UNL     1      26.724   5.368  48.955  1.00  0.00     0.040 A 
HETATM    3  C6  UNL     1      26.476   4.187  49.627  1.00  0.00     0.018 A 
HETATM    4  C7  UNL     1      25.193   3.978  50.018  1.00  0.00     0.013 A 
HETATM    5  C8  UNL     1      24.135   4.828  49.815  1.00  0.00     0.055 A 
HETATM    6  C9  UNL     1      24.380   6.000  49.140  1.00  0.00     0.103 A 
HETATM    7  O3  UNL     1      23.513   6.988  48.804  1.00  0.00    -0.346 OA
HETATM    8  C10 UNL     1      22.152   6.882  48.608  1.00  0.00     0.204 C 
HETATM    9  C11 UNL     1      21.847   5.851  47.526  1.00  0.00     0.230 C 
HETATM   10  O4  UNL     1      22.202   4.602  47.722  1.00  0.00    -0.253 OA
HETATM   11  N1  UNL     1      22.528   3.404  47.880  1.00  0.00    -0.127 NA
HETATM   12  C12 UNL     1      23.011   2.770  48.905  1.00  0.00     0.264 C 
HETATM   13  N2  UNL     1      23.559   2.139  50.135  1.00  0.00    -0.222 NA
HETATM   14  C13 UNL     1      24.619   2.830  50.568  1.00  0.00     0.138 C 
ENDROOT
BRANCH  14  15
HETATM   15  N3  UNL     1      25.314   2.278  51.707  1.00  0.00    -0.358 N 
HETATM   16  C14 UNL     1      24.703   2.879  52.896  1.00  0.00     0.152 C 
HETATM   17  C15 UNL     1      23.432   2.066  53.082  1.00  0.00    -0.007 C 
HETATM   18  C16 UNL     1      23.502   0.716  53.152  1.00  0.00    -0.002 C 
HETATM   19  C17 UNL     1      24.618  -0.219  53.083  1.00  0.00     0.004 C 
HETATM   20  C18 UNL     1      25.812   0.065  52.545  1.00  0.00    -0.066 C 
HETATM   21  C19 UNL     1      26.799  -1.064  52.599  1.00  0.00     0.045 C 
HETATM   22  C20 UNL     1      26.392   1.291  51.883  1.00  0.00     0.158 C 
ENDBRANCH  14  15
BRANCH   1  23
HETATM   23  O2  UNL     1      25.976   7.411  48.037  1.00  0.00    -0.346 OA
BRANCH  23  24
HETATM   24  C3  UNL     1      26.606   8.578  48.292  1.00  0.00     0.201 C 
BRANCH  24  25
HETATM   25  C2  UNL     1      26.147   9.216  49.577  1.00  0.00     0.193 C 
BRANCH  25  26
HETATM   26  O1  UNL     1      27.221   9.411  50.462  1.00  0.00    -0.394 OA
HETATM   27  C1  UNL     1      28.364   9.518  49.636  1.00  0.00     0.201 C 
ENDBRANCH  25  26
ENDBRANCH  24  25
ENDBRANCH  23  24
ENDBRANCH   1  23
TORSDOF 5
ENDMDL
