MODEL 1
REMARK VINA RESULT:      -8.0      0.000      0.000
REMARK  5 active torsions:
REMARK  status: ('A' for Active; 'I' for Inactive)
REMARK    1  A    between atoms: C2_3  and  O1_4 
REMARK    2  A    between atoms: O1_4  and  C3_5 
REMARK    3  A    between atoms: C3_5  and  N2_6 
REMARK    4  A    between atoms: N2_6  and  C4_7 
REMARK    5  A    between atoms: C4_7  and  C5_8 
ROOT
HETATM    1  N1  UNL     1      27.477   4.357  48.834  1.00  0.00    -0.195 NA
HETATM    2  C1  UNL     1      26.695   3.763  49.444  1.00  0.00     0.085 C 
HETATM    3  C2  UNL     1      25.718   2.991  50.201  1.00  0.00     0.295 C 
ENDROOT
BRANCH   3   4
HETATM    4  O1  UNL     1      25.375   3.418  51.408  1.00  0.00    -0.335 OA
BRANCH   4   5
HETATM    5  C3  UNL     1      24.570   2.740  52.272  1.00  0.00     0.285 C 
HETATM    6  C6  UNL     1      23.739   3.556  53.180  1.00  0.00     0.078 C 
HETATM    7  C7  UNL     1      23.715   4.834  52.760  1.00  0.00     0.086 C 
HETATM    8  N3  UNL     1      23.314   4.885  51.510  1.00  0.00    -0.259 NA
HETATM    9  C8  UNL     1      22.552   3.649  51.306  1.00  0.00     0.115 C 
HETATM   10  C9  UNL     1      21.437   3.524  52.078  1.00  0.00     0.012 C 
HETATM   11  C10 UNL     1      20.312   2.586  52.361  1.00  0.00     0.148 C 
HETATM   12  N4  UNL     1      20.740   1.372  51.619  1.00  0.00    -0.386 N 
HETATM   13  C11 UNL     1      21.813   0.762  52.417  1.00  0.00     0.036 A 
HETATM   14  H12 UNL     1      20.611   0.776  50.809  1.00  0.00     0.160 HD
HETATM   15  C12 UNL     1      20.956  -0.023  53.226  1.00  0.00     0.033 A 
HETATM   16  C16 UNL     1      23.194   0.633  52.707  1.00  0.00    -0.002 A 
HETATM   17  C13 UNL     1      21.354  -0.896  54.265  1.00  0.00     0.046 A 
HETATM   18  C14 UNL     1      22.707  -1.004  54.529  1.00  0.00     0.138 A 
HETATM   19  F1  UNL     1      23.182  -1.812  55.500  1.00  0.00    -0.204 F 
HETATM   20  C15 UNL     1      23.516  -0.228  53.724  1.00  0.00     0.081 A 
HETATM   21 CL1  UNL     1      25.222  -0.410  54.064  1.00  0.00    -0.080 Cl
HETATM   22  C17 UNL     1      24.229   1.354  51.947  1.00  0.00     0.119 C 
BRANCH   5  23
HETATM   23  N2  UNL     1      25.680   2.546  53.289  1.00  0.00     0.129 N 
HETATM   24  H3  UNL     1      25.331   1.908  54.014  1.00  0.00     0.320 HD
BRANCH  23  25
HETATM   25  C4  UNL     1      26.924   2.217  52.710  1.00  0.00     0.343 C 
BRANCH  25  26
HETATM   26  C5  UNL     1      27.878   1.973  53.820  1.00  0.00     0.261 C 
HETATM   27  O2  UNL     1      28.870   2.682  54.024  1.00  0.00    -0.305 OA
ENDBRANCH  25  26
ENDBRANCH  23  25
ENDBRANCH   5  23
ENDBRANCH   4   5
ENDBRANCH   3   4
TORSDOF 5
ENDMDL
MODEL 2
REMARK VINA RESULT:      -7.3      2.381      4.468
REMARK  5 active torsions:
REMARK  status: ('A' for Active; 'I' for Inactive)
REMARK    1  A    between atoms: C2_3  and  O1_4 
REMARK    2  A    between atoms: O1_4  and  C3_5 
REMARK    3  A    between atoms: C3_5  and  N2_6 
REMARK    4  A    between atoms: N2_6  and  C4_7 
REMARK    5  A    between atoms: C4_7  and  C5_8 
ROOT
HETATM    1  N1  UNL     1      24.501   8.242  50.353  1.00  0.00    -0.195 NA
HETATM    2  C1  UNL     1      24.267   7.227  50.854  1.00  0.00     0.085 C 
HETATM    3  C2  UNL     1      23.947   5.954  51.488  1.00  0.00     0.295 C 
ENDROOT
BRANCH   3   4
HETATM    4  O1  UNL     1      24.654   4.886  51.152  1.00  0.00    -0.335 OA
BRANCH   4   5
HETATM    5  C3  UNL     1      24.210   3.601  51.238  1.00  0.00     0.285 C 
HETATM    6  C6  UNL     1      24.724   2.654  50.229  1.00  0.00     0.078 C 
HETATM    7  C7  UNL     1      25.785   3.186  49.594  1.00  0.00     0.086 C 
HETATM    8  N3  UNL     1      26.693   3.548  50.472  1.00  0.00    -0.259 NA
HETATM    9  C8  UNL     1      26.423   2.729  51.657  1.00  0.00     0.115 C 
HETATM   10  C9  UNL     1      26.557   1.385  51.474  1.00  0.00     0.012 C 
HETATM   11  C10 UNL     1      26.424   0.089  52.200  1.00  0.00     0.148 C 
HETATM   12  N4  UNL     1      25.789   0.522  53.472  1.00  0.00    -0.386 N 
HETATM   13  C11 UNL     1      24.383   0.800  53.152  1.00  0.00     0.036 A 
HETATM   14  H12 UNL     1      25.898   0.700  54.464  1.00  0.00     0.160 HD
HETATM   15  C12 UNL     1      23.926  -0.524  53.363  1.00  0.00     0.033 A 
HETATM   16  C16 UNL     1      23.382   1.723  52.757  1.00  0.00    -0.002 A 
HETATM   17  C13 UNL     1      22.597  -0.984  53.216  1.00  0.00     0.046 A 
HETATM   18  C14 UNL     1      21.639  -0.065  52.830  1.00  0.00     0.138 A 
HETATM   19  F1  UNL     1      20.345  -0.411  52.664  1.00  0.00    -0.204 F 
HETATM   20  C15 UNL     1      22.114   1.215  52.633  1.00  0.00     0.081 A 
HETATM   21 CL1  UNL     1      20.872   2.360  52.174  1.00  0.00    -0.080 Cl
HETATM   22  C17 UNL     1      23.671   3.147  52.522  1.00  0.00     0.119 C 
BRANCH   5  23
HETATM   23  N2  UNL     1      22.937   3.899  50.467  1.00  0.00     0.129 N 
HETATM   24  H3  UNL     1      22.837   4.920  50.412  1.00  0.00     0.320 HD
BRANCH  23  25
HETATM   25  C4  UNL     1      22.837   3.192  49.251  1.00  0.00     0.343 C 
BRANCH  25  26
HETATM   26  C5  UNL     1      22.416   4.162  48.209  1.00  0.00     0.261 C 
HETATM   27  O2  UNL     1      23.073   5.168  47.919  1.00  0.00    -0.305 OA
ENDBRANCH  25  26
ENDBRANCH  23  25
ENDBRANCH   5  23
ENDBRANCH   4   5
ENDBRANCH   3   4
TORSDOF 5
ENDMDL
MODEL 3
REMARK VINA RESULT:      -7.3      2.469      4.947
REMARK  5 active torsions:
REMARK  status: ('A' for Active; 'I' for Inactive)
REMARK    1  A    between atoms: C2_3  and  O1_4 
REMARK    2  A    between atoms: O1_4  and  C3_5 
REMARK    3  A    between atoms: C3_5  and  N2_6 
REMARK    4  A    between atoms: N2_6  and  C4_7 
REMARK    5  A    between atoms: C4_7  and  C5_8 
ROOT
HETATM    1  N1  UNL     1      21.249   7.807  50.435  1.00  0.00    -0.195 NA
HETATM    2  C1  UNL     1      21.563   6.786  50.877  1.00  0.00     0.085 C 
HETATM    3  C2  UNL     1      21.946   5.506  51.457  1.00  0.00     0.295 C 
ENDROOT
BRANCH   3   4
HETATM    4  O1  UNL     1      22.115   4.471  50.647  1.00  0.00    -0.335 OA
BRANCH   4   5
HETATM    5  C3  UNL     1      22.628   3.266  51.021  1.00  0.00     0.285 C 
HETATM    6  C6  UNL     1      23.355   2.506  49.985  1.00  0.00     0.078 C 
HETATM    7  C7  UNL     1      23.634   3.303  48.937  1.00  0.00     0.086 C 
HETATM    8  N3  UNL     1      24.287   4.367  49.349  1.00  0.00    -0.259 NA
HETATM    9  C8  UNL     1      24.904   3.966  50.617  1.00  0.00     0.115 C 
HETATM   10  C9  UNL     1      25.810   2.952  50.522  1.00  0.00     0.012 C 
HETATM   11  C10 UNL     1      26.718   2.117  51.361  1.00  0.00     0.148 C 
HETATM   12  N4  UNL     1      26.295   2.499  52.733  1.00  0.00    -0.386 N 
HETATM   13  C11 UNL     1      25.011   1.825  52.967  1.00  0.00     0.036 A 
HETATM   14  H12 UNL     1      26.509   3.012  53.581  1.00  0.00     0.160 HD
HETATM   15  C12 UNL     1      25.571   0.624  53.464  1.00  0.00     0.033 A 
HETATM   16  C16 UNL     1      23.594   1.849  52.913  1.00  0.00    -0.002 A 
HETATM   17  C13 UNL     1      24.855  -0.517  53.895  1.00  0.00     0.046 A 
HETATM   18  C14 UNL     1      23.475  -0.471  53.832  1.00  0.00     0.138 A 
HETATM   19  F1  UNL     1      22.708  -1.510  54.222  1.00  0.00    -0.204 F 
HETATM   20  C15 UNL     1      22.959   0.713  53.345  1.00  0.00     0.081 A 
HETATM   21 CL1  UNL     1      21.210   0.750  53.306  1.00  0.00    -0.080 Cl
HETATM   22  C17 UNL     1      22.842   3.027  52.450  1.00  0.00     0.119 C 
BRANCH   5  23
HETATM   23  N2  UNL     1      21.317   2.538  50.788  1.00  0.00     0.129 N 
HETATM   24  H3  UNL     1      21.072   2.049  51.658  1.00  0.00     0.320 HD
BRANCH  23  25
HETATM   25  C4  UNL     1      20.313   3.352  50.224  1.00  0.00     0.343 C 
BRANCH  25  26
HETATM   26  C5  UNL     1      19.070   3.127  51.003  1.00  0.00     0.261 C 
HETATM   27  O2  UNL     1      18.875   3.622  52.119  1.00  0.00    -0.305 OA
ENDBRANCH  25  26
ENDBRANCH  23  25
ENDBRANCH   5  23
ENDBRANCH   4   5
ENDBRANCH   3   4
TORSDOF 5
ENDMDL
MODEL 4
REMARK VINA RESULT:      -7.1      2.423      3.598
REMARK  5 active torsions:
REMARK  status: ('A' for Active; 'I' for Inactive)
REMARK    1  A    between atoms: C2_3  and  O1_4 
REMARK    2  A    between atoms: O1_4  and  C3_5 
REMARK    3  A    between atoms: C3_5  and  N2_6 
REMARK    4  A    between atoms: N2_6  and  C4_7 
REMARK    5  A    between atoms: C4_7  and  C5_8 
ROOT
HETATM    1  N1  UNL     1      21.477   3.604  47.085  1.00  0.00    -0.195 NA
HETATM    2  C1  UNL     1      22.228   3.286  47.904  1.00  0.00     0.085 C 
HETATM    3  C2  UNL     1      23.192   2.878  48.917  1.00  0.00     0.295 C 
ENDROOT
BRANCH   3   4
HETATM    4  O1  UNL     1      23.187   3.509  50.083  1.00  0.00    -0.335 OA
BRANCH   4   5
HETATM    5  C3  UNL     1      23.669   2.992  51.247  1.00  0.00     0.285 C 
HETATM    6  C6  UNL     1      22.966   3.385  52.486  1.00  0.00     0.078 C 
HETATM    7  C7  UNL     1      21.780   3.946  52.186  1.00  0.00     0.086 C 
HETATM    8  N3  UNL     1      21.079   3.128  51.434  1.00  0.00    -0.259 NA
HETATM    9  C8  UNL     1      21.623   1.796  51.712  1.00  0.00     0.115 C 
HETATM   10  C9  UNL     1      21.483   1.373  53.000  1.00  0.00     0.012 C 
HETATM   11  C10 UNL     1      21.802   0.219  53.891  1.00  0.00     0.148 C 
HETATM   12  N4  UNL     1      22.691  -0.594  53.022  1.00  0.00    -0.386 N 
HETATM   13  C11 UNL     1      23.986   0.100  53.000  1.00  0.00     0.036 A 
HETATM   14  H12 UNL     1      22.799  -1.422  52.446  1.00  0.00     0.160 HD
HETATM   15  C12 UNL     1      24.508  -0.541  54.150  1.00  0.00     0.033 A 
HETATM   16  C16 UNL     1      24.854   1.042  52.393  1.00  0.00    -0.002 A 
HETATM   17  C13 UNL     1      25.782  -0.323  54.723  1.00  0.00     0.046 A 
HETATM   18  C14 UNL     1      26.611   0.601  54.113  1.00  0.00     0.138 A 
HETATM   19  F1  UNL     1      27.844   0.875  54.587  1.00  0.00    -0.204 F 
HETATM   20  C15 UNL     1      26.075   1.207  52.995  1.00  0.00     0.081 A 
HETATM   21 CL1  UNL     1      27.158   2.349  52.231  1.00  0.00    -0.080 Cl
HETATM   22  C17 UNL     1      24.487   1.780  51.173  1.00  0.00     0.119 C 
BRANCH   5  23
HETATM   23  N2  UNL     1      24.733   4.065  51.383  1.00  0.00     0.129 N 
HETATM   24  H3  UNL     1      25.649   3.599  51.384  1.00  0.00     0.320 HD
BRANCH  23  25
HETATM   25  C4  UNL     1      24.576   5.133  50.475  1.00  0.00     0.343 C 
BRANCH  25  26
HETATM   26  C5  UNL     1      25.855   5.279  49.737  1.00  0.00     0.261 C 
HETATM   27  O2  UNL     1      26.586   4.322  49.459  1.00  0.00    -0.305 OA
ENDBRANCH  25  26
ENDBRANCH  23  25
ENDBRANCH   5  23
ENDBRANCH   4   5
ENDBRANCH   3   4
TORSDOF 5
ENDMDL
MODEL 5
REMARK VINA RESULT:      -7.0      2.886      5.610
REMARK  5 active torsions:
REMARK  status: ('A' for Active; 'I' for Inactive)
REMARK    1  A    between atoms: C2_3  and  O1_4 
REMARK    2  A    between atoms: O1_4  and  C3_5 
REMARK    3  A    between atoms: C3_5  and  N2_6 
REMARK    4  A    between atoms: N2_6  and  C4_7 
REMARK    5  A    between atoms: C4_7  and  C5_8 
ROOT
HETATM    1  N1  UNL     1      17.776   3.993  51.660  1.00  0.00    -0.195 NA
HETATM    2  C1  UNL     1      18.929   3.918  51.608  1.00  0.00     0.085 C 
HETATM    3  C2  UNL     1      20.382   3.824  51.569  1.00  0.00     0.295 C 
ENDROOT
BRANCH   3   4
HETATM    4  O1  UNL     1      20.947   3.197  50.548  1.00  0.00    -0.335 OA
BRANCH   4   5
HETATM    5  C3  UNL     1      22.113   2.496  50.614  1.00  0.00     0.285 C 
HETATM    6  C6  UNL     1      22.756   2.158  49.329  1.00  0.00     0.078 C 
HETATM    7  C7  UNL     1      22.212   2.884  48.335  1.00  0.00     0.086 C 
HETATM    8  N3  UNL     1      22.285   4.163  48.627  1.00  0.00    -0.259 NA
HETATM    9  C8  UNL     1      23.388   4.271  49.587  1.00  0.00     0.115 C 
HETATM   10  C9  UNL     1      24.608   3.901  49.107  1.00  0.00     0.012 C 
HETATM   11  C10 UNL     1      26.034   3.762  49.525  1.00  0.00     0.148 C 
HETATM   12  N4  UNL     1      25.938   3.977  50.993  1.00  0.00    -0.386 N 
HETATM   13  C11 UNL     1      25.369   2.741  51.549  1.00  0.00     0.036 A 
HETATM   14  H12 UNL     1      26.102   4.596  51.778  1.00  0.00     0.160 HD
HETATM   15  C12 UNL     1      26.609   2.079  51.716  1.00  0.00     0.033 A 
HETATM   16  C16 UNL     1      24.232   1.994  51.947  1.00  0.00    -0.002 A 
HETATM   17  C13 UNL     1      26.799   0.776  52.231  1.00  0.00     0.046 A 
HETATM   18  C14 UNL     1      25.675   0.066  52.612  1.00  0.00     0.138 A 
HETATM   19  F1  UNL     1      25.756  -1.184  53.115  1.00  0.00    -0.204 F 
HETATM   20  C15 UNL     1      24.483   0.738  52.438  1.00  0.00     0.081 A 
HETATM   21 CL1  UNL     1      23.083  -0.174  52.956  1.00  0.00    -0.080 Cl
HETATM   22  C17 UNL     1      22.866   2.536  51.870  1.00  0.00     0.119 C 
BRANCH   5  23
HETATM   23  N2  UNL     1      21.403   1.160  50.733  1.00  0.00     0.129 N 
HETATM   24  H3  UNL     1      21.266   0.967  51.733  1.00  0.00     0.320 HD
BRANCH  23  25
HETATM   25  C4  UNL     1      20.261   1.053  49.913  1.00  0.00     0.343 C 
BRANCH  25  26
HETATM   26  C5  UNL     1      19.221   0.338  50.692  1.00  0.00     0.261 C 
HETATM   27  O2  UNL     1      19.188   0.332  51.928  1.00  0.00    -0.305 OA
ENDBRANCH  25  26
ENDBRANCH  23  25
ENDBRANCH   5  23
ENDBRANCH   4   5
ENDBRANCH   3   4
TORSDOF 5
ENDMDL
MODEL 6
REMARK VINA RESULT:      -6.9      3.832      6.573
REMARK  5 active torsions:
REMARK  status: ('A' for Active; 'I' for Inactive)
REMARK    1  A    between atoms: C2_3  and  O1_4 
REMARK    2  A    between atoms: O1_4  and  C3_5 
REMARK    3  A    between atoms: C3_5  and  N2_6 
REMARK    4  A    between atoms: N2_6  and  C4_7 
REMARK    5  A    between atoms: C4_7  and  C5_8 
ROOT
HETATM    1  N1  UNL     1      22.736   0.302  53.822  1.00  0.00    -0.195 NA
HETATM    2  C1  UNL     1      22.587   0.826  52.803  1.00  0.00     0.085 C 
HETATM    3  C2  UNL     1      22.387   1.465  51.509  1.00  0.00     0.295 C 
ENDROOT
BRANCH   3   4
HETATM    4  O1  UNL     1      22.222   2.780  51.472  1.00  0.00    -0.335 OA
BRANCH   4   5
HETATM    5  C3  UNL     1      22.946   3.632  50.695  1.00  0.00     0.285 C 
HETATM    6  C6  UNL     1      22.193   4.410  49.690  1.00  0.00     0.078 C 
HETATM    7  C7  UNL     1      20.874   4.346  49.949  1.00  0.00     0.086 C 
HETATM    8  N3  UNL     1      20.644   4.738  51.182  1.00  0.00    -0.259 NA
HETATM    9  C8  UNL     1      21.791   5.580  51.533  1.00  0.00     0.115 C 
HETATM   10  C9  UNL     1      21.934   6.705  50.777  1.00  0.00     0.012 C 
HETATM   11  C10 UNL     1      22.823   7.891  50.606  1.00  0.00     0.148 C 
HETATM   12  N4  UNL     1      23.962   7.543  51.494  1.00  0.00    -0.386 N 
HETATM   13  C11 UNL     1      24.736   6.517  50.781  1.00  0.00     0.036 A 
HETATM   14  H12 UNL     1      24.444   7.709  52.370  1.00  0.00     0.160 HD
HETATM   15  C12 UNL     1      25.555   7.428  50.071  1.00  0.00     0.033 A 
HETATM   16  C16 UNL     1      24.992   5.149  50.516  1.00  0.00    -0.002 A 
HETATM   17  C13 UNL     1      26.574   7.094  49.149  1.00  0.00     0.046 A 
HETATM   18  C14 UNL     1      26.805   5.752  48.906  1.00  0.00     0.138 A 
HETATM   19  F1  UNL     1      27.755   5.336  48.044  1.00  0.00    -0.204 F 
HETATM   20  C15 UNL     1      25.992   4.890  49.614  1.00  0.00     0.081 A 
HETATM   21 CL1  UNL     1      26.328   3.201  49.306  1.00  0.00    -0.080 Cl
HETATM   22  C17 UNL     1      24.255   4.064  51.186  1.00  0.00     0.119 C 
BRANCH   5  23
HETATM   23  N2  UNL     1      23.338   2.542  49.714  1.00  0.00     0.129 N 
HETATM   24  H3  UNL     1      23.005   1.647  50.093  1.00  0.00     0.320 HD
BRANCH  23  25
HETATM   25  C4  UNL     1      22.983   2.828  48.380  1.00  0.00     0.343 C 
BRANCH  25  26
HETATM   26  C5  UNL     1      22.330   1.617  47.825  1.00  0.00     0.261 C 
HETATM   27  O2  UNL     1      21.211   1.230  48.181  1.00  0.00    -0.305 OA
ENDBRANCH  25  26
ENDBRANCH  23  25
ENDBRANCH   5  23
ENDBRANCH   4   5
ENDBRANCH   3   4
TORSDOF 5
ENDMDL
MODEL 7
REMARK VINA RESULT:      -6.4      3.516      5.260
REMARK  5 active torsions:
REMARK  status: ('A' for Active; 'I' for Inactive)
REMARK    1  A    between atoms: C2_3  and  O1_4 
REMARK    2  A    between atoms: O1_4  and  C3_5 
REMARK    3  A    between atoms: C3_5  and  N2_6 
REMARK    4  A    between atoms: N2_6  and  C4_7 
REMARK    5  A    between atoms: C4_7  and  C5_8 
ROOT
HETATM    1  N1  UNL     1      22.351   7.541  50.548  1.00  0.00    -0.195 NA
HETATM    2  C1  UNL     1      22.165   6.546  51.105  1.00  0.00     0.085 C 
HETATM    3  C2  UNL     1      21.907   5.301  51.817  1.00  0.00     0.295 C 
ENDROOT
BRANCH   3   4
HETATM    4  O1  UNL     1      22.375   4.172  51.304  1.00  0.00    -0.335 OA
BRANCH   4   5
HETATM    5  C3  UNL     1      21.705   2.986  51.295  1.00  0.00     0.285 C 
HETATM    6  C6  UNL     1      22.445   1.812  50.791  1.00  0.00     0.078 C 
HETATM    7  C7  UNL     1      23.760   2.091  50.720  1.00  0.00     0.086 C 
HETATM    8  N3  UNL     1      24.190   2.507  51.890  1.00  0.00    -0.259 NA
HETATM    9  C8  UNL     1      23.235   1.965  52.860  1.00  0.00     0.115 C 
HETATM   10  C9  UNL     1      23.178   0.604  52.917  1.00  0.00     0.012 C 
HETATM   11  C10 UNL     1      22.469  -0.507  53.615  1.00  0.00     0.148 C 
HETATM   12  N4  UNL     1      21.401   0.230  54.341  1.00  0.00    -0.386 N 
HETATM   13  C11 UNL     1      20.401   0.599  53.330  1.00  0.00     0.036 A 
HETATM   14  H12 UNL     1      21.055   0.579  55.227  1.00  0.00     0.160 HD
HETATM   15  C12 UNL     1      19.654  -0.600  53.426  1.00  0.00     0.033 A 
HETATM   16  C16 UNL     1      19.909   1.537  52.388  1.00  0.00    -0.002 A 
HETATM   17  C13 UNL     1      18.496  -0.926  52.684  1.00  0.00     0.046 A 
HETATM   18  C14 UNL     1      18.035   0.005  51.771  1.00  0.00     0.138 A 
HETATM   19  F1  UNL     1      16.938  -0.217  51.018  1.00  0.00    -0.204 F 
HETATM   20  C15 UNL     1      18.783   1.162  51.701  1.00  0.00     0.081 A 
HETATM   21 CL1  UNL     1      18.158   2.331  50.559  1.00  0.00    -0.080 Cl
HETATM   22  C17 UNL     1      20.544   2.849  52.176  1.00  0.00     0.119 C 
BRANCH   5  23
HETATM   23  N2  UNL     1      21.039   3.274  49.962  1.00  0.00     0.129 N 
HETATM   24  H3  UNL     1      21.263   4.242  49.703  1.00  0.00     0.320 HD
BRANCH  23  25
HETATM   25  C4  UNL     1      21.288   2.289  48.984  1.00  0.00     0.343 C 
BRANCH  25  26
HETATM   26  C5  UNL     1      20.764   2.804  47.695  1.00  0.00     0.261 C 
HETATM   27  O2  UNL     1      21.495   3.169  46.767  1.00  0.00    -0.305 OA
ENDBRANCH  25  26
ENDBRANCH  23  25
ENDBRANCH   5  23
ENDBRANCH   4   5
ENDBRANCH   3   4
TORSDOF 5
ENDMDL
MODEL 8
REMARK VINA RESULT:      -6.3      7.018      9.157
REMARK  5 active torsions:
REMARK  status: ('A' for Active; 'I' for Inactive)
REMARK    1  A    between atoms: C2_3  and  O1_4 
REMARK    2  A    between atoms: O1_4  and  C3_5 
REMARK    3  A    between atoms: C3_5  and  N2_6 
REMARK    4  A    between atoms: N2_6  and  C4_7 
REMARK    5  A    between atoms: C4_7  and  C5_8 
ROOT
HETATM    1  N1  UNL     1      32.376  10.466  45.058  1.00  0.00    -0.195 NA
HETATM    2  C1  UNL     1      31.902   9.590  45.645  1.00  0.00     0.085 C 
HETATM    3  C2  UNL     1      31.319   8.469  46.370  1.00  0.00     0.295 C 
ENDROOT
BRANCH   3   4
HETATM    4  O1  UNL     1      30.984   8.644  47.641  1.00  0.00    -0.335 OA
BRANCH   4   5
HETATM    5  C3  UNL     1      29.777   8.316  48.179  1.00  0.00     0.285 C 
HETATM    6  C6  UNL     1      29.350   9.085  49.365  1.00  0.00     0.078 C 
HETATM    7  C7  UNL     1      30.114  10.184  49.502  1.00  0.00     0.086 C 
HETATM    8  N3  UNL     1      30.084  10.888  48.392  1.00  0.00    -0.259 NA
HETATM    9  C8  UNL     1      28.839  10.495  47.727  1.00  0.00     0.115 C 
HETATM   10  C9  UNL     1      27.699  10.785  48.415  1.00  0.00     0.012 C 
HETATM   11  C10 UNL     1      26.216  10.653  48.327  1.00  0.00     0.148 C 
HETATM   12  N4  UNL     1      26.065   9.768  47.142  1.00  0.00    -0.386 N 
HETATM   13  C11 UNL     1      26.433   8.419  47.591  1.00  0.00     0.036 A 
HETATM   14  H12 UNL     1      25.809   9.686  46.164  1.00  0.00     0.160 HD
HETATM   15  C12 UNL     1      25.138   8.060  48.036  1.00  0.00     0.033 A 
HETATM   16  C16 UNL     1      27.423   7.418  47.761  1.00  0.00    -0.002 A 
HETATM   17  C13 UNL     1      24.765   6.827  48.618  1.00  0.00     0.046 A 
HETATM   18  C14 UNL     1      25.748   5.867  48.775  1.00  0.00     0.138 A 
HETATM   19  F1  UNL     1      25.487   4.660  49.319  1.00  0.00    -0.204 F 
HETATM   20  C15 UNL     1      26.998   6.245  48.330  1.00  0.00     0.081 A 
HETATM   21 CL1  UNL     1      28.213   5.000  48.515  1.00  0.00    -0.080 Cl
HETATM   22  C17 UNL     1      28.818   7.608  47.328  1.00  0.00     0.119 C 
BRANCH   5  23
HETATM   23  N2  UNL     1      30.355   7.174  48.995  1.00  0.00     0.129 N 
HETATM   24  H3  UNL     1      30.005   6.295  48.594  1.00  0.00     0.320 HD
BRANCH  23  25
HETATM   25  C4  UNL     1      31.750   7.265  49.183  1.00  0.00     0.343 C 
BRANCH  25  26
HETATM   26  C5  UNL     1      32.277   5.880  49.258  1.00  0.00     0.261 C 
HETATM   27  O2  UNL     1      31.736   4.920  48.698  1.00  0.00    -0.305 OA
ENDBRANCH  25  26
ENDBRANCH  23  25
ENDBRANCH   5  23
ENDBRANCH   4   5
ENDBRANCH   3   4
TORSDOF 5
ENDMDL
MODEL 9
REMARK VINA RESULT:      -6.0      3.121      5.635
REMARK  5 active torsions:
REMARK  status: ('A' for Active; 'I' for Inactive)
REMARK    1  A    between atoms: C2_3  and  O1_4 
REMARK    2  A    between atoms: O1_4  and  C3_5 
REMARK    3  A    between atoms: C3_5  and  N2_6 
REMARK    4  A    between atoms: N2_6  and  C4_7 
REMARK    5  A    between atoms: C4_7  and  C5_8 
ROOT
HETATM    1  N1  UNL     1      19.890   8.299  49.680  1.00  0.00    -0.195 NA
HETATM    2  C1  UNL     1      20.570   7.451  50.073  1.00  0.00     0.085 C 
HETATM    3  C2  UNL     1      21.418   6.387  50.594  1.00  0.00     0.295 C 
ENDROOT
BRANCH   3   4
HETATM    4  O1  UNL     1      21.732   5.380  49.791  1.00  0.00    -0.335 OA
BRANCH   4   5
HETATM    5  C3  UNL     1      22.242   4.187  50.204  1.00  0.00     0.285 C 
HETATM    6  C6  UNL     1      22.827   3.321  49.160  1.00  0.00     0.078 C 
HETATM    7  C7  UNL     1      23.018   4.025  48.030  1.00  0.00     0.086 C 
HETATM    8  N3  UNL     1      23.746   5.088  48.285  1.00  0.00    -0.259 NA
HETATM    9  C8  UNL     1      24.483   4.758  49.509  1.00  0.00     0.115 C 
HETATM   10  C9  UNL     1      25.339   3.704  49.401  1.00  0.00     0.012 C 
HETATM   11  C10 UNL     1      26.304   2.896  50.203  1.00  0.00     0.148 C 
HETATM   12  N4  UNL     1      26.044   3.398  51.578  1.00  0.00    -0.386 N 
HETATM   13  C11 UNL     1      24.770   2.798  51.997  1.00  0.00     0.036 A 
HETATM   14  H12 UNL     1      26.365   3.964  52.355  1.00  0.00     0.160 HD
HETATM   15  C12 UNL     1      25.340   1.615  52.526  1.00  0.00     0.033 A 
HETATM   16  C16 UNL     1      23.358   2.876  52.090  1.00  0.00    -0.002 A 
HETATM   17  C13 UNL     1      24.637   0.540  53.119  1.00  0.00     0.046 A 
HETATM   18  C14 UNL     1      23.260   0.639  53.197  1.00  0.00     0.138 A 
HETATM   19  F1  UNL     1      22.505  -0.335  53.747  1.00  0.00    -0.204 F 
HETATM   20  C15 UNL     1      22.735   1.804  52.675  1.00  0.00     0.081 A 
HETATM   21 CL1  UNL     1      20.994   1.911  52.816  1.00  0.00    -0.080 Cl
HETATM   22  C17 UNL     1      22.600   4.047  51.617  1.00  0.00     0.119 C 
BRANCH   5  23
HETATM   23  N2  UNL     1      20.889   3.499  50.168  1.00  0.00     0.129 N 
HETATM   24  H3  UNL     1      20.352   3.822  50.982  1.00  0.00     0.320 HD
BRANCH  23  25
HETATM   25  C4  UNL     1      20.244   3.588  48.917  1.00  0.00     0.343 C 
BRANCH  25  26
HETATM   26  C5  UNL     1      18.785   3.664  49.175  1.00  0.00     0.261 C 
HETATM   27  O2  UNL     1      18.129   4.702  49.037  1.00  0.00    -0.305 OA
ENDBRANCH  25  26
ENDBRANCH  23  25
ENDBRANCH   5  23
ENDBRANCH   4   5
ENDBRANCH   3   4
TORSDOF 5
ENDMDL
