MODEL 1
REMARK VINA RESULT:      -8.7      0.000      0.000
REMARK  4 active torsions:
REMARK  status: ('A' for Active; 'I' for Inactive)
REMARK    1  A    between atoms: C3_3  and  C4_4 
REMARK    2  A    between atoms: C4_4  and  C5_5 
REMARK    3  A    between atoms: C5_5  and  C6_6 
REMARK    4  A    between atoms: C6_6  and  O2_8 
ROOT
HETATM    1  C1  UNL     1      24.837  -0.815  54.288  1.00  0.00     0.068 C 
HETATM    2  C2  UNL     1      24.958   0.341  53.377  1.00  0.00     0.006 C 
HETATM    3  C3  UNL     1      25.916   0.284  52.465  1.00  0.00    -0.034 C 
HETATM    4  C7  UNL     1      26.315   1.253  51.441  1.00  0.00     0.215 C 
HETATM    5  O3  UNL     1      25.514   2.402  51.498  1.00  0.00    -0.316 OA
HETATM    6  C8  UNL     1      25.630   3.478  50.653  1.00  0.00     0.279 C 
HETATM    7  O4  UNL     1      26.547   3.309  49.810  1.00  0.00    -0.263 OA
HETATM    8  C9  UNL     1      24.920   4.751  50.538  1.00  0.00     0.189 C 
HETATM    9  C10 UNL     1      24.748   5.103  49.079  1.00  0.00     0.059 C 
HETATM   10  C11 UNL     1      23.653   4.169  48.553  1.00  0.00    -0.017 C 
HETATM   11  C12 UNL     1      22.982   4.055  49.686  1.00  0.00    -0.029 C 
HETATM   12  C13 UNL     1      22.654   5.341  50.467  1.00  0.00     0.159 C 
HETATM   13  N1  UNL     1      23.753   4.881  51.398  1.00  0.00    -0.177 NA
HETATM   14  O5  UNL     1      23.250   3.669  51.804  1.00  0.00    -0.283 OA
HETATM   15  C14 UNL     1      22.356   3.203  50.788  1.00  0.00     0.121 C 
HETATM   16  C15 UNL     1      20.941   3.501  51.025  1.00  0.00     0.058 C 
HETATM   17  C16 UNL     1      22.518   1.754  50.529  1.00  0.00     0.015 C 
HETATM   18  C17 UNL     1      22.642   1.009  51.599  1.00  0.00    -0.003 C 
HETATM   19  C18 UNL     1      22.664   1.254  53.037  1.00  0.00     0.100 C 
HETATM   20  C19 UNL     1      21.864   0.205  53.752  1.00  0.00     0.036 C 
HETATM   21  N2  UNL     1      24.025   1.401  53.562  1.00  0.00    -0.386 N 
HETATM   22  H26 UNL     1      24.743   1.966  54.070  1.00  0.00     0.160 HD
ENDROOT
BRANCH   3  23
HETATM   23  C4  UNL     1      26.818  -0.857  52.349  1.00  0.00     0.048 C 
BRANCH  23  24
HETATM   24  C5  UNL     1      28.147  -0.706  53.046  1.00  0.00     0.114 C 
BRANCH  24  25
HETATM   25  C6  UNL     1      28.690  -2.102  53.218  1.00  0.00     0.139 C 
HETATM   26  O1  UNL     1      29.748  -2.428  53.818  1.00  0.00    -0.650 OA
BRANCH  25  27
HETATM   27  O2  UNL     1      28.293  -3.377  52.837  1.00  0.00    -0.776 OA
HETATM   28  H8  UNL     1      28.680  -3.922  52.107  1.00  0.00     0.167 HD
ENDBRANCH  25  27
ENDBRANCH  24  25
ENDBRANCH  23  24
ENDBRANCH   3  23
TORSDOF 4
ENDMDL
MODEL 2
REMARK VINA RESULT:      -8.6      1.459      1.668
REMARK  4 active torsions:
REMARK  status: ('A' for Active; 'I' for Inactive)
REMARK    1  A    between atoms: C3_3  and  C4_4 
REMARK    2  A    between atoms: C4_4  and  C5_5 
REMARK    3  A    between atoms: C5_5  and  C6_6 
REMARK    4  A    between atoms: C6_6  and  O2_8 
ROOT
HETATM    1  C1  UNL     1      23.066  -1.056  54.703  1.00  0.00     0.068 C 
HETATM    2  C2  UNL     1      23.256   0.019  53.710  1.00  0.00     0.006 C 
HETATM    3  C3  UNL     1      24.420   0.049  53.079  1.00  0.00    -0.034 C 
HETATM    4  C7  UNL     1      24.932   0.980  52.070  1.00  0.00     0.215 C 
HETATM    5  O3  UNL     1      23.988   1.974  51.777  1.00  0.00    -0.316 OA
HETATM    6  C8  UNL     1      24.167   2.976  50.857  1.00  0.00     0.279 C 
HETATM    7  O4  UNL     1      25.289   2.895  50.296  1.00  0.00    -0.263 OA
HETATM    8  C9  UNL     1      23.338   4.093  50.406  1.00  0.00     0.189 C 
HETATM    9  C10 UNL     1      23.510   4.282  48.918  1.00  0.00     0.059 C 
HETATM   10  C11 UNL     1      22.740   3.131  48.261  1.00  0.00    -0.017 C 
HETATM   11  C12 UNL     1      21.816   3.002  49.198  1.00  0.00    -0.029 C 
HETATM   12  C13 UNL     1      21.111   4.275  49.701  1.00  0.00     0.159 C 
HETATM   13  N1  UNL     1      21.978   4.094  50.926  1.00  0.00    -0.177 NA
HETATM   14  O5  UNL     1      21.566   2.853  51.349  1.00  0.00    -0.283 OA
HETATM   15  C14 UNL     1      21.050   2.154  50.211  1.00  0.00     0.121 C 
HETATM   16  C15 UNL     1      19.595   2.223  50.050  1.00  0.00     0.058 C 
HETATM   17  C16 UNL     1      21.482   0.737  50.189  1.00  0.00     0.015 C 
HETATM   18  C17 UNL     1      21.423   0.121  51.343  1.00  0.00    -0.003 C 
HETATM   19  C18 UNL     1      21.028   0.491  52.698  1.00  0.00     0.100 C 
HETATM   20  C19 UNL     1      20.227  -0.615  53.321  1.00  0.00     0.036 C 
HETATM   21  N2  UNL     1      22.165   0.915  53.520  1.00  0.00    -0.386 N 
HETATM   22  H26 UNL     1      22.634   1.638  54.113  1.00  0.00     0.160 HD
ENDROOT
BRANCH   3  23
HETATM   23  C4  UNL     1      25.475  -0.925  53.337  1.00  0.00     0.048 C 
BRANCH  23  24
HETATM   24  C5  UNL     1      26.598  -0.946  52.331  1.00  0.00     0.114 C 
BRANCH  24  25
HETATM   25  C6  UNL     1      27.670  -1.828  52.920  1.00  0.00     0.139 C 
HETATM   26  O1  UNL     1      28.533  -1.494  53.773  1.00  0.00    -0.650 OA
BRANCH  25  27
HETATM   27  O2  UNL     1      28.060  -3.153  52.771  1.00  0.00    -0.776 OA
HETATM   28  H8  UNL     1      27.803  -3.764  52.035  1.00  0.00     0.167 HD
ENDBRANCH  25  27
ENDBRANCH  24  25
ENDBRANCH  23  24
ENDBRANCH   3  23
TORSDOF 4
ENDMDL
MODEL 3
REMARK VINA RESULT:      -8.6      2.666      3.398
REMARK  4 active torsions:
REMARK  status: ('A' for Active; 'I' for Inactive)
REMARK    1  A    between atoms: C3_3  and  C4_4 
REMARK    2  A    between atoms: C4_4  and  C5_5 
REMARK    3  A    between atoms: C5_5  and  C6_6 
REMARK    4  A    between atoms: C6_6  and  O2_8 
ROOT
HETATM    1  C1  UNL     1      24.804  -0.518  54.047  1.00  0.00     0.068 C 
HETATM    2  C2  UNL     1      24.037   0.544  53.368  1.00  0.00     0.006 C 
HETATM    3  C3  UNL     1      24.667   1.224  52.422  1.00  0.00    -0.034 C 
HETATM    4  C7  UNL     1      24.213   2.337  51.585  1.00  0.00     0.215 C 
HETATM    5  O3  UNL     1      22.890   2.687  51.890  1.00  0.00    -0.316 OA
HETATM    6  C8  UNL     1      22.179   3.679  51.261  1.00  0.00     0.279 C 
HETATM    7  O4  UNL     1      22.858   4.239  50.364  1.00  0.00    -0.263 OA
HETATM    8  C9  UNL     1      20.823   4.203  51.417  1.00  0.00     0.189 C 
HETATM    9  C10 UNL     1      20.249   4.534  50.060  1.00  0.00     0.059 C 
HETATM   10  C11 UNL     1      19.912   3.186  49.412  1.00  0.00    -0.017 C 
HETATM   11  C12 UNL     1      19.641   2.534  50.531  1.00  0.00    -0.029 C 
HETATM   12  C13 UNL     1      18.707   3.206  51.553  1.00  0.00     0.159 C 
HETATM   13  N1  UNL     1      19.978   3.451  52.334  1.00  0.00    -0.177 NA
HETATM   14  O5  UNL     1      20.412   2.161  52.525  1.00  0.00    -0.283 OA
HETATM   15  C14 UNL     1      19.862   1.356  51.477  1.00  0.00     0.121 C 
HETATM   16  C15 UNL     1      18.627   0.647  51.824  1.00  0.00     0.058 C 
HETATM   17  C16 UNL     1      20.850   0.392  50.942  1.00  0.00     0.015 C 
HETATM   18  C17 UNL     1      21.573  -0.221  51.846  1.00  0.00    -0.003 C 
HETATM   19  C18 UNL     1      21.656  -0.192  53.302  1.00  0.00     0.100 C 
HETATM   20  C19 UNL     1      21.807  -1.586  53.838  1.00  0.00     0.036 C 
HETATM   21  N2  UNL     1      22.688   0.728  53.788  1.00  0.00    -0.386 N 
HETATM   22  H26 UNL     1      22.964   1.557  54.364  1.00  0.00     0.160 HD
ENDROOT
BRANCH   3  23
HETATM   23  C4  UNL     1      26.053   0.950  52.055  1.00  0.00     0.048 C 
BRANCH  23  24
HETATM   24  C5  UNL     1      26.911   2.167  51.814  1.00  0.00     0.114 C 
BRANCH  24  25
HETATM   25  C6  UNL     1      27.812   2.288  53.017  1.00  0.00     0.139 C 
HETATM   26  O1  UNL     1      27.497   2.073  54.216  1.00  0.00    -0.650 OA
BRANCH  25  27
HETATM   27  O2  UNL     1      29.141   2.632  53.234  1.00  0.00    -0.776 OA
HETATM   28  H8  UNL     1      29.729   3.131  52.613  1.00  0.00     0.167 HD
ENDBRANCH  25  27
ENDBRANCH  24  25
ENDBRANCH  23  24
ENDBRANCH   3  23
TORSDOF 4
ENDMDL
MODEL 4
REMARK VINA RESULT:      -8.3      2.360      4.697
REMARK  4 active torsions:
REMARK  status: ('A' for Active; 'I' for Inactive)
REMARK    1  A    between atoms: C3_3  and  C4_4 
REMARK    2  A    between atoms: C4_4  and  C5_5 
REMARK    3  A    between atoms: C5_5  and  C6_6 
REMARK    4  A    between atoms: C6_6  and  O2_8 
ROOT
HETATM    1  C1  UNL     1      26.372   3.540  50.215  1.00  0.00     0.068 C 
HETATM    2  C2  UNL     1      25.492   2.575  50.903  1.00  0.00     0.006 C 
HETATM    3  C3  UNL     1      25.975   2.001  51.995  1.00  0.00    -0.034 C 
HETATM    4  C7  UNL     1      25.382   1.000  52.885  1.00  0.00     0.215 C 
HETATM    5  O3  UNL     1      24.101   0.636  52.449  1.00  0.00    -0.316 OA
HETATM    6  C8  UNL     1      23.285  -0.265  53.088  1.00  0.00     0.279 C 
HETATM    7  O4  UNL     1      23.825  -0.727  54.125  1.00  0.00    -0.263 OA
HETATM    8  C9  UNL     1      21.946  -0.784  52.814  1.00  0.00     0.189 C 
HETATM    9  C10 UNL     1      21.191  -0.947  54.112  1.00  0.00     0.059 C 
HETATM   10  C11 UNL     1      20.813   0.472  54.552  1.00  0.00    -0.017 C 
HETATM   11  C12 UNL     1      20.709   0.993  53.341  1.00  0.00    -0.029 C 
HETATM   12  C13 UNL     1      19.896   0.220  52.287  1.00  0.00     0.159 C 
HETATM   13  N1  UNL     1      21.250  -0.133  51.714  1.00  0.00    -0.177 NA
HETATM   14  O5  UNL     1      21.742   1.120  51.437  1.00  0.00    -0.283 OA
HETATM   15  C14 UNL     1      21.085   2.049  52.305  1.00  0.00     0.121 C 
HETATM   16  C15 UNL     1      19.927   2.732  51.719  1.00  0.00     0.058 C 
HETATM   17  C16 UNL     1      22.024   3.055  52.853  1.00  0.00     0.015 C 
HETATM   18  C17 UNL     1      22.876   3.548  51.989  1.00  0.00    -0.003 C 
HETATM   19  C18 UNL     1      23.147   3.349  50.570  1.00  0.00     0.100 C 
HETATM   20  C19 UNL     1      23.407   4.669  49.904  1.00  0.00     0.036 C 
HETATM   21  N2  UNL     1      24.205   2.363  50.332  1.00  0.00    -0.386 N 
HETATM   22  H26 UNL     1      24.528   1.469  49.895  1.00  0.00     0.160 HD
ENDROOT
BRANCH   3  23
HETATM   23  C4  UNL     1      27.308   2.295  52.508  1.00  0.00     0.048 C 
BRANCH  23  24
HETATM   24  C5  UNL     1      28.118   1.096  52.933  1.00  0.00     0.114 C 
BRANCH  24  25
HETATM   25  C6  UNL     1      28.815   1.493  54.210  1.00  0.00     0.139 C 
HETATM   26  O1  UNL     1      28.703   0.934  55.332  1.00  0.00    -0.650 OA
BRANCH  25  27
HETATM   27  O2  UNL     1      29.717   2.481  54.584  1.00  0.00    -0.776 OA
HETATM   28  H8  UNL     1      29.494   3.392  54.904  1.00  0.00     0.167 HD
ENDBRANCH  25  27
ENDBRANCH  24  25
ENDBRANCH  23  24
ENDBRANCH   3  23
TORSDOF 4
ENDMDL
MODEL 5
REMARK VINA RESULT:      -8.1      2.805      6.229
REMARK  4 active torsions:
REMARK  status: ('A' for Active; 'I' for Inactive)
REMARK    1  A    between atoms: C3_3  and  C4_4 
REMARK    2  A    between atoms: C4_4  and  C5_5 
REMARK    3  A    between atoms: C5_5  and  C6_6 
REMARK    4  A    between atoms: C6_6  and  O2_8 
ROOT
HETATM    1  C1  UNL     1      20.033   3.632  51.900  1.00  0.00     0.068 C 
HETATM    2  C2  UNL     1      21.235   2.893  52.334  1.00  0.00     0.006 C 
HETATM    3  C3  UNL     1      21.077   1.608  52.612  1.00  0.00    -0.034 C 
HETATM    4  C7  UNL     1      22.041   0.610  53.082  1.00  0.00     0.215 C 
HETATM    5  O3  UNL     1      23.313   1.177  53.244  1.00  0.00    -0.316 OA
HETATM    6  C8  UNL     1      24.430   0.490  53.651  1.00  0.00     0.279 C 
HETATM    7  O4  UNL     1      24.177  -0.724  53.860  1.00  0.00    -0.263 OA
HETATM    8  C9  UNL     1      25.820   0.873  53.886  1.00  0.00     0.189 C 
HETATM    9  C10 UNL     1      26.736  -0.233  53.417  1.00  0.00     0.059 C 
HETATM   10  C11 UNL     1      26.722  -0.161  51.886  1.00  0.00    -0.017 C 
HETATM   11  C12 UNL     1      26.524   1.142  51.788  1.00  0.00    -0.029 C 
HETATM   12  C13 UNL     1      27.401   2.075  52.642  1.00  0.00     0.159 C 
HETATM   13  N1  UNL     1      26.157   2.232  53.487  1.00  0.00    -0.177 NA
HETATM   14  O5  UNL     1      25.284   2.748  52.559  1.00  0.00    -0.283 OA
HETATM   15  C14 UNL     1      25.731   2.337  51.263  1.00  0.00     0.121 C 
HETATM   16  C15 UNL     1      26.555   3.318  50.551  1.00  0.00     0.058 C 
HETATM   17  C16 UNL     1      24.605   1.918  50.396  1.00  0.00     0.015 C 
HETATM   18  C17 UNL     1      23.550   2.693  50.443  1.00  0.00    -0.003 C 
HETATM   19  C18 UNL     1      23.187   3.908  51.163  1.00  0.00     0.100 C 
HETATM   20  C19 UNL     1      22.469   4.856  50.247  1.00  0.00     0.036 C 
HETATM   21  N2  UNL     1      22.451   3.632  52.400  1.00  0.00    -0.386 N 
HETATM   22  H26 UNL     1      22.361   3.718  53.438  1.00  0.00     0.160 HD
ENDROOT
BRANCH   3  23
HETATM   23  C4  UNL     1      19.786   0.937  52.501  1.00  0.00     0.048 C 
BRANCH  23  24
HETATM   24  C5  UNL     1      19.725  -0.451  53.090  1.00  0.00     0.114 C 
BRANCH  24  25
HETATM   25  C6  UNL     1      18.274  -0.860  53.044  1.00  0.00     0.139 C 
HETATM   26  O1  UNL     1      17.552  -0.951  52.017  1.00  0.00    -0.650 OA
BRANCH  25  27
HETATM   27  O2  UNL     1      17.318  -1.241  53.977  1.00  0.00    -0.776 OA
HETATM   28  H8  UNL     1      16.644  -1.959  53.871  1.00  0.00     0.167 HD
ENDBRANCH  25  27
ENDBRANCH  24  25
ENDBRANCH  23  24
ENDBRANCH   3  23
TORSDOF 4
ENDMDL
MODEL 6
REMARK VINA RESULT:      -8.1      2.254      6.133
REMARK  4 active torsions:
REMARK  status: ('A' for Active; 'I' for Inactive)
REMARK    1  A    between atoms: C3_3  and  C4_4 
REMARK    2  A    between atoms: C4_4  and  C5_5 
REMARK    3  A    between atoms: C5_5  and  C6_6 
REMARK    4  A    between atoms: C6_6  and  O2_8 
ROOT
HETATM    1  C1  UNL     1      22.488   3.837  48.462  1.00  0.00     0.068 C 
HETATM    2  C2  UNL     1      23.551   3.249  49.299  1.00  0.00     0.006 C 
HETATM    3  C3  UNL     1      24.595   4.018  49.566  1.00  0.00    -0.034 C 
HETATM    4  C7  UNL     1      25.812   3.741  50.333  1.00  0.00     0.215 C 
HETATM    5  O3  UNL     1      25.804   2.430  50.831  1.00  0.00    -0.316 OA
HETATM    6  C8  UNL     1      26.796   1.882  51.606  1.00  0.00     0.279 C 
HETATM    7  O4  UNL     1      27.722   2.704  51.823  1.00  0.00    -0.263 OA
HETATM    8  C9  UNL     1      26.989   0.568  52.215  1.00  0.00     0.189 C 
HETATM    9  C10 UNL     1      27.619   0.731  53.579  1.00  0.00     0.059 C 
HETATM   10  C11 UNL     1      26.504   1.256  54.490  1.00  0.00    -0.017 C 
HETATM   11  C12 UNL     1      25.497   0.666  53.868  1.00  0.00    -0.029 C 
HETATM   12  C13 UNL     1      25.634  -0.827  53.521  1.00  0.00     0.159 C 
HETATM   13  N1  UNL     1      25.849  -0.330  52.110  1.00  0.00    -0.177 NA
HETATM   14  O5  UNL     1      24.665   0.333  51.891  1.00  0.00    -0.283 OA
HETATM   15  C14 UNL     1      24.143   0.725  53.165  1.00  0.00     0.121 C 
HETATM   16  C15 UNL     1      23.149  -0.189  53.735  1.00  0.00     0.058 C 
HETATM   17  C16 UNL     1      23.590   2.099  53.138  1.00  0.00     0.015 C 
HETATM   18  C17 UNL     1      22.867   2.386  52.084  1.00  0.00    -0.003 C 
HETATM   19  C18 UNL     1      22.454   1.669  50.883  1.00  0.00     0.100 C 
HETATM   20  C19 UNL     1      21.014   1.962  50.577  1.00  0.00     0.036 C 
HETATM   21  N2  UNL     1      23.347   1.912  49.747  1.00  0.00    -0.386 N 
HETATM   22  H26 UNL     1      23.989   1.548  49.006  1.00  0.00     0.160 HD
ENDROOT
BRANCH   3  23
HETATM   23  C4  UNL     1      24.706   5.385  49.067  1.00  0.00     0.048 C 
BRANCH  23  24
HETATM   24  C5  UNL     1      25.639   6.283  49.840  1.00  0.00     0.114 C 
BRANCH  24  25
HETATM   25  C6  UNL     1      24.771   7.068  50.791  1.00  0.00     0.139 C 
HETATM   26  O1  UNL     1      24.115   8.109  50.524  1.00  0.00    -0.650 OA
BRANCH  25  27
HETATM   27  O2  UNL     1      24.412   6.962  52.128  1.00  0.00    -0.776 OA
HETATM   28  H8  UNL     1      23.523   7.158  52.518  1.00  0.00     0.167 HD
ENDBRANCH  25  27
ENDBRANCH  24  25
ENDBRANCH  23  24
ENDBRANCH   3  23
TORSDOF 4
ENDMDL
MODEL 7
REMARK VINA RESULT:      -7.8      2.403      2.999
REMARK  4 active torsions:
REMARK  status: ('A' for Active; 'I' for Inactive)
REMARK    1  A    between atoms: C3_3  and  C4_4 
REMARK    2  A    between atoms: C4_4  and  C5_5 
REMARK    3  A    between atoms: C5_5  and  C6_6 
REMARK    4  A    between atoms: C6_6  and  O2_8 
ROOT
HETATM    1  C1  UNL     1      23.153   0.198  53.417  1.00  0.00     0.068 C 
HETATM    2  C2  UNL     1      23.146   1.281  52.415  1.00  0.00     0.006 C 
HETATM    3  C3  UNL     1      24.297   1.548  51.817  1.00  0.00    -0.034 C 
HETATM    4  C7  UNL     1      24.636   2.557  50.810  1.00  0.00     0.215 C 
HETATM    5  O3  UNL     1      23.515   3.329  50.476  1.00  0.00    -0.316 OA
HETATM    6  C8  UNL     1      23.510   4.340  49.546  1.00  0.00     0.279 C 
HETATM    7  O4  UNL     1      24.641   4.490  49.019  1.00  0.00    -0.263 OA
HETATM    8  C9  UNL     1      22.481   5.255  49.056  1.00  0.00     0.189 C 
HETATM    9  C10 UNL     1      22.657   5.464  47.571  1.00  0.00     0.059 C 
HETATM   10  C11 UNL     1      22.164   4.172  46.909  1.00  0.00    -0.017 C 
HETATM   11  C12 UNL     1      21.258   3.860  47.820  1.00  0.00    -0.029 C 
HETATM   12  C13 UNL     1      20.288   4.962  48.284  1.00  0.00     0.159 C 
HETATM   13  N1  UNL     1      21.135   4.977  49.536  1.00  0.00    -0.177 NA
HETATM   14  O5  UNL     1      20.977   3.681  49.964  1.00  0.00    -0.283 OA
HETATM   15  C14 UNL     1      20.655   2.880  48.823  1.00  0.00     0.121 C 
HETATM   16  C15 UNL     1      19.222   2.642  48.618  1.00  0.00     0.058 C 
HETATM   17  C16 UNL     1      21.372   1.584  48.834  1.00  0.00     0.015 C 
HETATM   18  C17 UNL     1      21.407   0.979  49.995  1.00  0.00    -0.003 C 
HETATM   19  C18 UNL     1      20.901   1.269  51.332  1.00  0.00     0.100 C 
HETATM   20  C19 UNL     1      20.329   0.026  51.948  1.00  0.00     0.036 C 
HETATM   21  N2  UNL     1      21.898   1.927  52.180  1.00  0.00    -0.386 N 
HETATM   22  H26 UNL     1      22.188   2.737  52.776  1.00  0.00     0.160 HD
ENDROOT
BRANCH   3  23
HETATM   23  C4  UNL     1      25.523   0.817  52.120  1.00  0.00     0.048 C 
BRANCH  23  24
HETATM   24  C5  UNL     1      26.791   1.634  52.078  1.00  0.00     0.114 C 
BRANCH  24  25
HETATM   25  C6  UNL     1      27.124   1.962  53.512  1.00  0.00     0.139 C 
HETATM   26  O1  UNL     1      26.609   1.448  54.539  1.00  0.00    -0.650 OA
BRANCH  25  27
HETATM   27  O2  UNL     1      27.998   2.827  54.157  1.00  0.00    -0.776 OA
HETATM   28  H8  UNL     1      28.060   3.808  54.027  1.00  0.00     0.167 HD
ENDBRANCH  25  27
ENDBRANCH  24  25
ENDBRANCH  23  24
ENDBRANCH   3  23
TORSDOF 4
ENDMDL
MODEL 8
REMARK VINA RESULT:      -7.8      2.921      6.790
REMARK  4 active torsions:
REMARK  status: ('A' for Active; 'I' for Inactive)
REMARK    1  A    between atoms: C3_3  and  C4_4 
REMARK    2  A    between atoms: C4_4  and  C5_5 
REMARK    3  A    between atoms: C5_5  and  C6_6 
REMARK    4  A    between atoms: C6_6  and  O2_8 
ROOT
HETATM    1  C1  UNL     1      23.798   7.706  47.426  1.00  0.00     0.068 C 
HETATM    2  C2  UNL     1      24.196   6.525  48.217  1.00  0.00     0.006 C 
HETATM    3  C3  UNL     1      25.472   6.439  48.562  1.00  0.00    -0.034 C 
HETATM    4  C7  UNL     1      26.188   5.405  49.312  1.00  0.00     0.215 C 
HETATM    5  O3  UNL     1      25.323   4.369  49.690  1.00  0.00    -0.316 OA
HETATM    6  C8  UNL     1      25.695   3.268  50.422  1.00  0.00     0.279 C 
HETATM    7  O4  UNL     1      26.915   3.300  50.721  1.00  0.00    -0.263 OA
HETATM    8  C9  UNL     1      24.977   2.093  50.912  1.00  0.00     0.189 C 
HETATM    9  C10 UNL     1      25.478   1.733  52.290  1.00  0.00     0.059 C 
HETATM   10  C11 UNL     1      24.888   2.786  53.235  1.00  0.00    -0.017 C 
HETATM   11  C12 UNL     1      23.778   3.009  52.552  1.00  0.00    -0.029 C 
HETATM   12  C13 UNL     1      22.964   1.793  52.074  1.00  0.00     0.159 C 
HETATM   13  N1  UNL     1      23.535   2.130  50.715  1.00  0.00    -0.177 NA
HETATM   14  O5  UNL     1      23.051   3.406  50.546  1.00  0.00    -0.283 OA
HETATM   15  C14 UNL     1      22.813   3.958  51.845  1.00  0.00     0.121 C 
HETATM   16  C15 UNL     1      21.431   3.847  52.321  1.00  0.00     0.058 C 
HETATM   17  C16 UNL     1      23.254   5.369  51.937  1.00  0.00     0.015 C 
HETATM   18  C17 UNL     1      22.943   6.116  50.906  1.00  0.00    -0.003 C 
HETATM   19  C18 UNL     1      22.249   5.901  49.642  1.00  0.00     0.100 C 
HETATM   20  C19 UNL     1      21.339   7.059  49.350  1.00  0.00     0.036 C 
HETATM   21  N2  UNL     1      23.166   5.596  48.541  1.00  0.00    -0.386 N 
HETATM   22  H26 UNL     1      23.481   4.955  47.776  1.00  0.00     0.160 HD
ENDROOT
BRANCH   3  23
HETATM   23  C4  UNL     1      26.452   7.454  48.189  1.00  0.00     0.048 C 
BRANCH  23  24
HETATM   24  C5  UNL     1      27.556   7.687  49.190  1.00  0.00     0.114 C 
BRANCH  24  25
HETATM   25  C6  UNL     1      27.132   8.881  50.009  1.00  0.00     0.139 C 
HETATM   26  O1  UNL     1      26.130   9.615  49.804  1.00  0.00    -0.650 OA
BRANCH  25  27
HETATM   27  O2  UNL     1      27.613   9.535  51.136  1.00  0.00    -0.776 OA
HETATM   28  H8  UNL     1      28.333  10.214  51.162  1.00  0.00     0.167 HD
ENDBRANCH  25  27
ENDBRANCH  24  25
ENDBRANCH  23  24
ENDBRANCH   3  23
TORSDOF 4
ENDMDL
MODEL 9
REMARK VINA RESULT:      -7.6      3.512      6.597
REMARK  4 active torsions:
REMARK  status: ('A' for Active; 'I' for Inactive)
REMARK    1  A    between atoms: C3_3  and  C4_4 
REMARK    2  A    between atoms: C4_4  and  C5_5 
REMARK    3  A    between atoms: C5_5  and  C6_6 
REMARK    4  A    between atoms: C6_6  and  O2_8 
ROOT
HETATM    1  C1  UNL     1      26.901   8.454  47.160  1.00  0.00     0.068 C 
HETATM    2  C2  UNL     1      26.434   7.218  47.817  1.00  0.00     0.006 C 
HETATM    3  C3  UNL     1      27.366   6.402  48.286  1.00  0.00    -0.034 C 
HETATM    4  C7  UNL     1      27.247   5.107  48.959  1.00  0.00     0.215 C 
HETATM    5  O3  UNL     1      25.903   4.730  49.090  1.00  0.00    -0.316 OA
HETATM    6  C8  UNL     1      25.469   3.578  49.698  1.00  0.00     0.279 C 
HETATM    7  O4  UNL     1      26.430   2.893  50.132  1.00  0.00    -0.263 OA
HETATM    8  C9  UNL     1      24.149   2.998  49.936  1.00  0.00     0.189 C 
HETATM    9  C10 UNL     1      24.122   2.345  51.297  1.00  0.00     0.059 C 
HETATM   10  C11 UNL     1      24.065   3.496  52.309  1.00  0.00    -0.017 C 
HETATM   11  C12 UNL     1      23.402   4.347  51.545  1.00  0.00    -0.029 C 
HETATM   12  C13 UNL     1      22.146   3.839  50.813  1.00  0.00     0.159 C 
HETATM   13  N1  UNL     1      23.029   3.861  49.587  1.00  0.00    -0.177 NA
HETATM   14  O5  UNL     1      23.373   5.191  49.546  1.00  0.00    -0.283 OA
HETATM   15  C14 UNL     1      23.263   5.712  50.874  1.00  0.00     0.121 C 
HETATM   16  C15 UNL     1      21.995   6.384  51.174  1.00  0.00     0.058 C 
HETATM   17  C16 UNL     1      24.390   6.613  51.211  1.00  0.00     0.015 C 
HETATM   18  C17 UNL     1      24.727   7.456  50.267  1.00  0.00    -0.003 C 
HETATM   19  C18 UNL     1      24.259   7.743  48.916  1.00  0.00     0.100 C 
HETATM   20  C19 UNL     1      24.212   9.226  48.690  1.00  0.00     0.036 C 
HETATM   21  N2  UNL     1      25.024   7.026  47.891  1.00  0.00    -0.386 N 
HETATM   22  H26 UNL     1      25.056   6.361  47.084  1.00  0.00     0.160 HD
ENDROOT
BRANCH   3  23
HETATM   23  C4  UNL     1      28.791   6.696  48.170  1.00  0.00     0.048 C 
BRANCH  23  24
HETATM   24  C5  UNL     1      29.704   5.495  48.207  1.00  0.00     0.114 C 
BRANCH  24  25
HETATM   25  C6  UNL     1      30.884   5.894  49.057  1.00  0.00     0.139 C 
HETATM   26  O1  UNL     1      31.733   6.785  48.793  1.00  0.00    -0.650 OA
BRANCH  25  27
HETATM   27  O2  UNL     1      31.410   5.492  50.278  1.00  0.00    -0.776 OA
HETATM   28  H8  UNL     1      31.053   5.713  51.175  1.00  0.00     0.167 HD
ENDBRANCH  25  27
ENDBRANCH  24  25
ENDBRANCH  23  24
ENDBRANCH   3  23
TORSDOF 4
ENDMDL
