MODEL 1
REMARK VINA RESULT:      -7.0      0.000      0.000
REMARK  9 active torsions:
REMARK  status: ('A' for Active; 'I' for Inactive)
REMARK    1  A    between atoms: C2_2  and  N1_5 
REMARK    2  A    between atoms: N1_5  and  C5_6 
REMARK    3  A    between atoms: C5_6  and  C6_7 
REMARK    4  A    between atoms: C6_7  and  O1_8 
REMARK    5  A    between atoms: O1_8  and  C7_9 
REMARK    6  A    between atoms: C12_16  and  O2_17 
REMARK    7  A    between atoms: O2_17  and  C13_18 
REMARK    8  A    between atoms: C13_18  and  N4_19 
REMARK    9  A    between atoms: N4_19  and  C14_20 
ROOT
HETATM    1  C7  UNL     1      25.554   1.496  53.074  1.00  0.00     0.102 C 
HETATM    2  C8  UNL     1      26.674   2.203  53.149  1.00  0.00     0.034 C 
HETATM    3  C9  UNL     1      28.071   2.043  53.549  1.00  0.00     0.180 C 
HETATM    4  N2  UNL     1      28.636   0.749  53.415  1.00  0.00    -0.279 NA
HETATM    5  C10 UNL     1      28.417  -0.516  53.492  1.00  0.00     0.227 C 
HETATM    6  N3  UNL     1      27.133  -1.069  53.842  1.00  0.00    -0.237 NA
HETATM    7  C11 UNL     1      25.959  -1.012  53.361  1.00  0.00     0.126 C 
HETATM    8  C12 UNL     1      25.239   0.092  53.410  1.00  0.00     0.135 C 
ENDROOT
BRANCH   8   9
HETATM    9  O2  UNL     1      23.940  -0.048  53.852  1.00  0.00    -0.327 OA
BRANCH   9  10
HETATM   10  C13 UNL     1      23.004  -0.985  53.431  1.00  0.00     0.298 C 
BRANCH  10  11
HETATM   11  N4  UNL     1      21.641  -0.476  53.460  1.00  0.00    -0.368 N 
HETATM   12  H21 UNL     1      20.888  -0.792  54.111  1.00  0.00     0.161 HD
BRANCH  11  13
HETATM   13  C14 UNL     1      21.291   0.539  52.526  1.00  0.00     0.031 A 
HETATM   14  C15 UNL     1      20.696   1.729  52.898  1.00  0.00     0.032 A 
HETATM   15  C16 UNL     1      20.345   2.731  52.028  1.00  0.00     0.046 A 
HETATM   16  C17 UNL     1      20.600   2.550  50.671  1.00  0.00     0.138 A 
HETATM   17  F1  UNL     1      20.285   3.489  49.740  1.00  0.00    -0.204 F 
HETATM   18  C18 UNL     1      21.192   1.382  50.235  1.00  0.00     0.074 A 
HETATM   19 CL1  UNL     1      21.526   1.131  48.518  1.00  0.00    -0.081 Cl
HETATM   20  C19 UNL     1      21.516   0.423  51.172  1.00  0.00     0.056 A 
ENDBRANCH  11  13
ENDBRANCH  10  11
ENDBRANCH   9  10
ENDBRANCH   8   9
BRANCH   1  21
HETATM   21  O1  UNL     1      24.437   2.150  52.598  1.00  0.00    -0.347 OA
BRANCH  21  22
HETATM   22  C6  UNL     1      24.089   3.465  52.925  1.00  0.00     0.205 C 
BRANCH  22  23
HETATM   23  C5  UNL     1      23.769   4.279  51.668  1.00  0.00     0.297 C 
BRANCH  23  24
HETATM   24  N1  UNL     1      25.025   4.742  51.128  1.00  0.00     0.094 N 
HETATM   25  H10 UNL     1      25.224   5.726  51.308  1.00  0.00     0.316 HD
BRANCH  24  26
HETATM   26  C2  UNL     1      25.300   4.297  49.794  1.00  0.00     0.147 C 
HETATM   27  C1  UNL     1      26.467   3.374  49.691  1.00  0.00     0.048 C 
HETATM   28  C3  UNL     1      25.572   5.517  48.943  1.00  0.00     0.048 C 
HETATM   29  C4  UNL     1      24.098   3.591  49.175  1.00  0.00     0.048 C 
ENDBRANCH  24  26
ENDBRANCH  23  24
ENDBRANCH  22  23
ENDBRANCH  21  22
ENDBRANCH   1  21
TORSDOF 9
ENDMDL
MODEL 2
REMARK VINA RESULT:      -6.9      1.085      1.400
REMARK  9 active torsions:
REMARK  status: ('A' for Active; 'I' for Inactive)
REMARK    1  A    between atoms: C2_2  and  N1_5 
REMARK    2  A    between atoms: N1_5  and  C5_6 
REMARK    3  A    between atoms: C5_6  and  C6_7 
REMARK    4  A    between atoms: C6_7  and  O1_8 
REMARK    5  A    between atoms: O1_8  and  C7_9 
REMARK    6  A    between atoms: C12_16  and  O2_17 
REMARK    7  A    between atoms: O2_17  and  C13_18 
REMARK    8  A    between atoms: C13_18  and  N4_19 
REMARK    9  A    between atoms: N4_19  and  C14_20 
ROOT
HETATM    1  C7  UNL     1      26.008   1.551  53.112  1.00  0.00     0.102 C 
HETATM    2  C8  UNL     1      27.096   2.311  53.105  1.00  0.00     0.034 C 
HETATM    3  C9  UNL     1      28.502   2.253  53.501  1.00  0.00     0.180 C 
HETATM    4  N2  UNL     1      29.123   0.978  53.484  1.00  0.00    -0.279 NA
HETATM    5  C10 UNL     1      28.963  -0.283  53.683  1.00  0.00     0.227 C 
HETATM    6  N3  UNL     1      27.709  -0.855  54.101  1.00  0.00    -0.237 NA
HETATM    7  C11 UNL     1      26.530  -0.898  53.632  1.00  0.00     0.126 C 
HETATM    8  C12 UNL     1      25.760   0.172  53.584  1.00  0.00     0.135 C 
ENDROOT
BRANCH   8   9
HETATM    9  O2  UNL     1      24.473   0.018  54.054  1.00  0.00    -0.327 OA
BRANCH   9  10
HETATM   10  C13 UNL     1      23.495  -0.837  53.563  1.00  0.00     0.298 C 
BRANCH  10  11
HETATM   11  N4  UNL     1      22.148  -0.435  53.942  1.00  0.00    -0.368 N 
HETATM   12  H21 UNL     1      21.797  -0.338  54.920  1.00  0.00     0.161 HD
BRANCH  11  13
HETATM   13  C14 UNL     1      21.222  -0.148  52.901  1.00  0.00     0.031 A 
HETATM   14  C15 UNL     1      19.854  -0.258  53.061  1.00  0.00     0.032 A 
HETATM   15  C16 UNL     1      18.931   0.011  52.082  1.00  0.00     0.046 A 
HETATM   16  C17 UNL     1      19.388   0.424  50.834  1.00  0.00     0.138 A 
HETATM   17  F1  UNL     1      18.545   0.711  49.807  1.00  0.00    -0.204 F 
HETATM   18  C18 UNL     1      20.745   0.553  50.610  1.00  0.00     0.074 A 
HETATM   19 CL1  UNL     1      21.349   1.077  49.034  1.00  0.00    -0.081 Cl
HETATM   20  C19 UNL     1      21.609   0.265  51.645  1.00  0.00     0.056 A 
ENDBRANCH  11  13
ENDBRANCH  10  11
ENDBRANCH   9  10
ENDBRANCH   8   9
BRANCH   1  21
HETATM   21  O1  UNL     1      24.859   2.106  52.590  1.00  0.00    -0.347 OA
BRANCH  21  22
HETATM   22  C6  UNL     1      24.316   3.331  52.992  1.00  0.00     0.205 C 
BRANCH  22  23
HETATM   23  C5  UNL     1      23.836   4.143  51.786  1.00  0.00     0.297 C 
BRANCH  23  24
HETATM   24  N1  UNL     1      25.006   4.713  51.161  1.00  0.00     0.094 N 
HETATM   25  H10 UNL     1      25.153   5.701  51.367  1.00  0.00     0.316 HD
BRANCH  24  26
HETATM   26  C2  UNL     1      25.191   4.341  49.790  1.00  0.00     0.147 C 
HETATM   27  C1  UNL     1      24.124   3.446  49.255  1.00  0.00     0.048 C 
HETATM   28  C3  UNL     1      26.521   3.630  49.675  1.00  0.00     0.048 C 
HETATM   29  C4  UNL     1      25.268   5.562  48.879  1.00  0.00     0.048 C 
ENDBRANCH  24  26
ENDBRANCH  23  24
ENDBRANCH  22  23
ENDBRANCH  21  22
ENDBRANCH   1  21
TORSDOF 9
ENDMDL
MODEL 3
REMARK VINA RESULT:      -6.9      1.740      2.198
REMARK  9 active torsions:
REMARK  status: ('A' for Active; 'I' for Inactive)
REMARK    1  A    between atoms: C2_2  and  N1_5 
REMARK    2  A    between atoms: N1_5  and  C5_6 
REMARK    3  A    between atoms: C5_6  and  C6_7 
REMARK    4  A    between atoms: C6_7  and  O1_8 
REMARK    5  A    between atoms: O1_8  and  C7_9 
REMARK    6  A    between atoms: C12_16  and  O2_17 
REMARK    7  A    between atoms: O2_17  and  C13_18 
REMARK    8  A    between atoms: C13_18  and  N4_19 
REMARK    9  A    between atoms: N4_19  and  C14_20 
ROOT
HETATM    1  C7  UNL     1      26.605   1.203  52.367  1.00  0.00     0.102 C 
HETATM    2  C8  UNL     1      27.498   2.108  52.748  1.00  0.00     0.034 C 
HETATM    3  C9  UNL     1      28.669   2.226  53.614  1.00  0.00     0.180 C 
HETATM    4  N2  UNL     1      29.445   1.055  53.811  1.00  0.00    -0.279 NA
HETATM    5  C10 UNL     1      29.420  -0.225  53.934  1.00  0.00     0.227 C 
HETATM    6  N3  UNL     1      28.202  -0.993  53.881  1.00  0.00    -0.237 NA
HETATM    7  C11 UNL     1      27.281  -1.174  53.025  1.00  0.00     0.126 C 
HETATM    8  C12 UNL     1      26.422  -0.222  52.714  1.00  0.00     0.135 C 
ENDROOT
BRANCH   8   9
HETATM    9  O2  UNL     1      25.092  -0.584  52.700  1.00  0.00    -0.327 OA
BRANCH   9  10
HETATM   10  C13 UNL     1      24.156  -0.390  53.709  1.00  0.00     0.298 C 
BRANCH  10  11
HETATM   11  N4  UNL     1      23.250   0.716  53.438  1.00  0.00    -0.368 N 
HETATM   12  H21 UNL     1      23.489   1.729  53.514  1.00  0.00     0.161 HD
BRANCH  11  13
HETATM   13  C14 UNL     1      21.923   0.403  53.033  1.00  0.00     0.031 A 
HETATM   14  C15 UNL     1      21.050  -0.325  53.819  1.00  0.00     0.032 A 
HETATM   15  C16 UNL     1      19.764  -0.646  53.463  1.00  0.00     0.046 A 
HETATM   16  C17 UNL     1      19.290  -0.215  52.227  1.00  0.00     0.138 A 
HETATM   17  F1  UNL     1      18.030  -0.489  51.795  1.00  0.00    -0.204 F 
HETATM   18  C18 UNL     1      20.114   0.516  51.395  1.00  0.00     0.074 A 
HETATM   19 CL1  UNL     1      19.534   1.074  49.822  1.00  0.00    -0.081 Cl
HETATM   20  C19 UNL     1      21.393   0.799  51.824  1.00  0.00     0.056 A 
ENDBRANCH  11  13
ENDBRANCH  10  11
ENDBRANCH   9  10
ENDBRANCH   8   9
BRANCH   1  21
HETATM   21  O1  UNL     1      25.639   1.620  51.476  1.00  0.00    -0.347 OA
BRANCH  21  22
HETATM   22  C6  UNL     1      25.086   2.905  51.450  1.00  0.00     0.205 C 
BRANCH  22  23
HETATM   23  C5  UNL     1      25.334   3.583  50.099  1.00  0.00     0.297 C 
BRANCH  23  24
HETATM   24  N1  UNL     1      26.107   4.775  50.356  1.00  0.00     0.094 N 
HETATM   25  H10 UNL     1      26.187   5.021  51.343  1.00  0.00     0.316 HD
BRANCH  24  26
HETATM   26  C2  UNL     1      25.826   5.870  49.476  1.00  0.00     0.147 C 
HETATM   27  C1  UNL     1      24.594   5.688  48.656  1.00  0.00     0.048 C 
HETATM   28  C3  UNL     1      27.006   6.036  48.545  1.00  0.00     0.048 C 
HETATM   29  C4  UNL     1      25.682   7.184  50.237  1.00  0.00     0.048 C 
ENDBRANCH  24  26
ENDBRANCH  23  24
ENDBRANCH  22  23
ENDBRANCH  21  22
ENDBRANCH   1  21
TORSDOF 9
ENDMDL
MODEL 4
REMARK VINA RESULT:      -6.9      5.164      7.960
REMARK  9 active torsions:
REMARK  status: ('A' for Active; 'I' for Inactive)
REMARK    1  A    between atoms: C2_2  and  N1_5 
REMARK    2  A    between atoms: N1_5  and  C5_6 
REMARK    3  A    between atoms: C5_6  and  C6_7 
REMARK    4  A    between atoms: C6_7  and  O1_8 
REMARK    5  A    between atoms: O1_8  and  C7_9 
REMARK    6  A    between atoms: C12_16  and  O2_17 
REMARK    7  A    between atoms: O2_17  and  C13_18 
REMARK    8  A    between atoms: C13_18  and  N4_19 
REMARK    9  A    between atoms: N4_19  and  C14_20 
ROOT
HETATM    1  C7  UNL     1      28.589   6.121  48.140  1.00  0.00     0.102 C 
HETATM    2  C8  UNL     1      28.861   7.093  47.279  1.00  0.00     0.034 C 
HETATM    3  C9  UNL     1      28.167   8.069  46.441  1.00  0.00     0.180 C 
HETATM    4  N2  UNL     1      26.902   8.523  46.894  1.00  0.00    -0.279 NA
HETATM    5  C10 UNL     1      25.816   8.201  47.505  1.00  0.00     0.227 C 
HETATM    6  N3  UNL     1      25.578   6.882  48.033  1.00  0.00    -0.237 NA
HETATM    7  C11 UNL     1      26.144   6.130  48.886  1.00  0.00     0.126 C 
HETATM    8  C12 UNL     1      27.317   5.573  48.654  1.00  0.00     0.135 C 
ENDROOT
BRANCH   8   9
HETATM    9  O2  UNL     1      27.415   4.226  48.929  1.00  0.00    -0.327 OA
BRANCH   9  10
HETATM   10  C13 UNL     1      26.494   3.436  49.606  1.00  0.00     0.298 C 
BRANCH  10  11
HETATM   11  N4  UNL     1      26.852   3.216  51.000  1.00  0.00    -0.368 N 
HETATM   12  H21 UNL     1      27.568   3.755  51.535  1.00  0.00     0.161 HD
BRANCH  11  13
HETATM   13  C14 UNL     1      26.177   2.181  51.703  1.00  0.00     0.031 A 
HETATM   14  C15 UNL     1      24.940   2.357  52.294  1.00  0.00     0.032 A 
HETATM   15  C16 UNL     1      24.257   1.384  52.980  1.00  0.00     0.046 A 
HETATM   16  C17 UNL     1      24.838   0.124  53.098  1.00  0.00     0.138 A 
HETATM   17  F1  UNL     1      24.233  -0.898  53.760  1.00  0.00    -0.204 F 
HETATM   18  C18 UNL     1      26.074  -0.116  52.530  1.00  0.00     0.074 A 
HETATM   19 CL1  UNL     1      26.830  -1.708  52.667  1.00  0.00    -0.081 Cl
HETATM   20  C19 UNL     1      26.696   0.913  51.856  1.00  0.00     0.056 A 
ENDBRANCH  11  13
ENDBRANCH  10  11
ENDBRANCH   9  10
ENDBRANCH   8   9
BRANCH   1  21
HETATM   21  O1  UNL     1      29.667   5.461  48.692  1.00  0.00    -0.347 OA
BRANCH  21  22
HETATM   22  C6  UNL     1      30.998   5.876  48.571  1.00  0.00     0.205 C 
BRANCH  22  23
HETATM   23  C5  UNL     1      31.813   4.876  47.747  1.00  0.00     0.297 C 
BRANCH  23  24
HETATM   24  N1  UNL     1      32.926   4.456  48.565  1.00  0.00     0.094 N 
HETATM   25  H10 UNL     1      32.848   4.716  49.547  1.00  0.00     0.316 HD
BRANCH  24  26
HETATM   26  C2  UNL     1      34.215   4.673  47.976  1.00  0.00     0.147 C 
HETATM   27  C1  UNL     1      34.173   5.409  46.680  1.00  0.00     0.048 C 
HETATM   28  C3  UNL     1      34.856   3.323  47.746  1.00  0.00     0.048 C 
HETATM   29  C4  UNL     1      35.140   5.442  48.913  1.00  0.00     0.048 C 
ENDBRANCH  24  26
ENDBRANCH  23  24
ENDBRANCH  22  23
ENDBRANCH  21  22
ENDBRANCH   1  21
TORSDOF 9
ENDMDL
MODEL 5
REMARK VINA RESULT:      -6.8      3.258      6.257
REMARK  9 active torsions:
REMARK  status: ('A' for Active; 'I' for Inactive)
REMARK    1  A    between atoms: C2_2  and  N1_5 
REMARK    2  A    between atoms: N1_5  and  C5_6 
REMARK    3  A    between atoms: C5_6  and  C6_7 
REMARK    4  A    between atoms: C6_7  and  O1_8 
REMARK    5  A    between atoms: O1_8  and  C7_9 
REMARK    6  A    between atoms: C12_16  and  O2_17 
REMARK    7  A    between atoms: O2_17  and  C13_18 
REMARK    8  A    between atoms: C13_18  and  N4_19 
REMARK    9  A    between atoms: N4_19  and  C14_20 
ROOT
HETATM    1  C7  UNL     1      21.840   2.826  52.181  1.00  0.00     0.102 C 
HETATM    2  C8  UNL     1      20.786   3.570  51.871  1.00  0.00     0.034 C 
HETATM    3  C9  UNL     1      19.428   3.421  51.351  1.00  0.00     0.180 C 
HETATM    4  N2  UNL     1      18.762   2.200  51.627  1.00  0.00    -0.279 NA
HETATM    5  C10 UNL     1      18.896   0.930  51.779  1.00  0.00     0.227 C 
HETATM    6  N3  UNL     1      20.166   0.258  51.665  1.00  0.00    -0.237 NA
HETATM    7  C11 UNL     1      21.287   0.330  52.257  1.00  0.00     0.126 C 
HETATM    8  C12 UNL     1      22.086   1.370  52.112  1.00  0.00     0.135 C 
ENDROOT
BRANCH   8   9
HETATM    9  O2  UNL     1      23.408   1.088  51.843  1.00  0.00    -0.327 OA
BRANCH   9  10
HETATM   10  C13 UNL     1      24.331   0.491  52.692  1.00  0.00     0.298 C 
BRANCH  10  11
HETATM   11  N4  UNL     1      25.363   1.412  53.147  1.00  0.00    -0.368 N 
HETATM   12  H21 UNL     1      25.216   2.417  53.387  1.00  0.00     0.161 HD
BRANCH  11  13
HETATM   13  C14 UNL     1      26.688   0.911  53.280  1.00  0.00     0.031 A 
HETATM   14  C15 UNL     1      27.766   1.716  53.593  1.00  0.00     0.032 A 
HETATM   15  C16 UNL     1      29.058   1.271  53.731  1.00  0.00     0.046 A 
HETATM   16  C17 UNL     1      29.315  -0.085  53.544  1.00  0.00     0.138 A 
HETATM   17  F1  UNL     1      30.563  -0.612  53.660  1.00  0.00    -0.204 F 
HETATM   18  C18 UNL     1      28.279  -0.941  53.228  1.00  0.00     0.074 A 
HETATM   19 CL1  UNL     1      28.582  -2.666  52.987  1.00  0.00    -0.081 Cl
HETATM   20  C19 UNL     1      27.009  -0.417  53.109  1.00  0.00     0.056 A 
ENDBRANCH  11  13
ENDBRANCH  10  11
ENDBRANCH   9  10
ENDBRANCH   8   9
BRANCH   1  21
HETATM   21  O1  UNL     1      22.948   3.489  52.667  1.00  0.00    -0.347 OA
BRANCH  21  22
HETATM   22  C6  UNL     1      23.124   4.876  52.621  1.00  0.00     0.205 C 
BRANCH  22  23
HETATM   23  C5  UNL     1      23.893   5.291  51.363  1.00  0.00     0.297 C 
BRANCH  23  24
HETATM   24  N1  UNL     1      25.064   4.451  51.282  1.00  0.00     0.094 N 
HETATM   25  H10 UNL     1      25.862   4.787  51.821  1.00  0.00     0.316 HD
BRANCH  24  26
HETATM   26  C2  UNL     1      25.373   3.983  49.962  1.00  0.00     0.147 C 
HETATM   27  C1  UNL     1      24.209   3.392  49.241  1.00  0.00     0.048 C 
HETATM   28  C3  UNL     1      26.453   2.932  50.081  1.00  0.00     0.048 C 
HETATM   29  C4  UNL     1      25.940   5.096  49.088  1.00  0.00     0.048 C 
ENDBRANCH  24  26
ENDBRANCH  23  24
ENDBRANCH  22  23
ENDBRANCH  21  22
ENDBRANCH   1  21
TORSDOF 9
ENDMDL
MODEL 6
REMARK VINA RESULT:      -6.8      1.755      4.227
REMARK  9 active torsions:
REMARK  status: ('A' for Active; 'I' for Inactive)
REMARK    1  A    between atoms: C2_2  and  N1_5 
REMARK    2  A    between atoms: N1_5  and  C5_6 
REMARK    3  A    between atoms: C5_6  and  C6_7 
REMARK    4  A    between atoms: C6_7  and  O1_8 
REMARK    5  A    between atoms: O1_8  and  C7_9 
REMARK    6  A    between atoms: C12_16  and  O2_17 
REMARK    7  A    between atoms: O2_17  and  C13_18 
REMARK    8  A    between atoms: C13_18  and  N4_19 
REMARK    9  A    between atoms: N4_19  and  C14_20 
ROOT
HETATM    1  C7  UNL     1      26.129  -0.418  53.774  1.00  0.00     0.102 C 
HETATM    2  C8  UNL     1      26.232  -1.531  53.058  1.00  0.00     0.034 C 
HETATM    3  C9  UNL     1      27.257  -2.366  52.434  1.00  0.00     0.180 C 
HETATM    4  N2  UNL     1      28.539  -2.373  53.039  1.00  0.00    -0.279 NA
HETATM    5  C10 UNL     1      29.419  -1.676  53.667  1.00  0.00     0.227 C 
HETATM    6  N3  UNL     1      29.226  -0.287  53.998  1.00  0.00    -0.237 NA
HETATM    7  C11 UNL     1      28.384   0.374  54.681  1.00  0.00     0.126 C 
HETATM    8  C12 UNL     1      27.137   0.535  54.283  1.00  0.00     0.135 C 
ENDROOT
BRANCH   8   9
HETATM    9  O2  UNL     1      26.643   1.821  54.337  1.00  0.00    -0.327 OA
BRANCH   9  10
HETATM   10  C13 UNL     1      26.091   2.554  53.293  1.00  0.00     0.298 C 
BRANCH  10  11
HETATM   11  N4  UNL     1      24.735   3.006  53.572  1.00  0.00    -0.368 N 
HETATM   12  H21 UNL     1      24.256   2.953  54.498  1.00  0.00     0.161 HD
BRANCH  11  13
HETATM   13  C14 UNL     1      23.990   3.569  52.500  1.00  0.00     0.031 A 
HETATM   14  C15 UNL     1      23.282   4.750  52.617  1.00  0.00     0.032 A 
HETATM   15  C16 UNL     1      22.552   5.325  51.606  1.00  0.00     0.046 A 
HETATM   16  C17 UNL     1      22.513   4.686  50.370  1.00  0.00     0.138 A 
HETATM   17  F1  UNL     1      21.815   5.183  49.314  1.00  0.00    -0.204 F 
HETATM   18  C18 UNL     1      23.200   3.501  50.189  1.00  0.00     0.074 A 
HETATM   19 CL1  UNL     1      23.164   2.672  48.629  1.00  0.00    -0.081 Cl
HETATM   20  C19 UNL     1      23.911   2.988  51.253  1.00  0.00     0.056 A 
ENDBRANCH  11  13
ENDBRANCH  10  11
ENDBRANCH   9  10
ENDBRANCH   8   9
BRANCH   1  21
HETATM   21  O1  UNL     1      24.857  -0.031  54.139  1.00  0.00    -0.347 OA
BRANCH  21  22
HETATM   22  C6  UNL     1      23.913  -0.872  54.737  1.00  0.00     0.205 C 
BRANCH  22  23
HETATM   23  C5  UNL     1      22.652  -0.985  53.876  1.00  0.00     0.297 C 
BRANCH  23  24
HETATM   24  N1  UNL     1      22.504   0.265  53.170  1.00  0.00     0.094 N 
HETATM   25  H10 UNL     1      22.894   1.072  53.656  1.00  0.00     0.316 HD
BRANCH  24  26
HETATM   26  C2  UNL     1      21.211   0.471  52.585  1.00  0.00     0.147 C 
HETATM   27  C1  UNL     1      21.180   0.294  51.105  1.00  0.00     0.048 C 
HETATM   28  C3  UNL     1      20.770   1.880  52.914  1.00  0.00     0.048 C 
HETATM   29  C4  UNL     1      20.166  -0.464  53.184  1.00  0.00     0.048 C 
ENDBRANCH  24  26
ENDBRANCH  23  24
ENDBRANCH  22  23
ENDBRANCH  21  22
ENDBRANCH   1  21
TORSDOF 9
ENDMDL
MODEL 7
REMARK VINA RESULT:      -6.8      1.925      2.544
REMARK  9 active torsions:
REMARK  status: ('A' for Active; 'I' for Inactive)
REMARK    1  A    between atoms: C2_2  and  N1_5 
REMARK    2  A    between atoms: N1_5  and  C5_6 
REMARK    3  A    between atoms: C5_6  and  C6_7 
REMARK    4  A    between atoms: C6_7  and  O1_8 
REMARK    5  A    between atoms: O1_8  and  C7_9 
REMARK    6  A    between atoms: C12_16  and  O2_17 
REMARK    7  A    between atoms: O2_17  and  C13_18 
REMARK    8  A    between atoms: C13_18  and  N4_19 
REMARK    9  A    between atoms: N4_19  and  C14_20 
ROOT
HETATM    1  C7  UNL     1      26.836   1.676  52.185  1.00  0.00     0.102 C 
HETATM    2  C8  UNL     1      27.867   2.339  52.695  1.00  0.00     0.034 C 
HETATM    3  C9  UNL     1      28.695   2.360  53.899  1.00  0.00     0.180 C 
HETATM    4  N2  UNL     1      28.858   1.133  54.591  1.00  0.00    -0.279 NA
HETATM    5  C10 UNL     1      28.297   0.028  54.936  1.00  0.00     0.227 C 
HETATM    6  N3  UNL     1      26.944  -0.309  54.574  1.00  0.00    -0.237 NA
HETATM    7  C11 UNL     1      26.307  -0.461  53.486  1.00  0.00     0.126 C 
HETATM    8  C12 UNL     1      26.018   0.559  52.700  1.00  0.00     0.135 C 
ENDROOT
BRANCH   8   9
HETATM    9  O2  UNL     1      24.715   0.633  52.255  1.00  0.00    -0.327 OA
BRANCH   9  10
HETATM   10  C13 UNL     1      23.622   1.156  52.935  1.00  0.00     0.298 C 
BRANCH  10  11
HETATM   11  N4  UNL     1      22.827   0.134  53.603  1.00  0.00    -0.368 N 
HETATM   12  H21 UNL     1      23.151  -0.466  54.392  1.00  0.00     0.161 HD
BRANCH  11  13
HETATM   13  C14 UNL     1      21.495  -0.072  53.149  1.00  0.00     0.031 A 
HETATM   14  C15 UNL     1      20.564  -0.803  53.862  1.00  0.00     0.032 A 
HETATM   15  C16 UNL     1      19.271  -1.023  53.459  1.00  0.00     0.046 A 
HETATM   16  C17 UNL     1      18.852  -0.478  52.248  1.00  0.00     0.138 A 
HETATM   17  F1  UNL     1      17.589  -0.646  51.772  1.00  0.00    -0.204 F 
HETATM   18  C18 UNL     1      19.735   0.263  51.489  1.00  0.00     0.074 A 
HETATM   19 CL1  UNL     1      19.225   0.965  49.949  1.00  0.00    -0.081 Cl
HETATM   20  C19 UNL     1      21.018   0.440  51.963  1.00  0.00     0.056 A 
ENDBRANCH  11  13
ENDBRANCH  10  11
ENDBRANCH   9  10
ENDBRANCH   8   9
BRANCH   1  21
HETATM   21  O1  UNL     1      26.405   2.065  50.934  1.00  0.00    -0.347 OA
BRANCH  21  22
HETATM   22  C6  UNL     1      26.593   3.341  50.392  1.00  0.00     0.205 C 
BRANCH  22  23
HETATM   23  C5  UNL     1      25.327   3.829  49.681  1.00  0.00     0.297 C 
BRANCH  23  24
HETATM   24  N1  UNL     1      24.268   2.907  50.016  1.00  0.00     0.094 N 
HETATM   25  H10 UNL     1      24.524   1.924  49.935  1.00  0.00     0.316 HD
BRANCH  24  26
HETATM   26  C2  UNL     1      22.986   3.251  49.475  1.00  0.00     0.147 C 
HETATM   27  C1  UNL     1      22.318   2.136  48.744  1.00  0.00     0.048 C 
HETATM   28  C3  UNL     1      23.177   4.409  48.522  1.00  0.00     0.048 C 
HETATM   29  C4  UNL     1      22.026   3.731  50.559  1.00  0.00     0.048 C 
ENDBRANCH  24  26
ENDBRANCH  23  24
ENDBRANCH  22  23
ENDBRANCH  21  22
ENDBRANCH   1  21
TORSDOF 9
ENDMDL
MODEL 8
REMARK VINA RESULT:      -6.8      1.705      2.237
REMARK  9 active torsions:
REMARK  status: ('A' for Active; 'I' for Inactive)
REMARK    1  A    between atoms: C2_2  and  N1_5 
REMARK    2  A    between atoms: N1_5  and  C5_6 
REMARK    3  A    between atoms: C5_6  and  C6_7 
REMARK    4  A    between atoms: C6_7  and  O1_8 
REMARK    5  A    between atoms: O1_8  and  C7_9 
REMARK    6  A    between atoms: C12_16  and  O2_17 
REMARK    7  A    between atoms: O2_17  and  C13_18 
REMARK    8  A    between atoms: C13_18  and  N4_19 
REMARK    9  A    between atoms: N4_19  and  C14_20 
ROOT
HETATM    1  C7  UNL     1      27.087   1.236  52.675  1.00  0.00     0.102 C 
HETATM    2  C8  UNL     1      28.211   1.676  53.226  1.00  0.00     0.034 C 
HETATM    3  C9  UNL     1      29.341   1.177  54.008  1.00  0.00     0.180 C 
HETATM    4  N2  UNL     1      29.702  -0.182  53.824  1.00  0.00    -0.279 NA
HETATM    5  C10 UNL     1      29.270  -1.372  53.595  1.00  0.00     0.227 C 
HETATM    6  N3  UNL     1      27.873  -1.677  53.419  1.00  0.00    -0.237 NA
HETATM    7  C11 UNL     1      26.961  -1.317  52.612  1.00  0.00     0.126 C 
HETATM    8  C12 UNL     1      26.454  -0.099  52.633  1.00  0.00     0.135 C 
ENDROOT
BRANCH   8   9
HETATM    9  O2  UNL     1      25.078  -0.012  52.613  1.00  0.00    -0.327 OA
BRANCH   9  10
HETATM   10  C13 UNL     1      24.197  -0.383  53.621  1.00  0.00     0.298 C 
BRANCH  10  11
HETATM   11  N4  UNL     1      22.801  -0.250  53.231  1.00  0.00    -0.368 N 
HETATM   12  H21 UNL     1      22.022  -0.872  53.540  1.00  0.00     0.161 HD
BRANCH  11  13
HETATM   13  C14 UNL     1      22.455   0.815  52.354  1.00  0.00     0.031 A 
HETATM   14  C15 UNL     1      21.883   0.610  51.113  1.00  0.00     0.032 A 
HETATM   15  C16 UNL     1      21.535   1.611  50.240  1.00  0.00     0.046 A 
HETATM   16  C17 UNL     1      21.769   2.931  50.616  1.00  0.00     0.138 A 
HETATM   17  F1  UNL     1      21.457   3.983  49.814  1.00  0.00    -0.204 F 
HETATM   18  C18 UNL     1      22.340   3.202  51.844  1.00  0.00     0.074 A 
HETATM   19 CL1  UNL     1      22.646   4.869  52.343  1.00  0.00    -0.081 Cl
HETATM   20  C19 UNL     1      22.660   2.141  52.665  1.00  0.00     0.056 A 
ENDBRANCH  11  13
ENDBRANCH  10  11
ENDBRANCH   9  10
ENDBRANCH   8   9
BRANCH   1  21
HETATM   21  O1  UNL     1      26.321   2.164  52.000  1.00  0.00    -0.347 OA
BRANCH  21  22
HETATM   22  C6  UNL     1      26.556   2.579  50.685  1.00  0.00     0.205 C 
BRANCH  22  23
HETATM   23  C5  UNL     1      25.458   3.531  50.203  1.00  0.00     0.297 C 
BRANCH  23  24
HETATM   24  N1  UNL     1      25.861   4.868  50.570  1.00  0.00     0.094 N 
HETATM   25  H10 UNL     1      25.667   5.115  51.540  1.00  0.00     0.316 HD
BRANCH  24  26
HETATM   26  C2  UNL     1      25.531   5.876  49.606  1.00  0.00     0.147 C 
HETATM   27  C1  UNL     1      24.312   5.571  48.803  1.00  0.00     0.048 C 
HETATM   28  C3  UNL     1      26.706   6.023  48.665  1.00  0.00     0.048 C 
HETATM   29  C4  UNL     1      25.323   7.237  50.261  1.00  0.00     0.048 C 
ENDBRANCH  24  26
ENDBRANCH  23  24
ENDBRANCH  22  23
ENDBRANCH  21  22
ENDBRANCH   1  21
TORSDOF 9
ENDMDL
MODEL 9
REMARK VINA RESULT:      -6.7      3.431      6.460
REMARK  9 active torsions:
REMARK  status: ('A' for Active; 'I' for Inactive)
REMARK    1  A    between atoms: C2_2  and  N1_5 
REMARK    2  A    between atoms: N1_5  and  C5_6 
REMARK    3  A    between atoms: C5_6  and  C6_7 
REMARK    4  A    between atoms: C6_7  and  O1_8 
REMARK    5  A    between atoms: O1_8  and  C7_9 
REMARK    6  A    between atoms: C12_16  and  O2_17 
REMARK    7  A    between atoms: O2_17  and  C13_18 
REMARK    8  A    between atoms: C13_18  and  N4_19 
REMARK    9  A    between atoms: N4_19  and  C14_20 
ROOT
HETATM    1  C7  UNL     1      24.028   3.656  50.415  1.00  0.00     0.102 C 
HETATM    2  C8  UNL     1      23.667   3.190  49.227  1.00  0.00     0.034 C 
HETATM    3  C9  UNL     1      22.557   2.474  48.598  1.00  0.00     0.180 C 
HETATM    4  N2  UNL     1      21.270   2.655  49.165  1.00  0.00    -0.279 NA
HETATM    5  C10 UNL     1      20.606   2.831  50.253  1.00  0.00     0.227 C 
HETATM    6  N3  UNL     1      21.232   2.909  51.548  1.00  0.00    -0.237 NA
HETATM    7  C11 UNL     1      22.099   3.661  52.093  1.00  0.00     0.126 C 
HETATM    8  C12 UNL     1      23.369   3.631  51.738  1.00  0.00     0.135 C 
ENDROOT
BRANCH   8   9
HETATM    9  O2  UNL     1      24.286   3.562  52.764  1.00  0.00    -0.327 OA
BRANCH   9  10
HETATM   10  C13 UNL     1      25.042   2.460  53.145  1.00  0.00     0.298 C 
BRANCH  10  11
HETATM   11  N4  UNL     1      26.459   2.616  52.851  1.00  0.00    -0.368 N 
HETATM   12  H21 UNL     1      26.913   3.485  52.492  1.00  0.00     0.161 HD
BRANCH  11  13
HETATM   13  C14 UNL     1      27.309   1.496  53.067  1.00  0.00     0.031 A 
HETATM   14  C15 UNL     1      28.569   1.606  53.623  1.00  0.00     0.032 A 
HETATM   15  C16 UNL     1      29.417   0.550  53.848  1.00  0.00     0.046 A 
HETATM   16  C17 UNL     1      28.992  -0.729  53.496  1.00  0.00     0.138 A 
HETATM   17  F1  UNL     1      29.767  -1.830  53.683  1.00  0.00    -0.204 F 
HETATM   18  C18 UNL     1      27.742  -0.905  52.936  1.00  0.00     0.074 A 
HETATM   19 CL1  UNL     1      27.181  -2.518  52.483  1.00  0.00    -0.081 Cl
HETATM   20  C19 UNL     1      26.949   0.206  52.743  1.00  0.00     0.056 A 
ENDBRANCH  11  13
ENDBRANCH  10  11
ENDBRANCH   9  10
ENDBRANCH   8   9
BRANCH   1  21
HETATM   21  O1  UNL     1      25.247   4.297  50.486  1.00  0.00    -0.347 OA
BRANCH  21  22
HETATM   22  C6  UNL     1      26.235   4.234  49.497  1.00  0.00     0.205 C 
BRANCH  22  23
HETATM   23  C5  UNL     1      26.562   5.628  48.955  1.00  0.00     0.297 C 
BRANCH  23  24
HETATM   24  N1  UNL     1      26.428   6.555  50.053  1.00  0.00     0.094 N 
HETATM   25  H10 UNL     1      25.965   6.170  50.876  1.00  0.00     0.316 HD
BRANCH  24  26
HETATM   26  C2  UNL     1      26.005   7.871  49.675  1.00  0.00     0.147 C 
HETATM   27  C1  UNL     1      24.664   8.252  50.205  1.00  0.00     0.048 C 
HETATM   28  C3  UNL     1      25.963   7.932  48.165  1.00  0.00     0.048 C 
HETATM   29  C4  UNL     1      26.999   8.936  50.128  1.00  0.00     0.048 C 
ENDBRANCH  24  26
ENDBRANCH  23  24
ENDBRANCH  22  23
ENDBRANCH  21  22
ENDBRANCH   1  21
TORSDOF 9
ENDMDL
