MODEL 1
REMARK VINA RESULT:      -8.3      0.000      0.000
REMARK  4 active torsions:
REMARK  status: ('A' for Active; 'I' for Inactive)
REMARK    1  A    between atoms: C12_16  and  N4_17 
REMARK    2  A    between atoms: N4_17  and  C13_18 
REMARK    3  A    between atoms: C13_18  and  C14_19 
REMARK    4  A    between atoms: C14_19  and  C15_20 
ROOT
HETATM    1  C1  UNL     1      34.047   5.794  44.518  1.00  0.00     0.017 C 
HETATM    2  C2  UNL     1      34.252   4.990  45.768  1.00  0.00     0.033 C 
HETATM    3  C3  UNL     1      33.616   3.645  45.597  1.00  0.00     0.128 C 
HETATM    4  N1  UNL     1      32.207   3.629  45.952  1.00  0.00    -0.398 N 
HETATM    5  C4  UNL     1      31.827   4.053  47.249  1.00  0.00     0.092 C 
HETATM    6  C5  UNL     1      32.543   5.066  47.754  1.00  0.00    -0.007 C 
HETATM    7  C6  UNL     1      32.253   5.616  49.114  1.00  0.00     0.324 C 
HETATM    8  N2  UNL     1      32.106   7.025  48.954  1.00  0.00     0.117 N 
HETATM    9  C7  UNL     1      30.996   7.878  49.032  1.00  0.00     0.323 A 
HETATM   10  O1  UNL     1      30.905   6.661  49.186  1.00  0.00    -0.121 OA
HETATM   11  C8  UNL     1      30.243   9.066  49.012  1.00  0.00     0.074 A 
HETATM   12  C9  UNL     1      30.849  10.284  48.878  1.00  0.00     0.021 A 
HETATM   13  C10 UNL     1      30.082  11.421  48.829  1.00  0.00     0.020 A 
HETATM   14  C11 UNL     1      28.715  11.257  48.921  1.00  0.00     0.119 A 
HETATM   15  N3  UNL     1      28.139  10.054  49.053  1.00  0.00    -0.243 NA
HETATM   16  C12 UNL     1      28.862   8.933  49.103  1.00  0.00     0.137 A 
HETATM   17  C19 UNL     1      33.424   7.575  48.622  1.00  0.00     0.312 C 
HETATM   18  C20 UNL     1      33.999   6.841  47.431  1.00  0.00     0.012 C 
HETATM   19  C21 UNL     1      33.621   5.638  46.960  1.00  0.00    -0.045 C 
HETATM   20  H7  UNL     1      31.439   3.312  45.291  1.00  0.00     0.158 HD
ENDROOT
BRANCH  16  21
HETATM   21  N4  UNL     1      28.129   7.748  49.282  1.00  0.00    -0.374 N 
HETATM   22  H14 UNL     1      28.290   7.227  50.158  1.00  0.00     0.161 HD
BRANCH  21  23
HETATM   23  C13 UNL     1      27.167   7.156  48.378  1.00  0.00     0.123 C 
BRANCH  23  24
HETATM   24  C14 UNL     1      27.345   5.632  48.535  1.00  0.00     0.042 C 
BRANCH  24  25
HETATM   25  C15 UNL     1      26.297   5.063  49.381  1.00  0.00     0.037 A 
HETATM   26  S1  UNL     1      24.988   5.770  50.048  1.00  0.00    -0.110 SA
HETATM   27  C16 UNL     1      24.082   4.768  50.959  1.00  0.00     0.161 A 
HETATM   28  N5  UNL     1      24.532   3.421  51.061  1.00  0.00    -0.270 NA
HETATM   29  C17 UNL     1      25.605   3.033  50.450  1.00  0.00     0.091 A 
HETATM   30  C18 UNL     1      26.639   3.618  49.574  1.00  0.00     0.069 A 
ENDBRANCH  24  25
ENDBRANCH  23  24
ENDBRANCH  21  23
ENDBRANCH  16  21
TORSDOF 4
ENDMDL
MODEL 2
REMARK VINA RESULT:      -8.2      2.294      3.006
REMARK  4 active torsions:
REMARK  status: ('A' for Active; 'I' for Inactive)
REMARK    1  A    between atoms: C12_16  and  N4_17 
REMARK    2  A    between atoms: N4_17  and  C13_18 
REMARK    3  A    between atoms: C13_18  and  C14_19 
REMARK    4  A    between atoms: C14_19  and  C15_20 
ROOT
HETATM    1  C1  UNL     1      33.195   4.704  44.114  1.00  0.00     0.017 C 
HETATM    2  C2  UNL     1      33.872   4.845  45.444  1.00  0.00     0.033 C 
HETATM    3  C3  UNL     1      34.255   3.487  45.947  1.00  0.00     0.128 C 
HETATM    4  N1  UNL     1      33.190   2.829  46.685  1.00  0.00    -0.398 N 
HETATM    5  C4  UNL     1      32.627   3.490  47.805  1.00  0.00     0.092 C 
HETATM    6  C5  UNL     1      32.521   4.820  47.690  1.00  0.00    -0.007 C 
HETATM    7  C6  UNL     1      31.946   5.648  48.795  1.00  0.00     0.324 C 
HETATM    8  N2  UNL     1      30.923   6.448  48.208  1.00  0.00     0.117 N 
HETATM    9  C7  UNL     1      29.526   6.426  48.308  1.00  0.00     0.323 A 
HETATM   10  O1  UNL     1      30.242   5.617  48.895  1.00  0.00    -0.121 OA
HETATM   11  C8  UNL     1      28.184   6.793  48.101  1.00  0.00     0.074 A 
HETATM   12  C9  UNL     1      27.859   7.908  47.380  1.00  0.00     0.021 A 
HETATM   13  C10 UNL     1      26.539   8.218  47.168  1.00  0.00     0.020 A 
HETATM   14  C11 UNL     1      25.601   7.363  47.710  1.00  0.00     0.119 A 
HETATM   15  N3  UNL     1      25.939   6.275  48.415  1.00  0.00    -0.243 NA
HETATM   16  C12 UNL     1      27.215   5.951  48.635  1.00  0.00     0.137 A 
HETATM   17  C19 UNL     1      31.574   7.428  47.332  1.00  0.00     0.312 C 
HETATM   18  C20 UNL     1      32.485   6.716  46.357  1.00  0.00     0.012 C 
HETATM   19  C21 UNL     1      32.973   5.466  46.467  1.00  0.00    -0.045 C 
HETATM   20  H7  UNL     1      32.807   1.871  46.434  1.00  0.00     0.158 HD
ENDROOT
BRANCH  16  21
HETATM   21  N4  UNL     1      27.421   4.805  49.422  1.00  0.00    -0.374 N 
HETATM   22  H14 UNL     1      28.215   4.828  50.081  1.00  0.00     0.161 HD
BRANCH  21  23
HETATM   23  C13 UNL     1      26.652   3.580  49.423  1.00  0.00     0.123 C 
BRANCH  23  24
HETATM   24  C14 UNL     1      25.602   3.758  50.537  1.00  0.00     0.042 C 
BRANCH  24  25
HETATM   25  C15 UNL     1      25.408   2.515  51.284  1.00  0.00     0.037 A 
HETATM   26  S1  UNL     1      24.044   1.857  51.888  1.00  0.00    -0.110 SA
HETATM   27  C16 UNL     1      24.280   0.458  52.689  1.00  0.00     0.161 A 
HETATM   28  N5  UNL     1      25.621  -0.014  52.763  1.00  0.00    -0.270 NA
HETATM   29  C17 UNL     1      26.588   0.648  52.213  1.00  0.00     0.091 A 
HETATM   30  C18 UNL     1      26.760   1.892  51.436  1.00  0.00     0.069 A 
ENDBRANCH  24  25
ENDBRANCH  23  24
ENDBRANCH  21  23
ENDBRANCH  16  21
TORSDOF 4
ENDMDL
MODEL 3
REMARK VINA RESULT:      -8.1      6.583      9.666
REMARK  4 active torsions:
REMARK  status: ('A' for Active; 'I' for Inactive)
REMARK    1  A    between atoms: C12_16  and  N4_17 
REMARK    2  A    between atoms: N4_17  and  C13_18 
REMARK    3  A    between atoms: C13_18  and  C14_19 
REMARK    4  A    between atoms: C14_19  and  C15_20 
ROOT
HETATM    1  C1  UNL     1      25.605   7.744  50.750  1.00  0.00     0.017 C 
HETATM    2  C2  UNL     1      24.519   7.320  49.806  1.00  0.00     0.033 C 
HETATM    3  C3  UNL     1      23.222   7.929  50.244  1.00  0.00     0.128 C 
HETATM    4  N1  UNL     1      22.520   7.129  51.234  1.00  0.00    -0.398 N 
HETATM    5  C4  UNL     1      22.208   5.783  50.926  1.00  0.00     0.092 C 
HETATM    6  C5  UNL     1      23.127   5.134  50.198  1.00  0.00    -0.007 C 
HETATM    7  C6  UNL     1      22.929   3.707  49.798  1.00  0.00     0.324 C 
HETATM    8  N2  UNL     1      24.106   3.010  50.200  1.00  0.00     0.117 N 
HETATM    9  C7  UNL     1      24.353   2.066  51.206  1.00  0.00     0.323 A 
HETATM   10  O1  UNL     1      23.245   2.571  51.033  1.00  0.00    -0.121 OA
HETATM   11  C8  UNL     1      25.056   1.150  52.010  1.00  0.00     0.074 A 
HETATM   12  C9  UNL     1      26.356   0.827  51.741  1.00  0.00     0.021 A 
HETATM   13  C10 UNL     1      27.023  -0.044  52.566  1.00  0.00     0.020 A 
HETATM   14  C11 UNL     1      26.320  -0.551  53.640  1.00  0.00     0.119 A 
HETATM   15  N3  UNL     1      25.044  -0.222  53.887  1.00  0.00    -0.243 NA
HETATM   16  C12 UNL     1      24.373   0.623  53.101  1.00  0.00     0.137 A 
HETATM   17  C19 UNL     1      25.207   3.469  49.347  1.00  0.00     0.312 C 
HETATM   18  C20 UNL     1      25.295   4.978  49.394  1.00  0.00     0.012 C 
HETATM   19  C21 UNL     1      24.337   5.835  49.794  1.00  0.00    -0.045 C 
HETATM   20  H7  UNL     1      22.222   7.501  52.184  1.00  0.00     0.158 HD
ENDROOT
BRANCH  16  21
HETATM   21  N4  UNL     1      23.033   0.846  53.457  1.00  0.00    -0.374 N 
HETATM   22  H14 UNL     1      22.831   1.696  54.006  1.00  0.00     0.161 HD
BRANCH  21  23
HETATM   23  C13 UNL     1      21.884   0.023  53.147  1.00  0.00     0.123 C 
BRANCH  23  24
HETATM   24  C14 UNL     1      20.658   0.930  53.377  1.00  0.00     0.042 C 
BRANCH  24  25
HETATM   25  C15 UNL     1      20.226   1.558  52.129  1.00  0.00     0.037 A 
HETATM   26  S1  UNL     1      19.670   3.066  51.851  1.00  0.00    -0.110 SA
HETATM   27  C16 UNL     1      19.266   3.350  50.299  1.00  0.00     0.161 A 
HETATM   28  N5  UNL     1      19.445   2.270  49.387  1.00  0.00    -0.270 NA
HETATM   29  C17 UNL     1      19.909   1.132  49.792  1.00  0.00     0.091 A 
HETATM   30  C18 UNL     1      20.367   0.523  51.056  1.00  0.00     0.069 A 
ENDBRANCH  24  25
ENDBRANCH  23  24
ENDBRANCH  21  23
ENDBRANCH  16  21
TORSDOF 4
ENDMDL
MODEL 4
REMARK VINA RESULT:      -8.0      7.040     10.733
REMARK  4 active torsions:
REMARK  status: ('A' for Active; 'I' for Inactive)
REMARK    1  A    between atoms: C12_16  and  N4_17 
REMARK    2  A    between atoms: N4_17  and  C13_18 
REMARK    3  A    between atoms: C13_18  and  C14_19 
REMARK    4  A    between atoms: C14_19  and  C15_20 
ROOT
HETATM    1  C1  UNL     1      22.352   4.472  47.678  1.00  0.00     0.017 C 
HETATM    2  C2  UNL     1      22.920   5.383  48.725  1.00  0.00     0.033 C 
HETATM    3  C3  UNL     1      24.393   5.535  48.498  1.00  0.00     0.128 C 
HETATM    4  N1  UNL     1      25.181   4.494  49.137  1.00  0.00    -0.398 N 
HETATM    5  C4  UNL     1      25.043   4.295  50.533  1.00  0.00     0.092 C 
HETATM    6  C5  UNL     1      23.806   4.470  51.017  1.00  0.00    -0.007 C 
HETATM    7  C6  UNL     1      23.514   4.293  52.473  1.00  0.00     0.324 C 
HETATM    8  N2  UNL     1      22.415   3.389  52.556  1.00  0.00     0.117 N 
HETATM    9  C7  UNL     1      22.310   2.060  52.989  1.00  0.00     0.323 A 
HETATM   10  O1  UNL     1      23.379   2.669  52.980  1.00  0.00    -0.121 OA
HETATM   11  C8  UNL     1      21.729   0.819  53.303  1.00  0.00     0.074 A 
HETATM   12  C9  UNL     1      20.377   0.632  53.223  1.00  0.00     0.021 A 
HETATM   13  C10 UNL     1      19.846  -0.603  53.504  1.00  0.00     0.020 A 
HETATM   14  C11 UNL     1      20.732  -1.600  53.858  1.00  0.00     0.119 A 
HETATM   15  N3  UNL     1      22.055  -1.396  53.931  1.00  0.00    -0.243 NA
HETATM   16  C12 UNL     1      22.597  -0.206  53.663  1.00  0.00     0.137 A 
HETATM   17  C19 UNL     1      21.231   4.081  52.036  1.00  0.00     0.312 C 
HETATM   18  C20 UNL     1      21.522   4.628  50.657  1.00  0.00     0.012 C 
HETATM   19  C21 UNL     1      22.732   4.836  50.106  1.00  0.00    -0.045 C 
HETATM   20  H7  UNL     1      25.863   3.870  48.614  1.00  0.00     0.158 HD
ENDROOT
BRANCH  16  21
HETATM   21  N4  UNL     1      23.991  -0.127  53.817  1.00  0.00    -0.374 N 
HETATM   22  H14 UNL     1      24.344   0.486  54.568  1.00  0.00     0.161 HD
BRANCH  21  23
HETATM   23  C13 UNL     1      25.009  -0.805  53.044  1.00  0.00     0.123 C 
BRANCH  23  24
HETATM   24  C14 UNL     1      25.904   0.315  52.478  1.00  0.00     0.042 C 
BRANCH  24  25
HETATM   25  C15 UNL     1      27.287   0.163  52.930  1.00  0.00     0.037 A 
HETATM   26  S1  UNL     1      28.369   1.293  53.392  1.00  0.00    -0.110 SA
HETATM   27  C16 UNL     1      29.827   0.690  53.797  1.00  0.00     0.161 A 
HETATM   28  N5  UNL     1      29.979  -0.723  53.703  1.00  0.00    -0.270 NA
HETATM   29  C17 UNL     1      28.997  -1.471  53.317  1.00  0.00     0.091 A 
HETATM   30  C18 UNL     1      27.594  -1.302  52.889  1.00  0.00     0.069 A 
ENDBRANCH  24  25
ENDBRANCH  23  24
ENDBRANCH  21  23
ENDBRANCH  16  21
TORSDOF 4
ENDMDL
MODEL 5
REMARK VINA RESULT:      -7.6      5.938      9.188
REMARK  4 active torsions:
REMARK  status: ('A' for Active; 'I' for Inactive)
REMARK    1  A    between atoms: C12_16  and  N4_17 
REMARK    2  A    between atoms: N4_17  and  C13_18 
REMARK    3  A    between atoms: C13_18  and  C14_19 
REMARK    4  A    between atoms: C14_19  and  C15_20 
ROOT
HETATM    1  C1  UNL     1      23.504   7.321  46.267  1.00  0.00     0.017 C 
HETATM    2  C2  UNL     1      24.091   8.213  47.320  1.00  0.00     0.033 C 
HETATM    3  C3  UNL     1      25.585   8.201  47.199  1.00  0.00     0.128 C 
HETATM    4  N1  UNL     1      26.210   7.112  47.931  1.00  0.00    -0.398 N 
HETATM    5  C4  UNL     1      25.953   6.989  49.319  1.00  0.00     0.092 C 
HETATM    6  C5  UNL     1      24.711   7.312  49.703  1.00  0.00    -0.007 C 
HETATM    7  C6  UNL     1      24.299   7.229  51.138  1.00  0.00     0.324 C 
HETATM    8  N2  UNL     1      23.107   6.449  51.170  1.00  0.00     0.117 N 
HETATM    9  C7  UNL     1      22.830   5.158  51.641  1.00  0.00     0.323 A 
HETATM   10  O1  UNL     1      23.956   5.652  51.691  1.00  0.00    -0.121 OA
HETATM   11  C8  UNL     1      22.099   3.998  51.955  1.00  0.00     0.074 A 
HETATM   12  C9  UNL     1      20.744   3.950  51.781  1.00  0.00     0.021 A 
HETATM   13  C10 UNL     1      20.065   2.790  52.065  1.00  0.00     0.020 A 
HETATM   14  C11 UNL     1      20.813   1.723  52.519  1.00  0.00     0.119 A 
HETATM   15  N3  UNL     1      22.142   1.791  52.683  1.00  0.00    -0.243 NA
HETATM   16  C12 UNL     1      22.825   2.905  52.415  1.00  0.00     0.137 A 
HETATM   17  C19 UNL     1      22.043   7.237  50.540  1.00  0.00     0.312 C 
HETATM   18  C20 UNL     1      22.488   7.691  49.168  1.00  0.00     0.012 C 
HETATM   19  C21 UNL     1      23.749   7.748  48.701  1.00  0.00    -0.045 C 
HETATM   20  H7  UNL     1      26.856   6.399  47.483  1.00  0.00     0.158 HD
ENDROOT
BRANCH  16  21
HETATM   21  N4  UNL     1      24.205   2.845  52.670  1.00  0.00    -0.374 N 
HETATM   22  H14 UNL     1      24.631   3.664  53.131  1.00  0.00     0.161 HD
BRANCH  21  23
HETATM   23  C13 UNL     1      25.118   1.766  52.361  1.00  0.00     0.123 C 
BRANCH  23  24
HETATM   24  C14 UNL     1      26.260   1.891  53.389  1.00  0.00     0.042 C 
BRANCH  24  25
HETATM   25  C15 UNL     1      27.092   0.688  53.402  1.00  0.00     0.037 A 
HETATM   26  S1  UNL     1      28.640   0.489  53.874  1.00  0.00    -0.110 SA
HETATM   27  C16 UNL     1      29.199  -1.031  53.693  1.00  0.00     0.161 A 
HETATM   28  N5  UNL     1      28.288  -1.984  53.156  1.00  0.00    -0.270 NA
HETATM   29  C17 UNL     1      27.081  -1.641  52.839  1.00  0.00     0.091 A 
HETATM   30  C18 UNL     1      26.248  -0.423  52.859  1.00  0.00     0.069 A 
ENDBRANCH  24  25
ENDBRANCH  23  24
ENDBRANCH  21  23
ENDBRANCH  16  21
TORSDOF 4
ENDMDL
MODEL 6
REMARK VINA RESULT:      -7.5      6.639     10.058
REMARK  4 active torsions:
REMARK  status: ('A' for Active; 'I' for Inactive)
REMARK    1  A    between atoms: C12_16  and  N4_17 
REMARK    2  A    between atoms: N4_17  and  C13_18 
REMARK    3  A    between atoms: C13_18  and  C14_19 
REMARK    4  A    between atoms: C14_19  and  C15_20 
ROOT
HETATM    1  C1  UNL     1      25.654   7.887  50.727  1.00  0.00     0.017 C 
HETATM    2  C2  UNL     1      24.616   7.466  49.730  1.00  0.00     0.033 C 
HETATM    3  C3  UNL     1      23.298   8.069  50.108  1.00  0.00     0.128 C 
HETATM    4  N1  UNL     1      22.551   7.261  51.058  1.00  0.00    -0.398 N 
HETATM    5  C4  UNL     1      22.258   5.915  50.726  1.00  0.00     0.092 C 
HETATM    6  C5  UNL     1      23.213   5.274  50.039  1.00  0.00    -0.007 C 
HETATM    7  C6  UNL     1      23.039   3.849  49.620  1.00  0.00     0.324 C 
HETATM    8  N2  UNL     1      24.197   3.153  50.073  1.00  0.00     0.117 N 
HETATM    9  C7  UNL     1      24.398   2.202  51.084  1.00  0.00     0.323 A 
HETATM   10  O1  UNL     1      23.298   2.706  50.861  1.00  0.00    -0.121 OA
HETATM   11  C8  UNL     1      25.063   1.283  51.915  1.00  0.00     0.074 A 
HETATM   12  C9  UNL     1      26.377   0.965  51.707  1.00  0.00     0.021 A 
HETATM   13  C10 UNL     1      27.005   0.090  52.558  1.00  0.00     0.020 A 
HETATM   14  C11 UNL     1      26.252  -0.426  53.593  1.00  0.00     0.119 A 
HETATM   15  N3  UNL     1      24.965  -0.102  53.780  1.00  0.00    -0.243 NA
HETATM   16  C12 UNL     1      24.331   0.746  52.968  1.00  0.00     0.137 A 
HETATM   17  C19 UNL     1      25.337   3.621  49.278  1.00  0.00     0.312 C 
HETATM   18  C20 UNL     1      25.418   5.129  49.340  1.00  0.00     0.012 C 
HETATM   19  C21 UNL     1      24.439   5.981  49.699  1.00  0.00    -0.045 C 
HETATM   20  H7  UNL     1      22.206   7.625  51.994  1.00  0.00     0.158 HD
ENDROOT
BRANCH  16  21
HETATM   21  N4  UNL     1      22.974   0.964  53.260  1.00  0.00    -0.374 N 
HETATM   22  H14 UNL     1      22.713   1.906  53.592  1.00  0.00     0.161 HD
BRANCH  21  23
HETATM   23  C13 UNL     1      21.882   0.021  53.155  1.00  0.00     0.123 C 
BRANCH  23  24
HETATM   24  C14 UNL     1      20.665   0.854  52.704  1.00  0.00     0.042 C 
BRANCH  24  25
HETATM   25  C15 UNL     1      19.452   0.038  52.666  1.00  0.00     0.037 A 
HETATM   26  S1  UNL     1      18.992  -1.202  53.619  1.00  0.00    -0.110 SA
HETATM   27  C16 UNL     1      17.560  -1.861  53.208  1.00  0.00     0.161 A 
HETATM   28  N5  UNL     1      16.894  -1.286  52.089  1.00  0.00    -0.270 NA
HETATM   29  C17 UNL     1      17.415  -0.289  51.448  1.00  0.00     0.091 A 
HETATM   30  C18 UNL     1      18.633   0.542  51.518  1.00  0.00     0.069 A 
ENDBRANCH  24  25
ENDBRANCH  23  24
ENDBRANCH  21  23
ENDBRANCH  16  21
TORSDOF 4
ENDMDL
MODEL 7
REMARK VINA RESULT:      -7.3      4.523      8.059
REMARK  4 active torsions:
REMARK  status: ('A' for Active; 'I' for Inactive)
REMARK    1  A    between atoms: C12_16  and  N4_17 
REMARK    2  A    between atoms: N4_17  and  C13_18 
REMARK    3  A    between atoms: C13_18  and  C14_19 
REMARK    4  A    between atoms: C14_19  and  C15_20 
ROOT
HETATM    1  C1  UNL     1      28.236   7.679  46.815  1.00  0.00     0.017 C 
HETATM    2  C2  UNL     1      27.399   8.726  47.487  1.00  0.00     0.033 C 
HETATM    3  C3  UNL     1      28.064   9.143  48.763  1.00  0.00     0.128 C 
HETATM    4  N1  UNL     1      27.713   8.299  49.893  1.00  0.00    -0.398 N 
HETATM    5  C4  UNL     1      26.346   8.139  50.226  1.00  0.00     0.092 C 
HETATM    6  C5  UNL     1      25.504   8.099  49.186  1.00  0.00    -0.007 C 
HETATM    7  C6  UNL     1      24.031   7.935  49.388  1.00  0.00     0.324 C 
HETATM    8  N2  UNL     1      23.631   6.844  48.563  1.00  0.00     0.117 N 
HETATM    9  C7  UNL     1      23.207   5.540  48.853  1.00  0.00     0.323 A 
HETATM   10  O1  UNL     1      23.533   6.339  49.730  1.00  0.00    -0.121 OA
HETATM   11  C8  UNL     1      22.750   4.226  48.646  1.00  0.00     0.074 A 
HETATM   12  C9  UNL     1      22.415   3.784  47.397  1.00  0.00     0.021 A 
HETATM   13  C10 UNL     1      22.005   2.485  47.225  1.00  0.00     0.020 A 
HETATM   14  C11 UNL     1      21.956   1.690  48.352  1.00  0.00     0.119 A 
HETATM   15  N3  UNL     1      22.288   2.142  49.569  1.00  0.00    -0.243 NA
HETATM   16  C12 UNL     1      22.690   3.400  49.763  1.00  0.00     0.137 A 
HETATM   17  C19 UNL     1      23.751   7.276  47.167  1.00  0.00     0.312 C 
HETATM   18  C20 UNL     1      25.145   7.806  46.914  1.00  0.00     0.012 C 
HETATM   19  C21 UNL     1      26.037   8.215  47.836  1.00  0.00    -0.045 C 
HETATM   20  H7  UNL     1      28.430   7.793  50.492  1.00  0.00     0.158 HD
ENDROOT
BRANCH  16  21
HETATM   21  N4  UNL     1      22.968   3.748  51.096  1.00  0.00    -0.374 N 
HETATM   22  H14 UNL     1      23.096   4.751  51.300  1.00  0.00     0.161 HD
BRANCH  21  23
HETATM   23  C13 UNL     1      23.104   2.864  52.233  1.00  0.00     0.123 C 
BRANCH  23  24
HETATM   24  C14 UNL     1      24.545   3.068  52.739  1.00  0.00     0.042 C 
BRANCH  24  25
HETATM   25  C15 UNL     1      25.088   1.831  53.301  1.00  0.00     0.037 A 
HETATM   26  S1  UNL     1      26.534   1.541  53.995  1.00  0.00    -0.110 SA
HETATM   27  C16 UNL     1      26.748  -0.005  54.463  1.00  0.00     0.161 A 
HETATM   28  N5  UNL     1      25.667  -0.899  54.217  1.00  0.00    -0.270 NA
HETATM   29  C17 UNL     1      24.580  -0.484  53.652  1.00  0.00     0.091 A 
HETATM   30  C18 UNL     1      24.038   0.780  53.115  1.00  0.00     0.069 A 
ENDBRANCH  24  25
ENDBRANCH  23  24
ENDBRANCH  21  23
ENDBRANCH  16  21
TORSDOF 4
ENDMDL
MODEL 8
REMARK VINA RESULT:      -7.2      2.610      3.350
REMARK  4 active torsions:
REMARK  status: ('A' for Active; 'I' for Inactive)
REMARK    1  A    between atoms: C12_16  and  N4_17 
REMARK    2  A    between atoms: N4_17  and  C13_18 
REMARK    3  A    between atoms: C13_18  and  C14_19 
REMARK    4  A    between atoms: C14_19  and  C15_20 
ROOT
HETATM    1  C1  UNL     1      32.850   6.044  44.425  1.00  0.00     0.017 C 
HETATM    2  C2  UNL     1      33.416   5.544  45.720  1.00  0.00     0.033 C 
HETATM    3  C3  UNL     1      32.802   4.217  46.046  1.00  0.00     0.128 C 
HETATM    4  N1  UNL     1      31.546   4.329  46.767  1.00  0.00    -0.398 N 
HETATM    5  C4  UNL     1      31.522   5.053  47.984  1.00  0.00     0.092 C 
HETATM    6  C5  UNL     1      32.316   6.131  48.026  1.00  0.00    -0.007 C 
HETATM    7  C6  UNL     1      32.391   6.990  49.248  1.00  0.00     0.324 C 
HETATM    8  N2  UNL     1      32.160   8.328  48.815  1.00  0.00     0.117 N 
HETATM    9  C7  UNL     1      31.086   9.211  48.994  1.00  0.00     0.323 A 
HETATM   10  O1  UNL     1      31.081   8.066  49.444  1.00  0.00    -0.121 OA
HETATM   11  C8  UNL     1      30.318  10.386  48.909  1.00  0.00     0.074 A 
HETATM   12  C9  UNL     1      30.824  11.520  48.336  1.00  0.00     0.021 A 
HETATM   13  C10 UNL     1      30.035  12.640  48.239  1.00  0.00     0.020 A 
HETATM   14  C11 UNL     1      28.752  12.546  48.737  1.00  0.00     0.119 A 
HETATM   15  N3  UNL     1      28.274  11.425  49.295  1.00  0.00    -0.243 NA
HETATM   16  C12 UNL     1      29.020  10.323  49.402  1.00  0.00     0.137 A 
HETATM   17  C19 UNL     1      33.318   8.743  48.016  1.00  0.00     0.312 C 
HETATM   18  C20 UNL     1      33.568   7.736  46.916  1.00  0.00     0.012 C 
HETATM   19  C21 UNL     1      33.115   6.470  46.857  1.00  0.00    -0.045 C 
HETATM   20  H7  UNL     1      30.637   3.893  46.434  1.00  0.00     0.158 HD
ENDROOT
BRANCH  16  21
HETATM   21  N4  UNL     1      28.404   9.235  50.043  1.00  0.00    -0.374 N 
HETATM   22  H14 UNL     1      28.871   8.863  50.885  1.00  0.00     0.161 HD
BRANCH  21  23
HETATM   23  C13 UNL     1      27.181   8.560  49.666  1.00  0.00     0.123 C 
BRANCH  23  24
HETATM   24  C14 UNL     1      27.618   7.422  48.722  1.00  0.00     0.042 C 
BRANCH  24  25
HETATM   25  C15 UNL     1      27.553   7.843  47.323  1.00  0.00     0.037 A 
HETATM   26  S1  UNL     1      28.746   8.034  46.229  1.00  0.00    -0.110 SA
HETATM   27  C16 UNL     1      28.235   8.554  44.772  1.00  0.00     0.161 A 
HETATM   28  N5  UNL     1      26.836   8.775  44.630  1.00  0.00    -0.270 NA
HETATM   29  C17 UNL     1      26.028   8.563  45.619  1.00  0.00     0.091 A 
HETATM   30  C18 UNL     1      26.110   8.110  47.022  1.00  0.00     0.069 A 
ENDBRANCH  24  25
ENDBRANCH  23  24
ENDBRANCH  21  23
ENDBRANCH  16  21
TORSDOF 4
ENDMDL
MODEL 9
REMARK VINA RESULT:      -7.2      8.267     11.948
REMARK  4 active torsions:
REMARK  status: ('A' for Active; 'I' for Inactive)
REMARK    1  A    between atoms: C12_16  and  N4_17 
REMARK    2  A    between atoms: N4_17  and  C13_18 
REMARK    3  A    between atoms: C13_18  and  C14_19 
REMARK    4  A    between atoms: C14_19  and  C15_20 
ROOT
HETATM    1  C1  UNL     1      21.392   3.287  47.036  1.00  0.00     0.017 C 
HETATM    2  C2  UNL     1      21.552   4.419  48.007  1.00  0.00     0.033 C 
HETATM    3  C3  UNL     1      23.002   4.781  48.105  1.00  0.00     0.128 C 
HETATM    4  N1  UNL     1      23.726   3.987  49.083  1.00  0.00    -0.398 N 
HETATM    5  C4  UNL     1      23.262   3.966  50.421  1.00  0.00     0.092 C 
HETATM    6  C5  UNL     1      21.931   3.998  50.567  1.00  0.00    -0.007 C 
HETATM    7  C6  UNL     1      21.301   3.981  51.923  1.00  0.00     0.324 C 
HETATM    8  N2  UNL     1      20.342   2.927  51.907  1.00  0.00     0.117 N 
HETATM    9  C7  UNL     1      20.299   1.673  52.533  1.00  0.00     0.323 A 
HETATM   10  O1  UNL     1      21.249   2.445  52.664  1.00  0.00    -0.121 OA
HETATM   11  C8  UNL     1      19.820   0.408  52.919  1.00  0.00     0.074 A 
HETATM   12  C9  UNL     1      18.569  -0.011  52.563  1.00  0.00     0.021 A 
HETATM   13  C10 UNL     1      18.146  -1.265  52.927  1.00  0.00     0.020 A 
HETATM   14  C11 UNL     1      19.032  -2.040  53.648  1.00  0.00     0.119 A 
HETATM   15  N3  UNL     1      20.255  -1.610  53.988  1.00  0.00    -0.243 NA
HETATM   16  C12 UNL     1      20.691  -0.396  53.647  1.00  0.00     0.137 A 
HETATM   17  C19 UNL     1      19.252   3.330  51.013  1.00  0.00     0.312 C 
HETATM   18  C20 UNL     1      19.814   3.719  49.665  1.00  0.00     0.012 C 
HETATM   19  C21 UNL     1      21.089   4.047  49.381  1.00  0.00    -0.045 C 
HETATM   20  H7  UNL     1      24.593   3.419  48.852  1.00  0.00     0.158 HD
ENDROOT
BRANCH  16  21
HETATM   21  N4  UNL     1      21.977  -0.064  54.104  1.00  0.00    -0.374 N 
HETATM   22  H14 UNL     1      22.040   0.423  55.011  1.00  0.00     0.161 HD
BRANCH  21  23
HETATM   23  C13 UNL     1      23.243  -0.320  53.452  1.00  0.00     0.123 C 
BRANCH  23  24
HETATM   24  C14 UNL     1      24.192  -0.786  54.574  1.00  0.00     0.042 C 
BRANCH  24  25
HETATM   25  C15 UNL     1      25.592  -0.640  54.175  1.00  0.00     0.037 A 
HETATM   26  S1  UNL     1      26.380  -1.233  52.877  1.00  0.00    -0.110 SA
HETATM   27  C16 UNL     1      27.964  -0.852  52.830  1.00  0.00     0.161 A 
HETATM   28  N5  UNL     1      28.460  -0.061  53.904  1.00  0.00    -0.270 NA
HETATM   29  C17 UNL     1      27.675   0.328  54.858  1.00  0.00     0.091 A 
HETATM   30  C18 UNL     1      26.253   0.192  55.230  1.00  0.00     0.069 A 
ENDBRANCH  24  25
ENDBRANCH  23  24
ENDBRANCH  21  23
ENDBRANCH  16  21
TORSDOF 4
ENDMDL
