MODEL 1
REMARK VINA RESULT:      -8.4      0.000      0.000
REMARK  1 active torsions:
REMARK  status: ('A' for Active; 'I' for Inactive)
REMARK    1  A    between atoms: O1_1  and  C1_2 
ROOT
HETATM    1  C1  UNL     1      25.995   0.095  54.585  1.00  0.00     0.133 C 
HETATM    2  C2  UNL     1      26.590   1.281  54.290  1.00  0.00     0.187 C 
HETATM    3  C3  UNL     1      26.254   2.233  53.258  1.00  0.00     0.034 C 
HETATM    4  C4  UNL     1      25.506   2.588  52.235  1.00  0.00     0.126 C 
HETATM    5  N1  UNL     1      24.789   1.319  52.374  1.00  0.00    -0.225 NA
HETATM    6  C5  UNL     1      23.894   0.776  51.548  1.00  0.00     0.236 C 
HETATM    7  N2  UNL     1      22.639   1.470  51.220  1.00  0.00    -0.240 NA
HETATM    8  C6  UNL     1      22.189   2.592  51.817  1.00  0.00     0.089 C 
HETATM    9  C7  UNL     1      21.363   1.722  52.628  1.00  0.00     0.143 C 
HETATM   10  N3  UNL     1      21.799   1.027  53.657  1.00  0.00    -0.299 NA
HETATM   11  C8  UNL     1      20.904   0.183  54.401  1.00  0.00     0.148 C 
HETATM   12  C9  UNL     1      21.425  -1.227  54.364  1.00  0.00     0.027 C 
HETATM   13  C10 UNL     1      22.627  -1.554  55.133  1.00  0.00     0.048 C 
HETATM   14  C11 UNL     1      23.872  -0.865  54.932  1.00  0.00     0.086 C 
HETATM   15  N4  UNL     1      25.155  -1.123  54.668  1.00  0.00    -0.273 NA
HETATM   16  C12 UNL     1      22.659   3.933  51.468  1.00  0.00     0.046 A 
HETATM   17  C13 UNL     1      24.012   4.331  51.301  1.00  0.00     0.048 A 
HETATM   18  C14 UNL     1      24.169   5.654  50.990  1.00  0.00     0.033 A 
HETATM   19  C15 UNL     1      23.141   6.525  50.849  1.00  0.00     0.046 A 
HETATM   20  C16 UNL     1      21.839   6.121  51.014  1.00  0.00     0.139 A 
HETATM   21  F1  UNL     1      20.819   6.976  50.875  1.00  0.00    -0.204 F 
HETATM   22  C17 UNL     1      21.610   4.802  51.328  1.00  0.00     0.087 A 
HETATM   23 CL1  UNL     1      20.011   4.158  51.565  1.00  0.00    -0.080 Cl
HETATM   24  N5  UNL     1      25.328   3.690  51.367  1.00  0.00    -0.340 N 
HETATM   25  H15 UNL     1      26.034   4.119  50.745  1.00  0.00     0.167 HD
ENDROOT
BRANCH   1  26
HETATM   26  O1  UNL     1      26.672  -0.499  55.677  1.00  0.00    -0.374 OA
HETATM   27  H1  UNL     1      27.490  -1.035  55.416  1.00  0.00     0.212 HD
ENDBRANCH   1  26
TORSDOF 1
ENDMDL
MODEL 2
REMARK VINA RESULT:      -8.3      2.978      5.842
REMARK  1 active torsions:
REMARK  status: ('A' for Active; 'I' for Inactive)
REMARK    1  A    between atoms: O1_1  and  C1_2 
ROOT
HETATM    1  C1  UNL     1      26.419   3.771  49.994  1.00  0.00     0.133 C 
HETATM    2  C2  UNL     1      26.649   2.585  50.619  1.00  0.00     0.187 C 
HETATM    3  C3  UNL     1      25.885   1.948  51.665  1.00  0.00     0.034 C 
HETATM    4  C4  UNL     1      24.868   1.957  52.501  1.00  0.00     0.126 C 
HETATM    5  N1  UNL     1      24.507   3.277  51.980  1.00  0.00    -0.225 NA
HETATM    6  C5  UNL     1      23.599   4.134  52.448  1.00  0.00     0.236 C 
HETATM    7  N2  UNL     1      22.179   3.763  52.543  1.00  0.00    -0.240 NA
HETATM    8  C6  UNL     1      21.629   2.641  52.035  1.00  0.00     0.089 C 
HETATM    9  C7  UNL     1      21.223   3.456  50.910  1.00  0.00     0.143 C 
HETATM   10  N3  UNL     1      22.022   3.830  49.933  1.00  0.00    -0.299 NA
HETATM   11  C8  UNL     1      21.530   4.646  48.857  1.00  0.00     0.148 C 
HETATM   12  C9  UNL     1      22.336   5.914  48.804  1.00  0.00     0.027 C 
HETATM   13  C10 UNL     1      23.721   5.850  48.333  1.00  0.00     0.048 C 
HETATM   14  C11 UNL     1      24.701   5.004  48.958  1.00  0.00     0.086 C 
HETATM   15  N4  UNL     1      25.917   5.075  49.502  1.00  0.00    -0.273 NA
HETATM   16  C12 UNL     1      21.693   1.341  52.703  1.00  0.00     0.046 A 
HETATM   17  C13 UNL     1      22.848   0.749  53.278  1.00  0.00     0.048 A 
HETATM   18  C14 UNL     1      22.628  -0.485  53.826  1.00  0.00     0.033 A 
HETATM   19  C15 UNL     1      21.424  -1.107  53.830  1.00  0.00     0.046 A 
HETATM   20  C16 UNL     1      20.318  -0.518  53.270  1.00  0.00     0.139 A 
HETATM   21  F1  UNL     1      19.126  -1.126  53.272  1.00  0.00    -0.204 F 
HETATM   22  C17 UNL     1      20.470   0.725  52.701  1.00  0.00     0.087 A 
HETATM   23 CL1  UNL     1      19.152   1.583  51.957  1.00  0.00    -0.080 Cl
HETATM   24  N5  UNL     1      24.257   1.113  53.457  1.00  0.00    -0.340 N 
HETATM   25  H15 UNL     1      24.691   0.703  54.301  1.00  0.00     0.167 HD
ENDROOT
BRANCH   1  26
HETATM   26  O1  UNL     1      27.437   3.989  49.037  1.00  0.00    -0.374 OA
HETATM   27  H1  UNL     1      28.177   4.605  49.350  1.00  0.00     0.212 HD
ENDBRANCH   1  26
TORSDOF 1
ENDMDL
MODEL 3
REMARK VINA RESULT:      -8.3      2.635      5.104
REMARK  1 active torsions:
REMARK  status: ('A' for Active; 'I' for Inactive)
REMARK    1  A    between atoms: O1_1  and  C1_2 
ROOT
HETATM    1  C1  UNL     1      26.582   0.712  52.569  1.00  0.00     0.133 C 
HETATM    2  C2  UNL     1      25.840  -0.291  53.108  1.00  0.00     0.187 C 
HETATM    3  C3  UNL     1      24.445  -0.289  53.480  1.00  0.00     0.034 C 
HETATM    4  C4  UNL     1      23.297   0.344  53.593  1.00  0.00     0.126 C 
HETATM    5  N1  UNL     1      23.957   1.545  53.077  1.00  0.00    -0.225 NA
HETATM    6  C5  UNL     1      23.488   2.792  53.023  1.00  0.00     0.236 C 
HETATM    7  N2  UNL     1      22.268   3.115  52.267  1.00  0.00    -0.240 NA
HETATM    8  C6  UNL     1      21.614   2.272  51.442  1.00  0.00     0.089 C 
HETATM    9  C7  UNL     1      22.321   2.926  50.360  1.00  0.00     0.143 C 
HETATM   10  N3  UNL     1      23.577   2.692  50.042  1.00  0.00    -0.299 NA
HETATM   11  C8  UNL     1      24.197   3.394  48.952  1.00  0.00     0.148 C 
HETATM   12  C9  UNL     1      25.399   4.133  49.474  1.00  0.00     0.027 C 
HETATM   13  C10 UNL     1      26.583   3.366  49.864  1.00  0.00     0.048 C 
HETATM   14  C11 UNL     1      26.528   2.328  50.856  1.00  0.00     0.086 C 
HETATM   15  N4  UNL     1      27.121   1.968  51.996  1.00  0.00    -0.273 NA
HETATM   16  C12 UNL     1      20.678   1.251  51.913  1.00  0.00     0.046 A 
HETATM   17  C13 UNL     1      20.894   0.346  52.986  1.00  0.00     0.048 A 
HETATM   18  C14 UNL     1      19.856  -0.518  53.203  1.00  0.00     0.033 A 
HETATM   19  C15 UNL     1      18.714  -0.528  52.474  1.00  0.00     0.046 A 
HETATM   20  C16 UNL     1      18.523   0.357  51.441  1.00  0.00     0.139 A 
HETATM   21  F1  UNL     1      17.398   0.354  50.717  1.00  0.00    -0.204 F 
HETATM   22  C17 UNL     1      19.530   1.254  51.168  1.00  0.00     0.087 A 
HETATM   23 CL1  UNL     1      19.419   2.427  49.888  1.00  0.00    -0.080 Cl
HETATM   24  N5  UNL     1      21.957   0.079  53.959  1.00  0.00    -0.340 N 
HETATM   25  H15 UNL     1      21.614  -0.292  54.861  1.00  0.00     0.167 HD
ENDROOT
BRANCH   1  26
HETATM   26  O1  UNL     1      27.906   0.251  52.377  1.00  0.00    -0.374 OA
HETATM   27  H1  UNL     1      27.985  -0.537  51.747  1.00  0.00     0.212 HD
ENDBRANCH   1  26
TORSDOF 1
ENDMDL
MODEL 4
REMARK VINA RESULT:      -8.1      3.626      6.253
REMARK  1 active torsions:
REMARK  status: ('A' for Active; 'I' for Inactive)
REMARK    1  A    between atoms: O1_1  and  C1_2 
ROOT
HETATM    1  C1  UNL     1      24.132   0.617  52.773  1.00  0.00     0.133 C 
HETATM    2  C2  UNL     1      23.563  -0.425  53.434  1.00  0.00     0.187 C 
HETATM    3  C3  UNL     1      22.175  -0.636  53.773  1.00  0.00     0.034 C 
HETATM    4  C4  UNL     1      20.926  -0.221  53.772  1.00  0.00     0.126 C 
HETATM    5  N1  UNL     1      21.378   1.002  53.105  1.00  0.00    -0.225 NA
HETATM    6  C5  UNL     1      20.692   2.119  52.865  1.00  0.00     0.236 C 
HETATM    7  N2  UNL     1      19.470   2.103  52.046  1.00  0.00    -0.240 NA
HETATM    8  C6  UNL     1      19.020   1.048  51.335  1.00  0.00     0.089 C 
HETATM    9  C7  UNL     1      19.645   1.670  50.187  1.00  0.00     0.143 C 
HETATM   10  N3  UNL     1      20.936   1.635  49.930  1.00  0.00    -0.299 NA
HETATM   11  C8  UNL     1      21.466   2.288  48.765  1.00  0.00     0.148 C 
HETATM   12  C9  UNL     1      22.487   3.303  49.202  1.00  0.00     0.027 C 
HETATM   13  C10 UNL     1      23.772   2.833  49.720  1.00  0.00     0.048 C 
HETATM   14  C11 UNL     1      23.862   1.946  50.848  1.00  0.00     0.086 C 
HETATM   15  N4  UNL     1      24.458   1.862  52.039  1.00  0.00    -0.273 NA
HETATM   16  C12 UNL     1      18.266  -0.058  51.928  1.00  0.00     0.046 A 
HETATM   17  C13 UNL     1      18.595  -0.753  53.122  1.00  0.00     0.048 A 
HETATM   18  C14 UNL     1      17.723  -1.759  53.438  1.00  0.00     0.033 A 
HETATM   19  C15 UNL     1      16.638  -2.082  52.694  1.00  0.00     0.046 A 
HETATM   20  C16 UNL     1      16.337  -1.397  51.543  1.00  0.00     0.139 A 
HETATM   21  F1  UNL     1      15.266  -1.710  50.804  1.00  0.00    -0.204 F 
HETATM   22  C17 UNL     1      17.173  -0.372  51.166  1.00  0.00     0.087 A 
HETATM   23 CL1  UNL     1      16.909   0.575  49.731  1.00  0.00    -0.080 Cl
HETATM   24  N5  UNL     1      19.642  -0.680  54.144  1.00  0.00    -0.340 N 
HETATM   25  H15 UNL     1      19.332  -0.984  55.083  1.00  0.00     0.167 HD
ENDROOT
BRANCH   1  26
HETATM   26  O1  UNL     1      25.526   0.392  52.676  1.00  0.00    -0.374 OA
HETATM   27  H1  UNL     1      26.075   1.232  52.548  1.00  0.00     0.212 HD
ENDBRANCH   1  26
TORSDOF 1
ENDMDL
MODEL 5
REMARK VINA RESULT:      -8.0      4.281      6.249
REMARK  1 active torsions:
REMARK  status: ('A' for Active; 'I' for Inactive)
REMARK    1  A    between atoms: O1_1  and  C1_2 
ROOT
HETATM    1  C1  UNL     1      20.259   2.788  47.987  1.00  0.00     0.133 C 
HETATM    2  C2  UNL     1      21.594   2.763  47.735  1.00  0.00     0.187 C 
HETATM    3  C3  UNL     1      22.694   2.755  48.670  1.00  0.00     0.034 C 
HETATM    4  C4  UNL     1      23.136   2.783  49.910  1.00  0.00     0.126 C 
HETATM    5  N1  UNL     1      21.745   2.873  50.359  1.00  0.00    -0.225 NA
HETATM    6  C5  UNL     1      21.283   3.120  51.584  1.00  0.00     0.236 C 
HETATM    7  N2  UNL     1      21.609   2.235  52.714  1.00  0.00    -0.240 NA
HETATM    8  C6  UNL     1      22.232   1.043  52.618  1.00  0.00     0.089 C 
HETATM    9  C7  UNL     1      20.913   0.450  52.681  1.00  0.00     0.143 C 
HETATM   10  N3  UNL     1      20.071   0.394  51.671  1.00  0.00    -0.299 NA
HETATM   11  C8  UNL     1      18.777  -0.211  51.830  1.00  0.00     0.148 C 
HETATM   12  C9  UNL     1      17.721   0.807  51.496  1.00  0.00     0.027 C 
HETATM   13  C10 UNL     1      17.541   1.202  50.099  1.00  0.00     0.048 C 
HETATM   14  C11 UNL     1      18.615   1.749  49.315  1.00  0.00     0.086 C 
HETATM   15  N4  UNL     1      18.894   2.815  48.563  1.00  0.00    -0.273 NA
HETATM   16  C12 UNL     1      23.683   0.902  52.492  1.00  0.00     0.046 A 
HETATM   17  C13 UNL     1      24.524   1.633  51.612  1.00  0.00     0.048 A 
HETATM   18  C14 UNL     1      25.845   1.288  51.689  1.00  0.00     0.033 A 
HETATM   19  C15 UNL     1      26.331   0.337  52.522  1.00  0.00     0.046 A 
HETATM   20  C16 UNL     1      25.502  -0.359  53.367  1.00  0.00     0.139 A 
HETATM   21  F1  UNL     1      25.975  -1.299  54.193  1.00  0.00    -0.204 F 
HETATM   22  C17 UNL     1      24.160  -0.061  53.340  1.00  0.00     0.087 A 
HETATM   23 CL1  UNL     1      23.000  -0.866  54.357  1.00  0.00    -0.080 Cl
HETATM   24  N5  UNL     1      24.358   2.695  50.616  1.00  0.00    -0.340 N 
HETATM   25  H15 UNL     1      25.185   3.309  50.518  1.00  0.00     0.167 HD
ENDROOT
BRANCH   1  26
HETATM   26  O1  UNL     1      19.560   2.790  46.756  1.00  0.00    -0.374 OA
HETATM   27  H1  UNL     1      18.651   3.232  46.795  1.00  0.00     0.212 HD
ENDBRANCH   1  26
TORSDOF 1
ENDMDL
MODEL 6
REMARK VINA RESULT:      -8.0      4.004      6.271
REMARK  1 active torsions:
REMARK  status: ('A' for Active; 'I' for Inactive)
REMARK    1  A    between atoms: O1_1  and  C1_2 
ROOT
HETATM    1  C1  UNL     1      22.098   5.504  48.550  1.00  0.00     0.133 C 
HETATM    2  C2  UNL     1      23.374   5.142  48.254  1.00  0.00     0.187 C 
HETATM    3  C3  UNL     1      24.382   4.578  49.120  1.00  0.00     0.034 C 
HETATM    4  C4  UNL     1      24.761   4.170  50.313  1.00  0.00     0.126 C 
HETATM    5  N1  UNL     1      23.444   4.562  50.819  1.00  0.00    -0.225 NA
HETATM    6  C5  UNL     1      23.027   4.631  52.083  1.00  0.00     0.236 C 
HETATM    7  N2  UNL     1      23.026   3.444  52.951  1.00  0.00    -0.240 NA
HETATM    8  C6  UNL     1      23.267   2.180  52.546  1.00  0.00     0.089 C 
HETATM    9  C7  UNL     1      21.830   2.013  52.509  1.00  0.00     0.143 C 
HETATM   10  N3  UNL     1      21.052   2.459  51.546  1.00  0.00    -0.299 NA
HETATM   11  C8  UNL     1      19.631   2.250  51.597  1.00  0.00     0.148 C 
HETATM   12  C9  UNL     1      18.943   3.587  51.558  1.00  0.00     0.027 C 
HETATM   13  C10 UNL     1      18.946   4.345  50.306  1.00  0.00     0.048 C 
HETATM   14  C11 UNL     1      20.166   4.717  49.642  1.00  0.00     0.086 C 
HETATM   15  N4  UNL     1      20.781   5.799  49.163  1.00  0.00    -0.273 NA
HETATM   16  C12 UNL     1      24.614   1.645  52.339  1.00  0.00     0.046 A 
HETATM   17  C13 UNL     1      25.670   2.280  51.634  1.00  0.00     0.048 A 
HETATM   18  C14 UNL     1      26.823   1.547  51.579  1.00  0.00     0.033 A 
HETATM   19  C15 UNL     1      26.968   0.321  52.139  1.00  0.00     0.046 A 
HETATM   20  C16 UNL     1      25.935  -0.276  52.817  1.00  0.00     0.139 A 
HETATM   21  F1  UNL     1      26.071  -1.486  53.373  1.00  0.00    -0.204 F 
HETATM   22  C17 UNL     1      24.745   0.408  52.910  1.00  0.00     0.087 A 
HETATM   23 CL1  UNL     1      23.357  -0.233  53.740  1.00  0.00    -0.080 Cl
HETATM   24  N5  UNL     1      25.871   3.551  50.933  1.00  0.00    -0.340 N 
HETATM   25  H15 UNL     1      26.846   3.893  50.959  1.00  0.00     0.167 HD
ENDROOT
BRANCH   1  26
HETATM   26  O1  UNL     1      21.483   6.014  47.382  1.00  0.00    -0.374 OA
HETATM   27  H1  UNL     1      20.608   5.564  47.143  1.00  0.00     0.212 HD
ENDBRANCH   1  26
TORSDOF 1
ENDMDL
MODEL 7
REMARK VINA RESULT:      -7.8      3.325      4.832
REMARK  1 active torsions:
REMARK  status: ('A' for Active; 'I' for Inactive)
REMARK    1  A    between atoms: O1_1  and  C1_2 
ROOT
HETATM    1  C1  UNL     1      24.513   1.547  52.226  1.00  0.00     0.133 C 
HETATM    2  C2  UNL     1      25.833   1.781  52.002  1.00  0.00     0.187 C 
HETATM    3  C3  UNL     1      26.454   2.539  50.941  1.00  0.00     0.034 C 
HETATM    4  C4  UNL     1      26.351   3.254  49.841  1.00  0.00     0.126 C 
HETATM    5  N1  UNL     1      24.902   3.050  49.895  1.00  0.00    -0.225 NA
HETATM    6  C5  UNL     1      23.987   3.346  48.972  1.00  0.00     0.236 C 
HETATM    7  N2  UNL     1      23.793   4.728  48.506  1.00  0.00    -0.240 NA
HETATM    8  C6  UNL     1      24.362   5.823  49.051  1.00  0.00     0.089 C 
HETATM    9  C7  UNL     1      23.114   6.008  49.761  1.00  0.00     0.143 C 
HETATM   10  N3  UNL     1      22.758   5.330  50.831  1.00  0.00    -0.299 NA
HETATM   11  C8  UNL     1      21.494   5.581  51.467  1.00  0.00     0.148 C 
HETATM   12  C9  UNL     1      20.700   4.303  51.487  1.00  0.00     0.027 C 
HETATM   13  C10 UNL     1      21.120   3.227  52.385  1.00  0.00     0.048 C 
HETATM   14  C11 UNL     1      22.437   2.655  52.329  1.00  0.00     0.086 C 
HETATM   15  N4  UNL     1      23.033   1.467  52.211  1.00  0.00    -0.273 NA
HETATM   16  C12 UNL     1      25.733   6.246  48.760  1.00  0.00     0.046 A 
HETATM   17  C13 UNL     1      26.883   5.414  48.748  1.00  0.00     0.048 A 
HETATM   18  C14 UNL     1      28.045   6.074  48.459  1.00  0.00     0.033 A 
HETATM   19  C15 UNL     1      28.118   7.403  48.205  1.00  0.00     0.046 A 
HETATM   20  C16 UNL     1      26.994   8.191  48.220  1.00  0.00     0.139 A 
HETATM   21  F1  UNL     1      27.057   9.504  47.969  1.00  0.00    -0.204 F 
HETATM   22  C17 UNL     1      25.790   7.589  48.504  1.00  0.00     0.087 A 
HETATM   23 CL1  UNL     1      24.290   8.470  48.557  1.00  0.00    -0.080 Cl
HETATM   24  N5  UNL     1      27.174   3.993  48.960  1.00  0.00    -0.340 N 
HETATM   25  H15 UNL     1      27.987   3.648  48.423  1.00  0.00     0.167 HD
ENDROOT
BRANCH   1  26
HETATM   26  O1  UNL     1      24.379   0.748  53.385  1.00  0.00    -0.374 OA
HETATM   27  H1  UNL     1      25.227   0.661  53.931  1.00  0.00     0.212 HD
ENDBRANCH   1  26
TORSDOF 1
ENDMDL
MODEL 8
REMARK VINA RESULT:      -7.7      4.025      6.558
REMARK  1 active torsions:
REMARK  status: ('A' for Active; 'I' for Inactive)
REMARK    1  A    between atoms: O1_1  and  C1_2 
ROOT
HETATM    1  C1  UNL     1      22.493   5.028  48.423  1.00  0.00     0.133 C 
HETATM    2  C2  UNL     1      23.606   4.361  48.827  1.00  0.00     0.187 C 
HETATM    3  C3  UNL     1      23.850   3.673  50.072  1.00  0.00     0.034 C 
HETATM    4  C4  UNL     1      23.447   3.308  51.271  1.00  0.00     0.126 C 
HETATM    5  N1  UNL     1      22.199   4.034  51.025  1.00  0.00    -0.225 NA
HETATM    6  C5  UNL     1      21.220   4.318  51.884  1.00  0.00     0.236 C 
HETATM    7  N2  UNL     1      20.484   3.252  52.580  1.00  0.00    -0.240 NA
HETATM    8  C6  UNL     1      20.585   1.932  52.317  1.00  0.00     0.089 C 
HETATM    9  C7  UNL     1      19.382   2.090  51.526  1.00  0.00     0.143 C 
HETATM   10  N3  UNL     1      19.349   2.604  50.314  1.00  0.00    -0.299 NA
HETATM   11  C8  UNL     1      18.104   2.725  49.606  1.00  0.00     0.148 C 
HETATM   12  C9  UNL     1      17.883   4.172  49.260  1.00  0.00     0.027 C 
HETATM   13  C10 UNL     1      18.716   4.784  48.224  1.00  0.00     0.048 C 
HETATM   14  C11 UNL     1      20.151   4.805  48.311  1.00  0.00     0.086 C 
HETATM   15  N4  UNL     1      21.166   5.670  48.264  1.00  0.00    -0.273 NA
HETATM   16  C12 UNL     1      21.668   1.091  52.828  1.00  0.00     0.046 A 
HETATM   17  C13 UNL     1      23.053   1.401  52.804  1.00  0.00     0.048 A 
HETATM   18  C14 UNL     1      23.851   0.426  53.335  1.00  0.00     0.033 A 
HETATM   19  C15 UNL     1      23.384  -0.741  53.843  1.00  0.00     0.046 A 
HETATM   20  C16 UNL     1      22.041  -1.022  53.858  1.00  0.00     0.139 A 
HETATM   21  F1  UNL     1      21.572  -2.171  54.358  1.00  0.00    -0.204 F 
HETATM   22  C17 UNL     1      21.181  -0.082  53.338  1.00  0.00     0.087 A 
HETATM   23 CL1  UNL     1      19.457  -0.311  53.293  1.00  0.00    -0.080 Cl
HETATM   24  N5  UNL     1      23.888   2.520  52.358  1.00  0.00    -0.340 N 
HETATM   25  H15 UNL     1      24.759   2.635  52.904  1.00  0.00     0.167 HD
ENDROOT
BRANCH   1  26
HETATM   26  O1  UNL     1      22.714   5.546  47.125  1.00  0.00    -0.374 OA
HETATM   27  H1  UNL     1      21.870   5.688  46.584  1.00  0.00     0.212 HD
ENDBRANCH   1  26
TORSDOF 1
ENDMDL
MODEL 9
REMARK VINA RESULT:      -7.6      8.306     11.245
REMARK  1 active torsions:
REMARK  status: ('A' for Active; 'I' for Inactive)
REMARK    1  A    between atoms: O1_1  and  C1_2 
ROOT
HETATM    1  C1  UNL     1      33.435   6.269  46.873  1.00  0.00     0.133 C 
HETATM    2  C2  UNL     1      32.464   5.318  46.876  1.00  0.00     0.187 C 
HETATM    3  C3  UNL     1      31.184   5.330  47.543  1.00  0.00     0.034 C 
HETATM    4  C4  UNL     1      30.315   5.927  48.331  1.00  0.00     0.126 C 
HETATM    5  N1  UNL     1      31.274   7.022  48.488  1.00  0.00    -0.225 NA
HETATM    6  C5  UNL     1      31.228   8.052  49.333  1.00  0.00     0.236 C 
HETATM    7  N2  UNL     1      30.112   9.011  49.305  1.00  0.00    -0.240 NA
HETATM    8  C6  UNL     1      29.149   9.061  48.363  1.00  0.00     0.089 C 
HETATM    9  C7  UNL     1      29.925  10.121  47.754  1.00  0.00     0.143 C 
HETATM   10  N3  UNL     1      31.004   9.930  47.024  1.00  0.00    -0.299 NA
HETATM   11  C8  UNL     1      31.713  11.047  46.464  1.00  0.00     0.148 C 
HETATM   12  C9  UNL     1      33.131  11.021  46.964  1.00  0.00     0.027 C 
HETATM   13  C10 UNL     1      34.038   9.988  46.461  1.00  0.00     0.048 C 
HETATM   14  C11 UNL     1      33.744   8.586  46.588  1.00  0.00     0.086 C 
HETATM   15  N4  UNL     1      34.293   7.463  47.055  1.00  0.00    -0.273 NA
HETATM   16  C12 UNL     1      27.982   8.177  48.358  1.00  0.00     0.046 A 
HETATM   17  C13 UNL     1      27.994   6.770  48.550  1.00  0.00     0.048 A 
HETATM   18  C14 UNL     1      26.758   6.188  48.479  1.00  0.00     0.033 A 
HETATM   19  C15 UNL     1      25.612   6.872  48.248  1.00  0.00     0.046 A 
HETATM   20  C16 UNL     1      25.621   8.232  48.066  1.00  0.00     0.139 A 
HETATM   21  F1  UNL     1      24.492   8.914  47.837  1.00  0.00    -0.204 F 
HETATM   22  C17 UNL     1      26.832   8.881  48.124  1.00  0.00     0.087 A 
HETATM   23 CL1  UNL     1      26.986  10.601  47.910  1.00  0.00    -0.080 Cl
HETATM   24  N5  UNL     1      29.000   5.739  48.818  1.00  0.00    -0.340 N 
HETATM   25  H15 UNL     1      28.642   4.937  49.362  1.00  0.00     0.167 HD
ENDROOT
BRANCH   1  26
HETATM   26  O1  UNL     1      34.517   5.817  46.082  1.00  0.00    -0.374 OA
HETATM   27  H1  UNL     1      35.131   5.162  46.551  1.00  0.00     0.212 HD
ENDBRANCH   1  26
TORSDOF 1
ENDMDL
