MODEL 1
REMARK VINA RESULT:      -7.1      0.000      0.000
REMARK  5 active torsions:
REMARK  status: ('A' for Active; 'I' for Inactive)
REMARK    1  A    between atoms: O1_2  and  C2_3 
REMARK    2  A    between atoms: N1_7  and  C6_8 
REMARK    3  A    between atoms: N2_9  and  C7_10 
REMARK    4  A    between atoms: C10_13  and  N3_14 
REMARK       I    between atoms: N3_14  and  C11_15 
REMARK    5  A    between atoms: C16_21  and  O3_22 
ROOT
HETATM    1  C6  UNL     1      23.238   2.936  51.394  1.00  0.00     0.233 C 
HETATM    2  N2  UNL     1      23.121   2.222  52.463  1.00  0.00    -0.242 NA
ENDROOT
BRANCH   1   3
HETATM    3  N1  UNL     1      24.364   3.122  50.547  1.00  0.00    -0.246 NA
HETATM    4  C5  UNL     1      24.826   4.252  50.203  1.00  0.00     0.042 A 
HETATM    5  C4  UNL     1      26.010   4.366  49.312  1.00  0.00     0.089 A 
HETATM    6  C15 UNL     1      24.147   5.442  50.714  1.00  0.00     0.067 A 
HETATM    7  C3  UNL     1      26.364   5.767  49.049  1.00  0.00     0.019 A 
HETATM    8  C2  UNL     1      25.752   6.863  49.511  1.00  0.00     0.098 A 
HETATM    9  C16 UNL     1      24.583   6.659  50.389  1.00  0.00     0.103 A 
BRANCH   8  10
HETATM   10  O1  UNL     1      26.074   8.192  49.271  1.00  0.00    -0.353 OA
HETATM   11  C1  UNL     1      27.130   8.789  49.978  1.00  0.00     0.210 C 
ENDBRANCH   8  10
BRANCH   9  12
HETATM   12  O3  UNL     1      23.876   7.746  50.923  1.00  0.00    -0.353 OA
HETATM   13  C17 UNL     1      22.623   8.025  50.373  1.00  0.00     0.210 C 
ENDBRANCH   9  12
ENDBRANCH   1   3
BRANCH   2  14
HETATM   14  C7  UNL     1      24.150   1.448  53.025  1.00  0.00     0.058 A 
HETATM   15  C8  UNL     1      24.224   0.080  53.186  1.00  0.00     0.034 A 
HETATM   16  C9  UNL     1      25.335  -0.496  53.767  1.00  0.00     0.032 A 
HETATM   17  C10 UNL     1      26.382   0.294  54.192  1.00  0.00     0.034 A 
HETATM   18  C13 UNL     1      26.344   1.683  54.046  1.00  0.00     0.032 A 
HETATM   19  C14 UNL     1      25.206   2.238  53.454  1.00  0.00     0.034 A 
BRANCH  17  20
HETATM   20  N3  UNL     1      27.540  -0.277  54.796  1.00  0.00    -0.328 N 
HETATM   21  C11 UNL     1      28.522  -0.559  53.779  1.00  0.00     0.218 C 
HETATM   22  C12 UNL     1      29.850  -1.160  54.054  1.00  0.00     0.117 C 
HETATM   23  O2  UNL     1      28.314  -0.310  52.562  1.00  0.00    -0.274 OA
HETATM   24  H10 UNL     1      27.813  -0.522  55.772  1.00  0.00     0.169 HD
ENDBRANCH  17  20
ENDBRANCH   2  14
TORSDOF 5
ENDMDL
MODEL 2
REMARK VINA RESULT:      -7.0      3.142      4.171
REMARK  5 active torsions:
REMARK  status: ('A' for Active; 'I' for Inactive)
REMARK    1  A    between atoms: O1_2  and  C2_3 
REMARK    2  A    between atoms: N1_7  and  C6_8 
REMARK    3  A    between atoms: N2_9  and  C7_10 
REMARK    4  A    between atoms: C10_13  and  N3_14 
REMARK       I    between atoms: N3_14  and  C11_15 
REMARK    5  A    between atoms: C16_21  and  O3_22 
ROOT
HETATM    1  C6  UNL     1      24.142   5.259  49.679  1.00  0.00     0.233 C 
HETATM    2  N2  UNL     1      23.261   4.841  50.524  1.00  0.00    -0.242 NA
ENDROOT
BRANCH   1   3
HETATM    3  N1  UNL     1      25.381   4.674  49.297  1.00  0.00    -0.246 NA
HETATM    4  C5  UNL     1      26.425   5.330  49.004  1.00  0.00     0.042 A 
HETATM    5  C4  UNL     1      27.686   4.646  48.614  1.00  0.00     0.089 A 
HETATM    6  C15 UNL     1      26.344   6.789  49.063  1.00  0.00     0.067 A 
HETATM    7  C3  UNL     1      28.760   5.603  48.319  1.00  0.00     0.019 A 
HETATM    8  C2  UNL     1      28.698   6.938  48.369  1.00  0.00     0.098 A 
HETATM    9  C16 UNL     1      27.408   7.536  48.766  1.00  0.00     0.103 A 
BRANCH   8  10
HETATM   10  O1  UNL     1      29.704   7.855  48.093  1.00  0.00    -0.353 OA
HETATM   11  C1  UNL     1      30.808   7.954  48.955  1.00  0.00     0.210 C 
ENDBRANCH   8  10
BRANCH   9  12
HETATM   12  O3  UNL     1      27.245   8.927  48.848  1.00  0.00    -0.353 OA
HETATM   13  C17 UNL     1      27.375   9.511  50.110  1.00  0.00     0.210 C 
ENDBRANCH   9  12
ENDBRANCH   1   3
BRANCH   2  14
HETATM   14  C7  UNL     1      23.367   3.657  51.272  1.00  0.00     0.058 A 
HETATM   15  C8  UNL     1      23.999   3.439  52.478  1.00  0.00     0.034 A 
HETATM   16  C9  UNL     1      23.990   2.186  53.057  1.00  0.00     0.032 A 
HETATM   17  C10 UNL     1      23.345   1.140  52.431  1.00  0.00     0.034 A 
HETATM   18  C13 UNL     1      22.693   1.321  51.208  1.00  0.00     0.032 A 
HETATM   19  C14 UNL     1      22.720   2.601  50.647  1.00  0.00     0.034 A 
BRANCH  17  20
HETATM   20  N3  UNL     1      23.321  -0.163  53.008  1.00  0.00    -0.328 N 
HETATM   21  C11 UNL     1      22.134  -0.310  53.814  1.00  0.00     0.218 C 
HETATM   22  C12 UNL     1      21.789  -1.543  54.562  1.00  0.00     0.117 C 
HETATM   23  O2  UNL     1      21.293   0.619  53.938  1.00  0.00    -0.274 OA
HETATM   24  H10 UNL     1      23.952  -0.992  52.972  1.00  0.00     0.169 HD
ENDBRANCH  17  20
ENDBRANCH   2  14
TORSDOF 5
ENDMDL
MODEL 3
REMARK VINA RESULT:      -6.9      4.532      7.162
REMARK  5 active torsions:
REMARK  status: ('A' for Active; 'I' for Inactive)
REMARK    1  A    between atoms: O1_2  and  C2_3 
REMARK    2  A    between atoms: N1_7  and  C6_8 
REMARK    3  A    between atoms: N2_9  and  C7_10 
REMARK    4  A    between atoms: C10_13  and  N3_14 
REMARK       I    between atoms: N3_14  and  C11_15 
REMARK    5  A    between atoms: C16_21  and  O3_22 
ROOT
HETATM    1  C6  UNL     1      22.229   2.135  52.363  1.00  0.00     0.233 C 
HETATM    2  N2  UNL     1      23.314   2.740  52.012  1.00  0.00    -0.242 NA
ENDROOT
BRANCH   1   3
HETATM    3  N1  UNL     1      22.050   1.023  53.231  1.00  0.00    -0.246 NA
HETATM    4  C5  UNL     1      21.029   0.272  53.236  1.00  0.00     0.042 A 
HETATM    5  C4  UNL     1      20.915  -0.875  54.175  1.00  0.00     0.089 A 
HETATM    6  C15 UNL     1      19.963   0.576  52.282  1.00  0.00     0.067 A 
HETATM    7  C3  UNL     1      19.650  -1.601  54.002  1.00  0.00     0.019 A 
HETATM    8  C2  UNL     1      18.669  -1.333  53.134  1.00  0.00     0.098 A 
HETATM    9  C16 UNL     1      18.863  -0.176  52.237  1.00  0.00     0.103 A 
BRANCH   8  10
HETATM   10  O1  UNL     1      17.469  -2.009  52.959  1.00  0.00    -0.353 OA
HETATM   11  C1  UNL     1      17.286  -3.265  53.561  1.00  0.00     0.210 C 
ENDBRANCH   8  10
BRANCH   9  12
HETATM   12  O3  UNL     1      17.891   0.184  51.292  1.00  0.00    -0.353 OA
HETATM   13  C17 UNL     1      16.891   1.065  51.708  1.00  0.00     0.210 C 
ENDBRANCH   9  12
ENDBRANCH   1   3
BRANCH   2  14
HETATM   14  C7  UNL     1      24.602   2.391  52.452  1.00  0.00     0.058 A 
HETATM   15  C8  UNL     1      25.175   2.556  53.695  1.00  0.00     0.034 A 
HETATM   16  C9  UNL     1      26.470   2.141  53.929  1.00  0.00     0.032 A 
HETATM   17  C10 UNL     1      27.202   1.555  52.918  1.00  0.00     0.034 A 
HETATM   18  C13 UNL     1      26.656   1.370  51.645  1.00  0.00     0.032 A 
HETATM   19  C14 UNL     1      25.343   1.801  51.438  1.00  0.00     0.034 A 
BRANCH  17  20
HETATM   20  N3  UNL     1      28.542   1.119  53.135  1.00  0.00    -0.328 N 
HETATM   21  C11 UNL     1      28.539  -0.278  53.492  1.00  0.00     0.218 C 
HETATM   22  C12 UNL     1      29.765  -1.059  53.788  1.00  0.00     0.117 C 
HETATM   23  O2  UNL     1      27.473  -0.943  53.578  1.00  0.00    -0.274 OA
HETATM   24  H10 UNL     1      29.478   1.575  53.091  1.00  0.00     0.169 HD
ENDBRANCH  17  20
ENDBRANCH   2  14
TORSDOF 5
ENDMDL
MODEL 4
REMARK VINA RESULT:      -6.8      2.632      3.457
REMARK  5 active torsions:
REMARK  status: ('A' for Active; 'I' for Inactive)
REMARK    1  A    between atoms: O1_2  and  C2_3 
REMARK    2  A    between atoms: N1_7  and  C6_8 
REMARK    3  A    between atoms: N2_9  and  C7_10 
REMARK    4  A    between atoms: C10_13  and  N3_14 
REMARK       I    between atoms: N3_14  and  C11_15 
REMARK    5  A    between atoms: C16_21  and  O3_22 
ROOT
HETATM    1  C6  UNL     1      21.522   1.325  52.156  1.00  0.00     0.233 C 
HETATM    2  N2  UNL     1      22.431   1.263  53.069  1.00  0.00    -0.242 NA
ENDROOT
BRANCH   1   3
HETATM    3  N1  UNL     1      21.605   1.010  50.771  1.00  0.00    -0.246 NA
HETATM    4  C5  UNL     1      21.818   1.857  49.852  1.00  0.00     0.042 A 
HETATM    5  C4  UNL     1      21.891   1.450  48.425  1.00  0.00     0.089 A 
HETATM    6  C15 UNL     1      21.988   3.254  50.249  1.00  0.00     0.067 A 
HETATM    7  C3  UNL     1      22.145   2.595  47.541  1.00  0.00     0.019 A 
HETATM    8  C2  UNL     1      22.302   3.876  47.892  1.00  0.00     0.098 A 
HETATM    9  C16 UNL     1      22.214   4.193  49.331  1.00  0.00     0.103 A 
BRANCH   8  10
HETATM   10  O1  UNL     1      22.542   4.968  47.069  1.00  0.00    -0.353 OA
HETATM   11  C1  UNL     1      21.545   5.398  46.178  1.00  0.00     0.210 C 
ENDBRANCH   8  10
BRANCH   9  12
HETATM   12  O3  UNL     1      22.367   5.508  49.797  1.00  0.00    -0.353 OA
HETATM   13  C17 UNL     1      22.856   5.673  51.094  1.00  0.00     0.210 C 
ENDBRANCH   9  12
ENDBRANCH   1   3
BRANCH   2  14
HETATM   14  C7  UNL     1      23.756   0.846  52.854  1.00  0.00     0.058 A 
HETATM   15  C8  UNL     1      24.751   1.448  52.113  1.00  0.00     0.034 A 
HETATM   16  C9  UNL     1      26.002   0.873  52.024  1.00  0.00     0.032 A 
HETATM   17  C10 UNL     1      26.267  -0.311  52.679  1.00  0.00     0.034 A 
HETATM   18  C13 UNL     1      25.285  -0.951  53.440  1.00  0.00     0.032 A 
HETATM   19  C14 UNL     1      24.027  -0.345  53.510  1.00  0.00     0.034 A 
BRANCH  17  20
HETATM   20  N3  UNL     1      27.551  -0.925  52.602  1.00  0.00    -0.328 N 
HETATM   21  C11 UNL     1      28.413  -0.362  53.612  1.00  0.00     0.218 C 
HETATM   22  C12 UNL     1      29.824  -0.771  53.817  1.00  0.00     0.117 C 
HETATM   23  O2  UNL     1      28.017   0.533  54.404  1.00  0.00    -0.274 OA
HETATM   24  H10 UNL     1      27.977  -1.661  51.998  1.00  0.00     0.169 HD
ENDBRANCH  17  20
ENDBRANCH   2  14
TORSDOF 5
ENDMDL
MODEL 5
REMARK VINA RESULT:      -6.5      3.219      8.002
REMARK  5 active torsions:
REMARK  status: ('A' for Active; 'I' for Inactive)
REMARK    1  A    between atoms: O1_2  and  C2_3 
REMARK    2  A    between atoms: N1_7  and  C6_8 
REMARK    3  A    between atoms: N2_9  and  C7_10 
REMARK    4  A    between atoms: C10_13  and  N3_14 
REMARK       I    between atoms: N3_14  and  C11_15 
REMARK    5  A    between atoms: C16_21  and  O3_22 
ROOT
HETATM    1  C6  UNL     1      23.814   4.035  52.403  1.00  0.00     0.233 C 
HETATM    2  N2  UNL     1      23.748   4.679  51.287  1.00  0.00    -0.242 NA
ENDROOT
BRANCH   1   3
HETATM    3  N1  UNL     1      23.325   2.741  52.735  1.00  0.00    -0.246 NA
HETATM    4  C5  UNL     1      24.056   1.724  52.930  1.00  0.00     0.042 A 
HETATM    5  C4  UNL     1      23.470   0.403  53.275  1.00  0.00     0.089 A 
HETATM    6  C15 UNL     1      25.503   1.899  52.804  1.00  0.00     0.067 A 
HETATM    7  C3  UNL     1      24.504  -0.625  53.455  1.00  0.00     0.019 A 
HETATM    8  C2  UNL     1      25.828  -0.477  53.342  1.00  0.00     0.098 A 
HETATM    9  C16 UNL     1      26.326   0.869  52.997  1.00  0.00     0.103 A 
BRANCH   8  10
HETATM   10  O1  UNL     1      26.816  -1.438  53.509  1.00  0.00    -0.353 OA
HETATM   11  C1  UNL     1      27.100  -2.331  52.462  1.00  0.00     0.210 C 
ENDBRANCH   8  10
BRANCH   9  12
HETATM   12  O3  UNL     1      27.699   1.123  52.857  1.00  0.00    -0.353 OA
HETATM   13  C17 UNL     1      28.195   2.290  53.441  1.00  0.00     0.210 C 
ENDBRANCH   9  12
ENDBRANCH   1   3
BRANCH   2  14
HETATM   14  C7  UNL     1      23.141   4.191  50.117  1.00  0.00     0.058 A 
HETATM   15  C8  UNL     1      23.545   3.167  49.287  1.00  0.00     0.034 A 
HETATM   16  C9  UNL     1      22.801   2.837  48.172  1.00  0.00     0.032 A 
HETATM   17  C10 UNL     1      21.646   3.531  47.880  1.00  0.00     0.034 A 
HETATM   18  C13 UNL     1      21.205   4.574  48.698  1.00  0.00     0.032 A 
HETATM   19  C14 UNL     1      21.978   4.886  49.819  1.00  0.00     0.034 A 
BRANCH  17  20
HETATM   20  N3  UNL     1      20.861   3.208  46.735  1.00  0.00    -0.328 N 
HETATM   21  C11 UNL     1      21.326   3.974  45.604  1.00  0.00     0.218 C 
HETATM   22  C12 UNL     1      20.733   3.888  44.247  1.00  0.00     0.117 C 
HETATM   23  O2  UNL     1      22.286   4.783  45.695  1.00  0.00    -0.274 OA
HETATM   24  H10 UNL     1      20.060   2.567  46.552  1.00  0.00     0.169 HD
ENDBRANCH  17  20
ENDBRANCH   2  14
TORSDOF 5
ENDMDL
MODEL 6
REMARK VINA RESULT:      -6.5      3.719      5.876
REMARK  5 active torsions:
REMARK  status: ('A' for Active; 'I' for Inactive)
REMARK    1  A    between atoms: O1_2  and  C2_3 
REMARK    2  A    between atoms: N1_7  and  C6_8 
REMARK    3  A    between atoms: N2_9  and  C7_10 
REMARK    4  A    between atoms: C10_13  and  N3_14 
REMARK       I    between atoms: N3_14  and  C11_15 
REMARK    5  A    between atoms: C16_21  and  O3_22 
ROOT
HETATM    1  C6  UNL     1      22.842   4.355  51.541  1.00  0.00     0.233 C 
HETATM    2  N2  UNL     1      23.922   4.187  52.227  1.00  0.00    -0.242 NA
ENDROOT
BRANCH   1   3
HETATM    3  N1  UNL     1      22.259   3.519  50.549  1.00  0.00    -0.246 NA
HETATM    4  C5  UNL     1      21.494   2.538  50.795  1.00  0.00     0.042 A 
HETATM    5  C4  UNL     1      20.920   1.710  49.703  1.00  0.00     0.089 A 
HETATM    6  C15 UNL     1      21.196   2.250  52.198  1.00  0.00     0.067 A 
HETATM    7  C3  UNL     1      20.067   0.633  50.222  1.00  0.00     0.019 A 
HETATM    8  C2  UNL     1      19.788   0.360  51.501  1.00  0.00     0.098 A 
HETATM    9  C16 UNL     1      20.400   1.233  52.523  1.00  0.00     0.103 A 
BRANCH   8  10
HETATM   10  O1  UNL     1      18.985  -0.654  52.007  1.00  0.00    -0.353 OA
HETATM   11  C1  UNL     1      17.587  -0.519  51.963  1.00  0.00     0.210 C 
ENDBRANCH   8  10
BRANCH   9  12
HETATM   12  O3  UNL     1      20.165   1.026  53.891  1.00  0.00    -0.353 OA
HETATM   13  C17 UNL     1      21.077   0.226  54.581  1.00  0.00     0.210 C 
ENDBRANCH   9  12
ENDBRANCH   1   3
BRANCH   2  14
HETATM   14  C7  UNL     1      24.776   3.076  52.117  1.00  0.00     0.058 A 
HETATM   15  C8  UNL     1      25.747   2.812  51.174  1.00  0.00     0.034 A 
HETATM   16  C9  UNL     1      26.488   1.650  51.240  1.00  0.00     0.032 A 
HETATM   17  C10 UNL     1      26.262   0.742  52.253  1.00  0.00     0.034 A 
HETATM   18  C13 UNL     1      25.287   0.974  53.227  1.00  0.00     0.032 A 
HETATM   19  C14 UNL     1      24.552   2.159  53.134  1.00  0.00     0.034 A 
BRANCH  17  20
HETATM   20  N3  UNL     1      27.014  -0.466  52.343  1.00  0.00    -0.328 N 
HETATM   21  C11 UNL     1      28.186  -0.242  53.154  1.00  0.00     0.218 C 
HETATM   22  C12 UNL     1      29.194  -1.287  53.457  1.00  0.00     0.117 C 
HETATM   23  O2  UNL     1      28.437   0.879  53.670  1.00  0.00    -0.274 OA
HETATM   24  H10 UNL     1      26.901  -1.430  51.964  1.00  0.00     0.169 HD
ENDBRANCH  17  20
ENDBRANCH   2  14
TORSDOF 5
ENDMDL
MODEL 7
REMARK VINA RESULT:      -6.5      2.105      2.750
REMARK  5 active torsions:
REMARK  status: ('A' for Active; 'I' for Inactive)
REMARK    1  A    between atoms: O1_2  and  C2_3 
REMARK    2  A    between atoms: N1_7  and  C6_8 
REMARK    3  A    between atoms: N2_9  and  C7_10 
REMARK    4  A    between atoms: C10_13  and  N3_14 
REMARK       I    between atoms: N3_14  and  C11_15 
REMARK    5  A    between atoms: C16_21  and  O3_22 
ROOT
HETATM    1  C6  UNL     1      22.528   3.162  52.369  1.00  0.00     0.233 C 
HETATM    2  N2  UNL     1      22.730   1.892  52.470  1.00  0.00    -0.242 NA
ENDROOT
BRANCH   1   3
HETATM    3  N1  UNL     1      23.464   4.218  52.189  1.00  0.00    -0.246 NA
HETATM    4  C5  UNL     1      23.207   5.314  51.605  1.00  0.00     0.042 A 
HETATM    5  C4  UNL     1      24.240   6.372  51.455  1.00  0.00     0.089 A 
HETATM    6  C15 UNL     1      21.854   5.499  51.081  1.00  0.00     0.067 A 
HETATM    7  C3  UNL     1      23.719   7.550  50.748  1.00  0.00     0.019 A 
HETATM    8  C2  UNL     1      22.485   7.730  50.265  1.00  0.00     0.098 A 
HETATM    9  C16 UNL     1      21.522   6.628  50.456  1.00  0.00     0.103 A 
BRANCH   8  10
HETATM   10  O1  UNL     1      21.979   8.836  49.595  1.00  0.00    -0.353 OA
HETATM   11  C1  UNL     1      22.360   9.075  48.264  1.00  0.00     0.210 C 
ENDBRANCH   8  10
BRANCH   9  12
HETATM   12  O3  UNL     1      20.203   6.724  49.986  1.00  0.00    -0.353 OA
HETATM   13  C17 UNL     1      19.564   5.535  49.632  1.00  0.00     0.210 C 
ENDBRANCH   9  12
ENDBRANCH   1   3
BRANCH   2  14
HETATM   14  C7  UNL     1      23.991   1.275  52.416  1.00  0.00     0.058 A 
HETATM   15  C8  UNL     1      25.071   1.566  51.609  1.00  0.00     0.034 A 
HETATM   16  C9  UNL     1      26.237   0.834  51.710  1.00  0.00     0.032 A 
HETATM   17  C10 UNL     1      26.331  -0.195  52.623  1.00  0.00     0.034 A 
HETATM   18  C13 UNL     1      25.259  -0.519  53.459  1.00  0.00     0.032 A 
HETATM   19  C14 UNL     1      24.091   0.239  53.333  1.00  0.00     0.034 A 
BRANCH  17  20
HETATM   20  N3  UNL     1      27.524  -0.965  52.747  1.00  0.00    -0.328 N 
HETATM   21  C11 UNL     1      28.480  -0.244  53.551  1.00  0.00     0.218 C 
HETATM   22  C12 UNL     1      29.833  -0.752  53.883  1.00  0.00     0.117 C 
HETATM   23  O2  UNL     1      28.224   0.890  54.036  1.00  0.00    -0.274 OA
HETATM   24  H10 UNL     1      27.836  -1.895  52.395  1.00  0.00     0.169 HD
ENDBRANCH  17  20
ENDBRANCH   2  14
TORSDOF 5
ENDMDL
MODEL 8
REMARK VINA RESULT:      -6.5      3.866      8.039
REMARK  5 active torsions:
REMARK  status: ('A' for Active; 'I' for Inactive)
REMARK    1  A    between atoms: O1_2  and  C2_3 
REMARK    2  A    between atoms: N1_7  and  C6_8 
REMARK    3  A    between atoms: N2_9  and  C7_10 
REMARK    4  A    between atoms: C10_13  and  N3_14 
REMARK       I    between atoms: N3_14  and  C11_15 
REMARK    5  A    between atoms: C16_21  and  O3_22 
ROOT
HETATM    1  C6  UNL     1      21.915   0.196  52.269  1.00  0.00     0.233 C 
HETATM    2  N2  UNL     1      21.174  -0.081  51.249  1.00  0.00    -0.242 NA
ENDROOT
BRANCH   1   3
HETATM    3  N1  UNL     1      22.642   1.381  52.567  1.00  0.00    -0.246 NA
HETATM    4  C5  UNL     1      23.830   1.403  53.009  1.00  0.00     0.042 A 
HETATM    5  C4  UNL     1      24.527   2.684  53.297  1.00  0.00     0.089 A 
HETATM    6  C15 UNL     1      24.493   0.117  53.228  1.00  0.00     0.067 A 
HETATM    7  C3  UNL     1      25.890   2.466  53.799  1.00  0.00     0.019 A 
HETATM    8  C2  UNL     1      26.506   1.297  54.003  1.00  0.00     0.098 A 
HETATM    9  C16 UNL     1      25.741   0.072  53.692  1.00  0.00     0.103 A 
BRANCH   8  10
HETATM   10  O1  UNL     1      27.792   1.075  54.477  1.00  0.00    -0.353 OA
HETATM   11  C1  UNL     1      28.892   1.321  53.639  1.00  0.00     0.210 C 
ENDBRANCH   8  10
BRANCH   9  12
HETATM   12  O3  UNL     1      26.302  -1.201  53.872  1.00  0.00    -0.353 OA
HETATM   13  C17 UNL     1      26.843  -1.825  52.746  1.00  0.00     0.210 C 
ENDBRANCH   9  12
ENDBRANCH   1   3
BRANCH   2  14
HETATM   14  C7  UNL     1      20.933   0.792  50.175  1.00  0.00     0.058 A 
HETATM   15  C8  UNL     1      21.742   1.099  49.102  1.00  0.00     0.034 A 
HETATM   16  C9  UNL     1      21.318   1.993  48.139  1.00  0.00     0.032 A 
HETATM   17  C10 UNL     1      20.078   2.586  48.245  1.00  0.00     0.034 A 
HETATM   18  C13 UNL     1      19.229   2.300  49.318  1.00  0.00     0.032 A 
HETATM   19  C14 UNL     1      19.686   1.392  50.277  1.00  0.00     0.034 A 
BRANCH  17  20
HETATM   20  N3  UNL     1      19.617   3.512  47.264  1.00  0.00    -0.328 N 
HETATM   21  C11 UNL     1      20.027   4.845  47.633  1.00  0.00     0.218 C 
HETATM   22  C12 UNL     1      19.716   6.057  46.835  1.00  0.00     0.117 C 
HETATM   23  O2  UNL     1      20.690   5.074  48.679  1.00  0.00    -0.274 OA
HETATM   24  H10 UNL     1      19.073   3.433  46.379  1.00  0.00     0.169 HD
ENDBRANCH  17  20
ENDBRANCH   2  14
TORSDOF 5
ENDMDL
MODEL 9
REMARK VINA RESULT:      -6.4      2.907      8.101
REMARK  5 active torsions:
REMARK  status: ('A' for Active; 'I' for Inactive)
REMARK    1  A    between atoms: O1_2  and  C2_3 
REMARK    2  A    between atoms: N1_7  and  C6_8 
REMARK    3  A    between atoms: N2_9  and  C7_10 
REMARK    4  A    between atoms: C10_13  and  N3_14 
REMARK       I    between atoms: N3_14  and  C11_15 
REMARK    5  A    between atoms: C16_21  and  O3_22 
ROOT
HETATM    1  C6  UNL     1      24.969   4.574  49.205  1.00  0.00     0.233 C 
HETATM    2  N2  UNL     1      24.902   5.802  48.812  1.00  0.00    -0.242 NA
ENDROOT
BRANCH   1   3
HETATM    3  N1  UNL     1      25.920   3.945  50.054  1.00  0.00    -0.246 NA
HETATM    4  C5  UNL     1      25.667   2.960  50.812  1.00  0.00     0.042 A 
HETATM    5  C4  UNL     1      26.716   2.354  51.672  1.00  0.00     0.089 A 
HETATM    6  C15 UNL     1      24.299   2.442  50.810  1.00  0.00     0.067 A 
HETATM    7  C3  UNL     1      26.195   1.231  52.462  1.00  0.00     0.019 A 
HETATM    8  C2  UNL     1      24.948   0.748  52.469  1.00  0.00     0.098 A 
HETATM    9  C16 UNL     1      23.968   1.409  51.585  1.00  0.00     0.103 A 
BRANCH   8  10
HETATM   10  O1  UNL     1      24.442  -0.311  53.210  1.00  0.00    -0.353 OA
HETATM   11  C1  UNL     1      25.018  -0.629  54.450  1.00  0.00     0.210 C 
ENDBRANCH   8  10
BRANCH   9  12
HETATM   12  O3  UNL     1      22.636   0.974  51.521  1.00  0.00    -0.353 OA
HETATM   13  C17 UNL     1      21.965   1.146  50.309  1.00  0.00     0.210 C 
ENDBRANCH   9  12
ENDBRANCH   1   3
BRANCH   2  14
HETATM   14  C7  UNL     1      25.813   6.808  49.173  1.00  0.00     0.058 A 
HETATM   15  C8  UNL     1      25.689   7.798  50.125  1.00  0.00     0.034 A 
HETATM   16  C9  UNL     1      26.710   8.703  50.331  1.00  0.00     0.032 A 
HETATM   17  C10 UNL     1      27.867   8.622  49.585  1.00  0.00     0.034 A 
HETATM   18  C13 UNL     1      28.031   7.633  48.612  1.00  0.00     0.032 A 
HETATM   19  C14 UNL     1      26.979   6.732  48.425  1.00  0.00     0.034 A 
BRANCH  17  20
HETATM   20  N3  UNL     1      28.936   9.544  49.779  1.00  0.00    -0.328 N 
HETATM   21  C11 UNL     1      28.767  10.669  48.893  1.00  0.00     0.218 C 
HETATM   22  C12 UNL     1      29.700  11.821  48.829  1.00  0.00     0.117 C 
HETATM   23  O2  UNL     1      27.794  10.752  48.098  1.00  0.00    -0.274 OA
HETATM   24  H10 UNL     1      29.775   9.575  50.398  1.00  0.00     0.169 HD
ENDBRANCH  17  20
ENDBRANCH   2  14
TORSDOF 5
ENDMDL
