MODEL 1
REMARK VINA RESULT:      -8.1      0.000      0.000
REMARK  6 active torsions:
REMARK  status: ('A' for Active; 'I' for Inactive)
REMARK    1  A    between atoms: O1_2  and  C2_3 
REMARK    2  A    between atoms: C11_12  and  N1_13 
REMARK    3  A    between atoms: C11_12  and  N3_16 
REMARK    4  A    between atoms: N1_13  and  C12_14 
REMARK    5  A    between atoms: C12_14  and  N2_15 
REMARK    6  A    between atoms: N3_16  and  C13_17 
ROOT
HETATM    1  C2  UNL     1      25.764  -0.022  53.960  1.00  0.00     0.069 A 
HETATM    2  C3  UNL     1      24.669  -0.828  53.714  1.00  0.00     0.044 A 
HETATM    3  C4  UNL     1      23.479  -0.251  53.270  1.00  0.00    -0.051 A 
HETATM    4  C5  UNL     1      22.406  -1.270  53.057  1.00  0.00     0.049 C 
HETATM    5  C6  UNL     1      23.379   1.108  53.074  1.00  0.00    -0.028 A 
HETATM    6  C7  UNL     1      24.446   1.920  53.310  1.00  0.00    -0.041 A 
HETATM    7  C8  UNL     1      25.622   1.338  53.750  1.00  0.00     0.044 A 
HETATM    8  C9  UNL     1      24.376   3.371  53.111  1.00  0.00     0.100 C 
HETATM    9  C10 UNL     1      23.268   3.786  52.223  1.00  0.00     0.057 C 
HETATM   10  C11 UNL     1      23.275   4.803  51.370  1.00  0.00     0.162 C 
HETATM   11  N4  UNL     1      22.076   3.004  52.299  1.00  0.00    -0.386 N 
HETATM   12  C19 UNL     1      22.081   1.586  52.608  1.00  0.00     0.159 C 
HETATM   13  H17 UNL     1      21.113   3.422  52.133  1.00  0.00     0.159 HD
ENDROOT
BRANCH  10  14
HETATM   14  N1  UNL     1      22.150   5.142  50.536  1.00  0.00    -0.168 NA
BRANCH  14  15
HETATM   15  C12 UNL     1      21.715   6.340  50.735  1.00  0.00     0.095 C 
BRANCH  15  16
HETATM   16  N2  UNL     1      21.554   7.597  50.980  1.00  0.00    -0.241 NA
HETATM   17  H11 UNL     1      20.912   8.186  50.400  1.00  0.00     0.199 HD
ENDBRANCH  15  16
ENDBRANCH  14  15
ENDBRANCH  10  14
BRANCH  10  18
HETATM   18  N3  UNL     1      24.415   5.643  51.218  1.00  0.00    -0.339 N 
HETATM   19  H12 UNL     1      24.364   6.433  51.894  1.00  0.00     0.167 HD
BRANCH  18  20
HETATM   20  C13 UNL     1      25.464   5.435  50.281  1.00  0.00     0.035 A 
HETATM   21  C14 UNL     1      25.936   4.146  50.146  1.00  0.00     0.029 A 
HETATM   22  C15 UNL     1      26.965   4.013  49.213  1.00  0.00     0.004 A 
HETATM   23  C16 UNL     1      27.469   5.070  48.487  1.00  0.00     0.019 A 
HETATM   24  C17 UNL     1      26.932   6.347  48.687  1.00  0.00     0.013 A 
HETATM   25 BR1  UNL     1      27.586   7.851  47.715  1.00  0.00    -0.051 Br
HETATM   26  C18 UNL     1      25.898   6.555  49.607  1.00  0.00     0.048 A 
ENDBRANCH  18  20
ENDBRANCH  10  18
BRANCH   1  27
HETATM   27  O1  UNL     1      27.009  -0.464  54.405  1.00  0.00    -0.356 OA
HETATM   28  C1  UNL     1      28.101   0.388  54.662  1.00  0.00     0.210 C 
ENDBRANCH   1  27
TORSDOF 6
ENDMDL
MODEL 2
REMARK VINA RESULT:      -8.0      3.476      6.859
REMARK  6 active torsions:
REMARK  status: ('A' for Active; 'I' for Inactive)
REMARK    1  A    between atoms: O1_2  and  C2_3 
REMARK    2  A    between atoms: C11_12  and  N1_13 
REMARK    3  A    between atoms: C11_12  and  N3_16 
REMARK    4  A    between atoms: N1_13  and  C12_14 
REMARK    5  A    between atoms: C12_14  and  N2_15 
REMARK    6  A    between atoms: N3_16  and  C13_17 
ROOT
HETATM    1  C2  UNL     1      27.582   6.165  48.505  1.00  0.00     0.069 A 
HETATM    2  C3  UNL     1      26.821   7.232  48.944  1.00  0.00     0.044 A 
HETATM    3  C4  UNL     1      25.662   6.988  49.683  1.00  0.00    -0.051 A 
HETATM    4  C5  UNL     1      24.969   8.254  50.071  1.00  0.00     0.049 C 
HETATM    5  C6  UNL     1      25.267   5.704  49.979  1.00  0.00    -0.028 A 
HETATM    6  C7  UNL     1      26.002   4.639  49.557  1.00  0.00    -0.041 A 
HETATM    7  C8  UNL     1      27.150   4.891  48.825  1.00  0.00     0.044 A 
HETATM    8  C9  UNL     1      25.611   3.258  49.855  1.00  0.00     0.100 C 
HETATM    9  C10 UNL     1      24.677   3.149  50.996  1.00  0.00     0.057 C 
HETATM   10  C11 UNL     1      24.624   2.165  51.886  1.00  0.00     0.162 C 
HETATM   11  N4  UNL     1      23.742   4.218  51.146  1.00  0.00    -0.386 N 
HETATM   12  C19 UNL     1      24.038   5.585  50.758  1.00  0.00     0.159 C 
HETATM   13  H17 UNL     1      22.771   4.068  51.553  1.00  0.00     0.159 HD
ENDROOT
BRANCH  10  14
HETATM   14  N1  UNL     1      23.679   2.134  52.973  1.00  0.00    -0.168 NA
BRANCH  14  15
HETATM   15  C12 UNL     1      23.177   0.963  53.174  1.00  0.00     0.095 C 
BRANCH  15  16
HETATM   16  N2  UNL     1      22.818  -0.275  53.140  1.00  0.00    -0.241 NA
HETATM   17  H11 UNL     1      22.149  -0.667  53.843  1.00  0.00     0.199 HD
ENDBRANCH  15  16
ENDBRANCH  14  15
ENDBRANCH  10  14
BRANCH  10  18
HETATM   18  N3  UNL     1      25.512   1.055  51.825  1.00  0.00    -0.339 N 
HETATM   19  H12 UNL     1      25.102   0.306  51.229  1.00  0.00     0.167 HD
BRANCH  18  20
HETATM   20  C13 UNL     1      26.771   0.978  52.483  1.00  0.00     0.035 A 
HETATM   21  C14 UNL     1      27.304   2.159  52.954  1.00  0.00     0.029 A 
HETATM   22  C15 UNL     1      28.539   2.012  53.586  1.00  0.00     0.004 A 
HETATM   23  C16 UNL     1      29.176   0.799  53.731  1.00  0.00     0.019 A 
HETATM   24  C17 UNL     1      28.563  -0.352  53.222  1.00  0.00     0.013 A 
HETATM   25 BR1  UNL     1      29.392  -2.060  53.389  1.00  0.00    -0.051 Br
HETATM   26  C18 UNL     1      27.324  -0.281  52.575  1.00  0.00     0.048 A 
ENDBRANCH  18  20
ENDBRANCH  10  18
BRANCH   1  27
HETATM   27  O1  UNL     1      28.758   6.264  47.762  1.00  0.00    -0.356 OA
HETATM   28  C1  UNL     1      29.944   5.568  48.068  1.00  0.00     0.210 C 
ENDBRANCH   1  27
TORSDOF 6
ENDMDL
MODEL 3
REMARK VINA RESULT:      -7.7      3.625      7.247
REMARK  6 active torsions:
REMARK  status: ('A' for Active; 'I' for Inactive)
REMARK    1  A    between atoms: O1_2  and  C2_3 
REMARK    2  A    between atoms: C11_12  and  N1_13 
REMARK    3  A    between atoms: C11_12  and  N3_16 
REMARK    4  A    between atoms: N1_13  and  C12_14 
REMARK    5  A    between atoms: C12_14  and  N2_15 
REMARK    6  A    between atoms: N3_16  and  C13_17 
ROOT
HETATM    1  C2  UNL     1      28.962   6.590  47.829  1.00  0.00     0.069 A 
HETATM    2  C3  UNL     1      28.021   7.500  47.387  1.00  0.00     0.044 A 
HETATM    3  C4  UNL     1      26.669   7.267  47.645  1.00  0.00    -0.051 A 
HETATM    4  C5  UNL     1      25.798   8.350  47.095  1.00  0.00     0.049 C 
HETATM    5  C6  UNL     1      26.261   6.147  48.333  1.00  0.00    -0.028 A 
HETATM    6  C7  UNL     1      27.172   5.239  48.778  1.00  0.00    -0.041 A 
HETATM    7  C8  UNL     1      28.510   5.479  48.517  1.00  0.00     0.044 A 
HETATM    8  C9  UNL     1      26.774   4.035  49.514  1.00  0.00     0.100 C 
HETATM    9  C10 UNL     1      25.427   4.138  50.116  1.00  0.00     0.057 C 
HETATM   10  C11 UNL     1      25.029   3.607  51.266  1.00  0.00     0.162 C 
HETATM   11  N4  UNL     1      24.465   4.890  49.376  1.00  0.00    -0.386 N 
HETATM   12  C19 UNL     1      24.822   6.020  48.538  1.00  0.00     0.159 C 
HETATM   13  H17 UNL     1      23.427   4.660  49.399  1.00  0.00     0.159 HD
ENDROOT
BRANCH  10  14
HETATM   14  N1  UNL     1      23.693   3.755  51.785  1.00  0.00    -0.168 NA
BRANCH  14  15
HETATM   15  C12 UNL     1      23.620   4.595  52.761  1.00  0.00     0.095 C 
BRANCH  15  16
HETATM   16  N2  UNL     1      23.827   5.453  53.701  1.00  0.00    -0.241 NA
HETATM   17  H11 UNL     1      24.264   5.169  54.609  1.00  0.00     0.199 HD
ENDBRANCH  15  16
ENDBRANCH  14  15
ENDBRANCH  10  14
BRANCH  10  18
HETATM   18  N3  UNL     1      25.912   2.841  52.079  1.00  0.00    -0.339 N 
HETATM   19  H12 UNL     1      26.693   3.441  52.415  1.00  0.00     0.167 HD
BRANCH  18  20
HETATM   20  C13 UNL     1      25.751   1.461  52.385  1.00  0.00     0.035 A 
HETATM   21  C14 UNL     1      26.760   0.610  51.985  1.00  0.00     0.029 A 
HETATM   22  C15 UNL     1      26.538  -0.727  52.315  1.00  0.00     0.004 A 
HETATM   23  C16 UNL     1      25.416  -1.166  52.982  1.00  0.00     0.019 A 
HETATM   24  C17 UNL     1      24.439  -0.234  53.351  1.00  0.00     0.013 A 
HETATM   25 BR1  UNL     1      22.862  -0.777  54.275  1.00  0.00    -0.051 Br
HETATM   26  C18 UNL     1      24.594   1.125  53.053  1.00  0.00     0.048 A 
ENDBRANCH  18  20
ENDBRANCH  10  18
BRANCH   1  27
HETATM   27  O1  UNL     1      30.339   6.698  47.641  1.00  0.00    -0.356 OA
HETATM   28  C1  UNL     1      31.287   5.862  48.264  1.00  0.00     0.210 C 
ENDBRANCH   1  27
TORSDOF 6
ENDMDL
MODEL 4
REMARK VINA RESULT:      -7.6      1.703      2.296
REMARK  6 active torsions:
REMARK  status: ('A' for Active; 'I' for Inactive)
REMARK    1  A    between atoms: O1_2  and  C2_3 
REMARK    2  A    between atoms: C11_12  and  N1_13 
REMARK    3  A    between atoms: C11_12  and  N3_16 
REMARK    4  A    between atoms: N1_13  and  C12_14 
REMARK    5  A    between atoms: C12_14  and  N2_15 
REMARK    6  A    between atoms: N3_16  and  C13_17 
ROOT
HETATM    1  C2  UNL     1      26.232  -0.162  54.276  1.00  0.00     0.069 A 
HETATM    2  C3  UNL     1      25.018  -0.780  54.507  1.00  0.00     0.044 A 
HETATM    3  C4  UNL     1      23.859  -0.249  53.939  1.00  0.00    -0.051 A 
HETATM    4  C5  UNL     1      22.645  -1.044  54.295  1.00  0.00     0.049 C 
HETATM    5  C6  UNL     1      23.908   0.880  53.153  1.00  0.00    -0.028 A 
HETATM    6  C7  UNL     1      25.094   1.504  52.912  1.00  0.00    -0.041 A 
HETATM    7  C8  UNL     1      26.237   0.969  53.480  1.00  0.00     0.044 A 
HETATM    8  C9  UNL     1      25.183   2.706  52.079  1.00  0.00     0.100 C 
HETATM    9  C10 UNL     1      24.019   2.885  51.184  1.00  0.00     0.057 C 
HETATM   10  C11 UNL     1      24.029   3.406  49.962  1.00  0.00     0.162 C 
HETATM   11  N4  UNL     1      22.760   2.447  51.697  1.00  0.00    -0.386 N 
HETATM   12  C19 UNL     1      22.628   1.333  52.617  1.00  0.00     0.159 C 
HETATM   13  H17 UNL     1      21.845   2.918  51.430  1.00  0.00     0.159 HD
ENDROOT
BRANCH  10  14
HETATM   14  N1  UNL     1      22.846   3.544  49.152  1.00  0.00    -0.168 NA
BRANCH  14  15
HETATM   15  C12 UNL     1      22.698   2.583  48.304  1.00  0.00     0.095 C 
BRANCH  15  16
HETATM   16  N2  UNL     1      22.695   1.795  47.284  1.00  0.00    -0.241 NA
HETATM   17  H11 UNL     1      21.903   1.796  46.598  1.00  0.00     0.199 HD
ENDBRANCH  15  16
ENDBRANCH  14  15
ENDBRANCH  10  14
BRANCH  10  18
HETATM   18  N3  UNL     1      25.233   3.870  49.360  1.00  0.00    -0.339 N 
HETATM   19  H12 UNL     1      25.704   3.087  48.861  1.00  0.00     0.167 HD
BRANCH  18  20
HETATM   20  C13 UNL     1      25.719   5.205  49.429  1.00  0.00     0.035 A 
HETATM   21  C14 UNL     1      25.055   6.070  50.273  1.00  0.00     0.029 A 
HETATM   22  C15 UNL     1      25.582   7.361  50.293  1.00  0.00     0.004 A 
HETATM   23  C16 UNL     1      26.670   7.746  49.540  1.00  0.00     0.019 A 
HETATM   24  C17 UNL     1      27.286   6.803  48.709  1.00  0.00     0.013 A 
HETATM   25 BR1  UNL     1      28.794   7.271  47.641  1.00  0.00    -0.051 Br
HETATM   26  C18 UNL     1      26.811   5.488  48.638  1.00  0.00     0.048 A 
ENDBRANCH  18  20
ENDBRANCH  10  18
BRANCH   1  27
HETATM   27  O1  UNL     1      27.462  -0.583  54.780  1.00  0.00    -0.356 OA
HETATM   28  C1  UNL     1      28.670   0.118  54.596  1.00  0.00     0.210 C 
ENDBRANCH   1  27
TORSDOF 6
ENDMDL
MODEL 5
REMARK VINA RESULT:      -7.5      3.389      5.723
REMARK  6 active torsions:
REMARK  status: ('A' for Active; 'I' for Inactive)
REMARK    1  A    between atoms: O1_2  and  C2_3 
REMARK    2  A    between atoms: C11_12  and  N1_13 
REMARK    3  A    between atoms: C11_12  and  N3_16 
REMARK    4  A    between atoms: N1_13  and  C12_14 
REMARK    5  A    between atoms: C12_14  and  N2_15 
REMARK    6  A    between atoms: N3_16  and  C13_17 
ROOT
HETATM    1  C2  UNL     1      26.418   2.154  51.426  1.00  0.00     0.069 A 
HETATM    2  C3  UNL     1      27.074   1.005  51.823  1.00  0.00     0.044 A 
HETATM    3  C4  UNL     1      26.403   0.071  52.614  1.00  0.00    -0.051 A 
HETATM    4  C5  UNL     1      27.264  -1.104  52.947  1.00  0.00     0.049 C 
HETATM    5  C6  UNL     1      25.099   0.278  53.003  1.00  0.00    -0.028 A 
HETATM    6  C7  UNL     1      24.434   1.403  52.622  1.00  0.00    -0.041 A 
HETATM    7  C8  UNL     1      25.108   2.323  51.838  1.00  0.00     0.044 A 
HETATM    8  C9  UNL     1      23.045   1.655  53.018  1.00  0.00     0.100 C 
HETATM    9  C10 UNL     1      22.323   0.431  53.428  1.00  0.00     0.057 C 
HETATM   10  C11 UNL     1      21.037   0.167  53.236  1.00  0.00     0.162 C 
HETATM   11  N4  UNL     1      23.101  -0.561  54.099  1.00  0.00    -0.386 N 
HETATM   12  C19 UNL     1      24.511  -0.774  53.827  1.00  0.00     0.159 C 
HETATM   13  H17 UNL     1      22.687  -1.202  54.839  1.00  0.00     0.159 HD
ENDROOT
BRANCH  10  14
HETATM   14  N1  UNL     1      20.408  -1.055  53.669  1.00  0.00    -0.168 NA
BRANCH  14  15
HETATM   15  C12 UNL     1      19.123  -1.032  53.551  1.00  0.00     0.095 C 
BRANCH  15  16
HETATM   16  N2  UNL     1      17.844  -1.053  53.713  1.00  0.00    -0.241 NA
HETATM   17  H11 UNL     1      17.399  -1.647  54.452  1.00  0.00     0.199 HD
ENDBRANCH  15  16
ENDBRANCH  14  15
ENDBRANCH  10  14
BRANCH  10  18
HETATM   18  N3  UNL     1      20.175   1.090  52.578  1.00  0.00    -0.339 N 
HETATM   19  H12 UNL     1      19.392   1.355  53.210  1.00  0.00     0.167 HD
BRANCH  18  20
HETATM   20  C13 UNL     1      20.357   1.575  51.253  1.00  0.00     0.035 A 
HETATM   21  C14 UNL     1      20.776   0.666  50.305  1.00  0.00     0.029 A 
HETATM   22  C15 UNL     1      20.935   1.207  49.030  1.00  0.00     0.004 A 
HETATM   23  C16 UNL     1      20.696   2.532  48.735  1.00  0.00     0.019 A 
HETATM   24  C17 UNL     1      20.272   3.388  49.758  1.00  0.00     0.013 A 
HETATM   25 BR1  UNL     1      19.925   5.231  49.417  1.00  0.00    -0.051 Br
HETATM   26  C18 UNL     1      20.092   2.914  51.063  1.00  0.00     0.048 A 
ENDBRANCH  18  20
ENDBRANCH  10  18
BRANCH   1  27
HETATM   27  O1  UNL     1      26.966   3.166  50.639  1.00  0.00    -0.356 OA
HETATM   28  C1  UNL     1      26.330   3.718  49.510  1.00  0.00     0.210 C 
ENDBRANCH   1  27
TORSDOF 6
ENDMDL
MODEL 6
REMARK VINA RESULT:      -7.4      4.026      7.844
REMARK  6 active torsions:
REMARK  status: ('A' for Active; 'I' for Inactive)
REMARK    1  A    between atoms: O1_2  and  C2_3 
REMARK    2  A    between atoms: C11_12  and  N1_13 
REMARK    3  A    between atoms: C11_12  and  N3_16 
REMARK    4  A    between atoms: N1_13  and  C12_14 
REMARK    5  A    between atoms: C12_14  and  N2_15 
REMARK    6  A    between atoms: N3_16  and  C13_17 
ROOT
HETATM    1  C2  UNL     1      31.546   5.838  47.780  1.00  0.00     0.069 A 
HETATM    2  C3  UNL     1      31.492   7.159  47.379  1.00  0.00     0.044 A 
HETATM    3  C4  UNL     1      30.257   7.804  47.310  1.00  0.00    -0.051 A 
HETATM    4  C5  UNL     1      30.390   9.222  46.858  1.00  0.00     0.049 C 
HETATM    5  C6  UNL     1      29.093   7.146  47.636  1.00  0.00    -0.028 A 
HETATM    6  C7  UNL     1      29.124   5.845  48.035  1.00  0.00    -0.041 A 
HETATM    7  C8  UNL     1      30.353   5.213  48.100  1.00  0.00     0.044 A 
HETATM    8  C9  UNL     1      27.904   5.113  48.390  1.00  0.00     0.100 C 
HETATM    9  C10 UNL     1      26.768   5.999  48.726  1.00  0.00     0.057 C 
HETATM   10  C11 UNL     1      25.821   5.767  49.627  1.00  0.00     0.162 C 
HETATM   11  N4  UNL     1      26.694   7.226  48.001  1.00  0.00    -0.386 N 
HETATM   12  C19 UNL     1      27.869   7.933  47.524  1.00  0.00     0.159 C 
HETATM   13  H17 UNL     1      25.767   7.692  47.768  1.00  0.00     0.159 HD
ENDROOT
BRANCH  10  14
HETATM   14  N1  UNL     1      24.744   6.685  49.895  1.00  0.00    -0.168 NA
BRANCH  14  15
HETATM   15  C12 UNL     1      24.509   6.835  51.155  1.00  0.00     0.095 C 
BRANCH  15  16
HETATM   16  N2  UNL     1      24.384   6.724  52.433  1.00  0.00    -0.241 NA
HETATM   17  H11 UNL     1      24.343   7.569  53.051  1.00  0.00     0.199 HD
ENDBRANCH  15  16
ENDBRANCH  14  15
ENDBRANCH  10  14
BRANCH  10  18
HETATM   18  N3  UNL     1      25.805   4.573  50.403  1.00  0.00    -0.339 N 
HETATM   19  H12 UNL     1      26.658   4.528  50.999  1.00  0.00     0.167 HD
BRANCH  18  20
HETATM   20  C13 UNL     1      24.779   3.589  50.369  1.00  0.00     0.035 A 
HETATM   21  C14 UNL     1      24.014   3.522  49.224  1.00  0.00     0.029 A 
HETATM   22  C15 UNL     1      23.026   2.538  49.258  1.00  0.00     0.004 A 
HETATM   23  C16 UNL     1      22.827   1.703  50.335  1.00  0.00     0.019 A 
HETATM   24  C17 UNL     1      23.649   1.839  51.459  1.00  0.00     0.013 A 
HETATM   25 BR1  UNL     1      23.424   0.716  52.983  1.00  0.00    -0.051 Br
HETATM   26  C18 UNL     1      24.661   2.806  51.496  1.00  0.00     0.048 A 
ENDBRANCH  18  20
ENDBRANCH  10  18
BRANCH   1  27
HETATM   27  O1  UNL     1      32.707   5.074  47.893  1.00  0.00    -0.356 OA
HETATM   28  C1  UNL     1      33.938   5.577  48.356  1.00  0.00     0.210 C 
ENDBRANCH   1  27
TORSDOF 6
ENDMDL
MODEL 7
REMARK VINA RESULT:      -7.4      3.499      7.402
REMARK  6 active torsions:
REMARK  status: ('A' for Active; 'I' for Inactive)
REMARK    1  A    between atoms: O1_2  and  C2_3 
REMARK    2  A    between atoms: C11_12  and  N1_13 
REMARK    3  A    between atoms: C11_12  and  N3_16 
REMARK    4  A    between atoms: N1_13  and  C12_14 
REMARK    5  A    between atoms: C12_14  and  N2_15 
REMARK    6  A    between atoms: N3_16  and  C13_17 
ROOT
HETATM    1  C2  UNL     1      30.352   6.154  47.725  1.00  0.00     0.069 A 
HETATM    2  C3  UNL     1      29.935   7.393  47.277  1.00  0.00     0.044 A 
HETATM    3  C4  UNL     1      28.582   7.730  47.352  1.00  0.00    -0.051 A 
HETATM    4  C5  UNL     1      28.316   9.102  46.824  1.00  0.00     0.049 C 
HETATM    5  C6  UNL     1      27.659   6.847  47.864  1.00  0.00    -0.028 A 
HETATM    6  C7  UNL     1      28.049   5.621  48.311  1.00  0.00    -0.041 A 
HETATM    7  C8  UNL     1      29.392   5.297  48.233  1.00  0.00     0.044 A 
HETATM    8  C9  UNL     1      27.093   4.657  48.864  1.00  0.00     0.100 C 
HETATM    9  C10 UNL     1      25.829   5.279  49.315  1.00  0.00     0.057 C 
HETATM   10  C11 UNL     1      25.084   4.904  50.347  1.00  0.00     0.162 C 
HETATM   11  N4  UNL     1      25.375   6.398  48.553  1.00  0.00    -0.386 N 
HETATM   12  C19 UNL     1      26.278   7.319  47.888  1.00  0.00     0.159 C 
HETATM   13  H17 UNL     1      24.342   6.619  48.431  1.00  0.00     0.159 HD
ENDROOT
BRANCH  10  14
HETATM   14  N1  UNL     1      23.861   5.566  50.721  1.00  0.00    -0.168 NA
BRANCH  14  15
HETATM   15  C12 UNL     1      24.053   6.745  51.210  1.00  0.00     0.095 C 
BRANCH  15  16
HETATM   16  N2  UNL     1      24.251   8.001  51.426  1.00  0.00    -0.241 NA
HETATM   17  H11 UNL     1      25.173   8.355  51.772  1.00  0.00     0.199 HD
ENDBRANCH  15  16
ENDBRANCH  14  15
ENDBRANCH  10  14
BRANCH  10  18
HETATM   18  N3  UNL     1      25.450   3.801  51.170  1.00  0.00    -0.339 N 
HETATM   19  H12 UNL     1      26.453   3.879  51.439  1.00  0.00     0.167 HD
BRANCH  18  20
HETATM   20  C13 UNL     1      24.577   2.749  51.564  1.00  0.00     0.035 A 
HETATM   21  C14 UNL     1      24.801   2.180  52.800  1.00  0.00     0.029 A 
HETATM   22  C15 UNL     1      23.911   1.155  53.122  1.00  0.00     0.004 A 
HETATM   23  C16 UNL     1      22.896   0.743  52.286  1.00  0.00     0.019 A 
HETATM   24  C17 UNL     1      22.740   1.376  51.047  1.00  0.00     0.013 A 
HETATM   25 BR1  UNL     1      21.357   0.853  49.844  1.00  0.00    -0.051 Br
HETATM   26  C18 UNL     1      23.596   2.412  50.657  1.00  0.00     0.048 A 
ENDBRANCH  18  20
ENDBRANCH  10  18
BRANCH   1  27
HETATM   27  O1  UNL     1      31.666   5.690  47.709  1.00  0.00    -0.356 OA
HETATM   28  C1  UNL     1      32.024   4.346  47.487  1.00  0.00     0.210 C 
ENDBRANCH   1  27
TORSDOF 6
ENDMDL
MODEL 8
REMARK VINA RESULT:      -7.3      2.791      3.903
REMARK  6 active torsions:
REMARK  status: ('A' for Active; 'I' for Inactive)
REMARK    1  A    between atoms: O1_2  and  C2_3 
REMARK    2  A    between atoms: C11_12  and  N1_13 
REMARK    3  A    between atoms: C11_12  and  N3_16 
REMARK    4  A    between atoms: N1_13  and  C12_14 
REMARK    5  A    between atoms: C12_14  and  N2_15 
REMARK    6  A    between atoms: N3_16  and  C13_17 
ROOT
HETATM    1  C2  UNL     1      23.699  -0.463  53.693  1.00  0.00     0.069 A 
HETATM    2  C3  UNL     1      24.933  -0.353  54.304  1.00  0.00     0.044 A 
HETATM    3  C4  UNL     1      25.867   0.555  53.802  1.00  0.00    -0.051 A 
HETATM    4  C5  UNL     1      27.141   0.538  54.583  1.00  0.00     0.049 C 
HETATM    5  C6  UNL     1      25.576   1.341  52.711  1.00  0.00    -0.028 A 
HETATM    6  C7  UNL     1      24.366   1.249  52.095  1.00  0.00    -0.041 A 
HETATM    7  C8  UNL     1      23.447   0.346  52.600  1.00  0.00     0.044 A 
HETATM    8  C9  UNL     1      24.022   2.071  50.931  1.00  0.00     0.100 C 
HETATM    9  C10 UNL     1      24.868   3.277  50.797  1.00  0.00     0.057 C 
HETATM   10  C11 UNL     1      24.492   4.462  50.332  1.00  0.00     0.162 C 
HETATM   11  N4  UNL     1      26.227   3.139  51.214  1.00  0.00    -0.386 N 
HETATM   12  C19 UNL     1      26.637   2.250  52.286  1.00  0.00     0.159 C 
HETATM   13  H17 UNL     1      27.018   3.684  50.758  1.00  0.00     0.159 HD
ENDROOT
BRANCH  10  14
HETATM   14  N1  UNL     1      25.382   5.590  50.234  1.00  0.00    -0.168 NA
BRANCH  14  15
HETATM   15  C12 UNL     1      24.918   6.652  50.800  1.00  0.00     0.095 C 
BRANCH  15  16
HETATM   16  N2  UNL     1      24.213   7.563  51.381  1.00  0.00    -0.241 NA
HETATM   17  H11 UNL     1      23.167   7.551  51.339  1.00  0.00     0.199 HD
ENDBRANCH  15  16
ENDBRANCH  14  15
ENDBRANCH  10  14
BRANCH  10  18
HETATM   18  N3  UNL     1      23.160   4.703  49.891  1.00  0.00    -0.339 N 
HETATM   19  H12 UNL     1      22.559   4.951  50.704  1.00  0.00     0.167 HD
BRANCH  18  20
HETATM   20  C13 UNL     1      22.716   4.615  48.543  1.00  0.00     0.035 A 
HETATM   21  C14 UNL     1      22.293   3.378  48.102  1.00  0.00     0.029 A 
HETATM   22  C15 UNL     1      21.873   3.363  46.772  1.00  0.00     0.004 A 
HETATM   23  C16 UNL     1      21.877   4.478  45.964  1.00  0.00     0.019 A 
HETATM   24  C17 UNL     1      22.323   5.696  46.492  1.00  0.00     0.013 A 
HETATM   25 BR1  UNL     1      22.354   7.276  45.427  1.00  0.00    -0.051 Br
HETATM   26  C18 UNL     1      22.760   5.786  47.819  1.00  0.00     0.048 A 
ENDBRANCH  18  20
ENDBRANCH  10  18
BRANCH   1  27
HETATM   27  O1  UNL     1      22.677  -1.326  54.088  1.00  0.00    -0.356 OA
HETATM   28  C1  UNL     1      21.308  -0.995  54.049  1.00  0.00     0.210 C 
ENDBRANCH   1  27
TORSDOF 6
ENDMDL
MODEL 9
REMARK VINA RESULT:      -7.2      2.945      4.828
REMARK  6 active torsions:
REMARK  status: ('A' for Active; 'I' for Inactive)
REMARK    1  A    between atoms: O1_2  and  C2_3 
REMARK    2  A    between atoms: C11_12  and  N1_13 
REMARK    3  A    between atoms: C11_12  and  N3_16 
REMARK    4  A    between atoms: N1_13  and  C12_14 
REMARK    5  A    between atoms: C12_14  and  N2_15 
REMARK    6  A    between atoms: N3_16  and  C13_17 
ROOT
HETATM    1  C2  UNL     1      19.715  -0.194  52.675  1.00  0.00     0.069 A 
HETATM    2  C3  UNL     1      20.395  -0.692  53.769  1.00  0.00     0.044 A 
HETATM    3  C4  UNL     1      21.781  -0.544  53.840  1.00  0.00    -0.051 A 
HETATM    4  C5  UNL     1      22.345  -1.142  55.089  1.00  0.00     0.049 C 
HETATM    5  C6  UNL     1      22.479   0.089  52.838  1.00  0.00    -0.028 A 
HETATM    6  C7  UNL     1      21.829   0.588  51.751  1.00  0.00    -0.041 A 
HETATM    7  C8  UNL     1      20.454   0.436  51.690  1.00  0.00     0.044 A 
HETATM    8  C9  UNL     1      22.540   1.268  50.665  1.00  0.00     0.100 C 
HETATM    9  C10 UNL     1      23.875   1.765  51.063  1.00  0.00     0.057 C 
HETATM   10  C11 UNL     1      24.471   2.870  50.631  1.00  0.00     0.162 C 
HETATM   11  N4  UNL     1      24.586   0.966  52.008  1.00  0.00    -0.386 N 
HETATM   12  C19 UNL     1      23.923   0.179  53.032  1.00  0.00     0.159 C 
HETATM   13  H17 UNL     1      25.647   0.902  52.013  1.00  0.00     0.159 HD
ENDROOT
BRANCH  10  14
HETATM   14  N1  UNL     1      25.779   3.285  51.070  1.00  0.00    -0.168 NA
BRANCH  14  15
HETATM   15  C12 UNL     1      26.542   3.661  50.101  1.00  0.00     0.095 C 
BRANCH  15  16
HETATM   16  N2  UNL     1      27.299   4.288  49.265  1.00  0.00    -0.241 NA
HETATM   17  H11 UNL     1      27.799   5.167  49.537  1.00  0.00     0.199 HD
ENDBRANCH  15  16
ENDBRANCH  14  15
ENDBRANCH  10  14
BRANCH  10  18
HETATM   18  N3  UNL     1      23.847   3.736  49.689  1.00  0.00    -0.339 N 
HETATM   19  H12 UNL     1      23.898   3.317  48.737  1.00  0.00     0.167 HD
BRANCH  18  20
HETATM   20  C13 UNL     1      23.246   4.987  50.001  1.00  0.00     0.035 A 
HETATM   21  C14 UNL     1      22.221   4.976  50.925  1.00  0.00     0.029 A 
HETATM   22  C15 UNL     1      21.677   6.234  51.183  1.00  0.00     0.004 A 
HETATM   23  C16 UNL     1      22.118   7.389  50.575  1.00  0.00     0.019 A 
HETATM   24  C17 UNL     1      23.164   7.310  49.648  1.00  0.00     0.013 A 
HETATM   25 BR1  UNL     1      23.819   8.870  48.771  1.00  0.00    -0.051 Br
HETATM   26  C18 UNL     1      23.758   6.081  49.339  1.00  0.00     0.048 A 
ENDBRANCH  18  20
ENDBRANCH  10  18
BRANCH   1  27
HETATM   27  O1  UNL     1      18.337  -0.272  52.476  1.00  0.00    -0.356 OA
HETATM   28  C1  UNL     1      17.714  -0.138  51.219  1.00  0.00     0.210 C 
ENDBRANCH   1  27
TORSDOF 6
ENDMDL
