MODEL 1
REMARK VINA RESULT:      -9.1      0.000      0.000
REMARK  5 active torsions:
REMARK  status: ('A' for Active; 'I' for Inactive)
REMARK    1  A    between atoms: C2_2  and  O1_3 
REMARK    2  A    between atoms: C2_2  and  C16_20 
REMARK    3  A    between atoms: O1_3  and  C3_4 
REMARK    4  A    between atoms: C4_5  and  C5_6 
REMARK    5  A    between atoms: C7_8  and  C8_9 
REMARK       I    between atoms: C8_9  and  N1_10 
ROOT
HETATM    1  C3  UNL     1      24.090   1.476  52.671  1.00  0.00     0.090 A 
HETATM    2  C4  UNL     1      25.285   0.735  52.724  1.00  0.00    -0.001 A 
HETATM    3  C9  UNL     1      25.308  -0.559  53.169  1.00  0.00     0.127 A 
HETATM    4  N2  UNL     1      24.181  -1.190  53.583  1.00  0.00    -0.260 NA
HETATM    5  C10 UNL     1      23.002  -0.536  53.560  1.00  0.00     0.069 A 
HETATM    6  C11 UNL     1      21.846  -1.179  53.991  1.00  0.00     0.032 A 
HETATM    7  C12 UNL     1      20.641  -0.553  53.991  1.00  0.00     0.002 A 
HETATM    8  C13 UNL     1      20.603   0.763  53.540  1.00  0.00     0.001 A 
HETATM    9  C14 UNL     1      21.766   1.356  53.125  1.00  0.00     0.017 A 
HETATM   10  C15 UNL     1      23.005   0.759  53.109  1.00  0.00     0.027 A 
ENDROOT
BRANCH   1  11
HETATM   11  O1  UNL     1      24.052   2.787  52.222  1.00  0.00    -0.340 OA
BRANCH  11  12
HETATM   12  C2  UNL     1      24.298   3.036  50.879  1.00  0.00     0.161 C 
HETATM   13  C1  UNL     1      23.141   2.622  49.957  1.00  0.00     0.045 C 
BRANCH  12  14
HETATM   14  C16 UNL     1      24.642   4.456  50.585  1.00  0.00     0.017 A 
HETATM   15  C17 UNL     1      25.782   4.759  49.848  1.00  0.00     0.044 A 
HETATM   16 CL1  UNL     1      26.803   3.442  49.273  1.00  0.00    -0.084 Cl
HETATM   17  C18 UNL     1      26.081   6.100  49.586  1.00  0.00     0.028 A 
HETATM   18  C19 UNL     1      25.249   7.104  50.058  1.00  0.00     0.046 A 
HETATM   19  C20 UNL     1      24.123   6.780  50.788  1.00  0.00     0.138 A 
HETATM   20  F1  UNL     1      23.393   7.865  51.192  1.00  0.00    -0.204 F 
HETATM   21  C21 UNL     1      23.811   5.467  51.057  1.00  0.00     0.083 A 
HETATM   22 CL2  UNL     1      22.371   5.147  51.985  1.00  0.00    -0.080 Cl
ENDBRANCH  12  14
ENDBRANCH  11  12
ENDBRANCH   1  11
BRANCH   2  23
HETATM   23  C5  UNL     1      26.554   1.296  52.294  1.00  0.00     0.036 A 
HETATM   24  C6  UNL     1      27.181   2.312  53.261  1.00  0.00     0.024 A 
HETATM   25  C7  UNL     1      27.862   1.018  52.872  1.00  0.00     0.081 A 
BRANCH  25  26
HETATM   26  C8  UNL     1      28.176   0.122  53.990  1.00  0.00     0.199 C 
HETATM   27  N1  UNL     1      28.808  -1.158  53.771  1.00  0.00    -0.272 NA
HETATM   28  H9  UNL     1      29.694  -1.700  53.565  1.00  0.00     0.127 HD
HETATM   29  H10 UNL     1      29.698  -1.693  53.565  1.00  0.00     0.127 HD
HETATM   30  O2  UNL     1      28.264  -0.314  55.182  1.00  0.00    -0.280 OA
ENDBRANCH  25  26
ENDBRANCH   2  23
TORSDOF 5
ENDMDL
MODEL 2
REMARK VINA RESULT:      -9.1      1.902      2.668
REMARK  5 active torsions:
REMARK  status: ('A' for Active; 'I' for Inactive)
REMARK    1  A    between atoms: C2_2  and  O1_3 
REMARK    2  A    between atoms: C2_2  and  C16_20 
REMARK    3  A    between atoms: O1_3  and  C3_4 
REMARK    4  A    between atoms: C4_5  and  C5_6 
REMARK    5  A    between atoms: C7_8  and  C8_9 
REMARK       I    between atoms: C8_9  and  N1_10 
ROOT
HETATM    1  C3  UNL     1      23.892   0.575  52.902  1.00  0.00     0.090 A 
HETATM    2  C4  UNL     1      24.870   0.037  53.757  1.00  0.00    -0.001 A 
HETATM    3  C9  UNL     1      24.551  -0.863  54.738  1.00  0.00     0.127 A 
HETATM    4  N2  UNL     1      23.276  -1.279  54.934  1.00  0.00    -0.260 NA
HETATM    5  C10 UNL     1      22.289  -0.802  54.149  1.00  0.00     0.069 A 
HETATM    6  C11 UNL     1      20.979  -1.223  54.354  1.00  0.00     0.032 A 
HETATM    7  C12 UNL     1      19.955  -0.760  53.591  1.00  0.00     0.002 A 
HETATM    8  C13 UNL     1      20.265   0.156  52.590  1.00  0.00     0.001 A 
HETATM    9  C14 UNL     1      21.569   0.541  52.425  1.00  0.00     0.017 A 
HETATM   10  C15 UNL     1      22.634   0.097  53.174  1.00  0.00     0.027 A 
ENDROOT
BRANCH   1  11
HETATM   11  O1  UNL     1      24.201   1.487  51.904  1.00  0.00    -0.340 OA
BRANCH  11  12
HETATM   12  C2  UNL     1      23.826   2.812  52.078  1.00  0.00     0.161 C 
HETATM   13  C1  UNL     1      24.369   3.438  53.371  1.00  0.00     0.045 C 
BRANCH  12  14
HETATM   14  C16 UNL     1      24.205   3.696  50.938  1.00  0.00     0.017 A 
HETATM   15  C17 UNL     1      23.280   4.592  50.414  1.00  0.00     0.044 A 
HETATM   16 CL1  UNL     1      21.664   4.661  51.115  1.00  0.00    -0.084 Cl
HETATM   17  C18 UNL     1      23.662   5.410  49.345  1.00  0.00     0.028 A 
HETATM   18  C19 UNL     1      24.944   5.322  48.825  1.00  0.00     0.046 A 
HETATM   19  C20 UNL     1      25.846   4.425  49.362  1.00  0.00     0.138 A 
HETATM   20  F1  UNL     1      27.072   4.442  48.755  1.00  0.00    -0.204 F 
HETATM   21  C21 UNL     1      25.491   3.611  50.413  1.00  0.00     0.083 A 
HETATM   22 CL2  UNL     1      26.691   2.509  51.029  1.00  0.00    -0.080 Cl
ENDBRANCH  12  14
ENDBRANCH  11  12
ENDBRANCH   1  11
BRANCH   2  23
HETATM   23  C5  UNL     1      26.274   0.395  53.638  1.00  0.00     0.036 A 
HETATM   24  C6  UNL     1      27.215  -0.304  54.632  1.00  0.00     0.024 A 
HETATM   25  C7  UNL     1      27.343  -0.455  53.131  1.00  0.00     0.081 A 
BRANCH  25  26
HETATM   26  C8  UNL     1      27.236  -1.830  52.634  1.00  0.00     0.199 C 
HETATM   27  N1  UNL     1      28.130  -2.867  53.094  1.00  0.00    -0.272 NA
HETATM   28  H9  UNL     1      28.395  -3.552  53.857  1.00  0.00     0.127 HD
HETATM   29  H10 UNL     1      28.388  -3.549  53.862  1.00  0.00     0.127 HD
HETATM   30  O2  UNL     1      26.810  -2.831  51.974  1.00  0.00    -0.280 OA
ENDBRANCH  25  26
ENDBRANCH   2  23
TORSDOF 5
ENDMDL
MODEL 3
REMARK VINA RESULT:      -9.0      1.551      4.159
REMARK  5 active torsions:
REMARK  status: ('A' for Active; 'I' for Inactive)
REMARK    1  A    between atoms: C2_2  and  O1_3 
REMARK    2  A    between atoms: C2_2  and  C16_20 
REMARK    3  A    between atoms: O1_3  and  C3_4 
REMARK    4  A    between atoms: C4_5  and  C5_6 
REMARK    5  A    between atoms: C7_8  and  C8_9 
REMARK       I    between atoms: C8_9  and  N1_10 
ROOT
HETATM    1  C3  UNL     1      25.041   1.742  52.969  1.00  0.00     0.090 A 
HETATM    2  C4  UNL     1      24.134   0.708  53.266  1.00  0.00    -0.001 A 
HETATM    3  C9  UNL     1      24.549  -0.482  53.798  1.00  0.00     0.127 A 
HETATM    4  N2  UNL     1      25.857  -0.724  54.065  1.00  0.00    -0.260 NA
HETATM    5  C10 UNL     1      26.779   0.223  53.803  1.00  0.00     0.069 A 
HETATM    6  C11 UNL     1      28.122  -0.026  54.070  1.00  0.00     0.032 A 
HETATM    7  C12 UNL     1      29.083   0.899  53.813  1.00  0.00     0.002 A 
HETATM    8  C13 UNL     1      28.674   2.114  53.271  1.00  0.00     0.001 A 
HETATM    9  C14 UNL     1      27.341   2.316  53.026  1.00  0.00     0.017 A 
HETATM   10  C15 UNL     1      26.338   1.407  53.271  1.00  0.00     0.027 A 
ENDROOT
BRANCH   1  11
HETATM   11  O1  UNL     1      24.634   2.952  52.430  1.00  0.00    -0.340 OA
BRANCH  11  12
HETATM   12  C2  UNL     1      24.721   3.130  51.056  1.00  0.00     0.161 C 
HETATM   13  C1  UNL     1      23.531   2.539  50.285  1.00  0.00     0.045 C 
BRANCH  12  14
HETATM   14  C16 UNL     1      24.881   4.554  50.644  1.00  0.00     0.017 A 
HETATM   15  C17 UNL     1      25.906   4.917  49.776  1.00  0.00     0.044 A 
HETATM   16 CL1  UNL     1      27.001   3.672  49.179  1.00  0.00    -0.084 Cl
HETATM   17  C18 UNL     1      26.033   6.259  49.405  1.00  0.00     0.028 A 
HETATM   18  C19 UNL     1      25.148   7.205  49.900  1.00  0.00     0.046 A 
HETATM   19  C20 UNL     1      24.139   6.822  50.761  1.00  0.00     0.138 A 
HETATM   20  F1  UNL     1      23.339   7.853  51.171  1.00  0.00    -0.204 F 
HETATM   21  C21 UNL     1      23.996   5.506  51.138  1.00  0.00     0.083 A 
HETATM   22 CL2  UNL     1      22.695   5.109  52.227  1.00  0.00    -0.080 Cl
ENDBRANCH  12  14
ENDBRANCH  11  12
ENDBRANCH   1  11
BRANCH   2  23
HETATM   23  C5  UNL     1      22.706   0.853  53.038  1.00  0.00     0.036 A 
HETATM   24  C6  UNL     1      22.047  -0.298  52.262  1.00  0.00     0.024 A 
HETATM   25  C7  UNL     1      21.646   0.080  53.671  1.00  0.00     0.081 A 
BRANCH  25  26
HETATM   26  C8  UNL     1      21.788  -0.988  54.665  1.00  0.00     0.199 C 
HETATM   27  N1  UNL     1      20.784  -2.017  54.810  1.00  0.00    -0.272 NA
HETATM   28  H9  UNL     1      20.356  -2.913  54.445  1.00  0.00     0.127 HD
HETATM   29  H10 UNL     1      20.362  -2.913  54.438  1.00  0.00     0.127 HD
HETATM   30  O2  UNL     1      22.287  -1.686  55.605  1.00  0.00    -0.280 OA
ENDBRANCH  25  26
ENDBRANCH   2  23
TORSDOF 5
ENDMDL
MODEL 4
REMARK VINA RESULT:      -8.9      0.970      1.975
REMARK  5 active torsions:
REMARK  status: ('A' for Active; 'I' for Inactive)
REMARK    1  A    between atoms: C2_2  and  O1_3 
REMARK    2  A    between atoms: C2_2  and  C16_20 
REMARK    3  A    between atoms: O1_3  and  C3_4 
REMARK    4  A    between atoms: C4_5  and  C5_6 
REMARK    5  A    between atoms: C7_8  and  C8_9 
REMARK       I    between atoms: C8_9  and  N1_10 
ROOT
HETATM    1  C3  UNL     1      24.006   1.504  52.680  1.00  0.00     0.090 A 
HETATM    2  C4  UNL     1      25.224   0.801  52.739  1.00  0.00    -0.001 A 
HETATM    3  C9  UNL     1      25.281  -0.503  53.151  1.00  0.00     0.127 A 
HETATM    4  N2  UNL     1      24.168  -1.181  53.522  1.00  0.00    -0.260 NA
HETATM    5  C10 UNL     1      22.968  -0.567  53.490  1.00  0.00     0.069 A 
HETATM    6  C11 UNL     1      21.826  -1.259  53.877  1.00  0.00     0.032 A 
HETATM    7  C12 UNL     1      20.600  -0.674  53.867  1.00  0.00     0.002 A 
HETATM    8  C13 UNL     1      20.527   0.652  53.451  1.00  0.00     0.001 A 
HETATM    9  C14 UNL     1      21.678   1.295  53.078  1.00  0.00     0.017 A 
HETATM   10  C15 UNL     1      22.937   0.739  53.074  1.00  0.00     0.027 A 
ENDROOT
BRANCH   1  11
HETATM   11  O1  UNL     1      23.934   2.825  52.265  1.00  0.00    -0.340 OA
BRANCH  11  12
HETATM   12  C2  UNL     1      24.194   3.117  50.934  1.00  0.00     0.161 C 
HETATM   13  C1  UNL     1      23.055   2.715  49.984  1.00  0.00     0.045 C 
BRANCH  12  14
HETATM   14  C16 UNL     1      24.520   4.551  50.687  1.00  0.00     0.017 A 
HETATM   15  C17 UNL     1      23.686   5.551  51.178  1.00  0.00     0.044 A 
HETATM   16 CL1  UNL     1      22.249   5.093  52.089  1.00  0.00    -0.084 Cl
HETATM   17  C18 UNL     1      24.016   6.887  50.932  1.00  0.00     0.028 A 
HETATM   18  C19 UNL     1      25.157   7.201  50.210  1.00  0.00     0.046 A 
HETATM   19  C20 UNL     1      25.970   6.193  49.732  1.00  0.00     0.138 A 
HETATM   20  F1  UNL     1      27.060   6.642  49.037  1.00  0.00    -0.204 F 
HETATM   21  C21 UNL     1      25.664   4.871  49.962  1.00  0.00     0.083 A 
HETATM   22 CL2  UNL     1      26.744   3.663  49.324  1.00  0.00    -0.080 Cl
ENDBRANCH  12  14
ENDBRANCH  11  12
ENDBRANCH   1  11
BRANCH   2  23
HETATM   23  C5  UNL     1      26.483   1.416  52.354  1.00  0.00     0.036 A 
HETATM   24  C6  UNL     1      27.237   2.130  53.487  1.00  0.00     0.024 A 
HETATM   25  C7  UNL     1      27.816   0.960  52.722  1.00  0.00     0.081 A 
BRANCH  25  26
HETATM   26  C8  UNL     1      28.171  -0.203  53.542  1.00  0.00     0.199 C 
HETATM   27  N1  UNL     1      28.323  -0.094  54.974  1.00  0.00    -0.272 NA
HETATM   28  H9  UNL     1      27.861  -0.025  55.924  1.00  0.00     0.127 HD
HETATM   29  H10 UNL     1      27.853  -0.025  55.920  1.00  0.00     0.127 HD
HETATM   30  O2  UNL     1      28.472  -1.401  53.848  1.00  0.00    -0.280 OA
ENDBRANCH  25  26
ENDBRANCH   2  23
TORSDOF 5
ENDMDL
MODEL 5
REMARK VINA RESULT:      -8.7      2.814      5.803
REMARK  5 active torsions:
REMARK  status: ('A' for Active; 'I' for Inactive)
REMARK    1  A    between atoms: C2_2  and  O1_3 
REMARK    2  A    between atoms: C2_2  and  C16_20 
REMARK    3  A    between atoms: O1_3  and  C3_4 
REMARK    4  A    between atoms: C4_5  and  C5_6 
REMARK    5  A    between atoms: C7_8  and  C8_9 
REMARK       I    between atoms: C8_9  and  N1_10 
ROOT
HETATM    1  C3  UNL     1      24.407   1.713  51.244  1.00  0.00     0.090 A 
HETATM    2  C4  UNL     1      25.434   1.132  52.010  1.00  0.00    -0.001 A 
HETATM    3  C9  UNL     1      26.707   1.636  52.007  1.00  0.00     0.127 A 
HETATM    4  N2  UNL     1      27.040   2.720  51.265  1.00  0.00    -0.260 NA
HETATM    5  C10 UNL     1      26.104   3.325  50.506  1.00  0.00     0.069 A 
HETATM    6  C11 UNL     1      26.447   4.433  49.738  1.00  0.00     0.032 A 
HETATM    7  C12 UNL     1      25.535   5.066  48.955  1.00  0.00     0.002 A 
HETATM    8  C13 UNL     1      24.237   4.564  48.949  1.00  0.00     0.001 A 
HETATM    9  C14 UNL     1      23.945   3.471  49.721  1.00  0.00     0.017 A 
HETATM   10  C15 UNL     1      24.837   2.802  50.527  1.00  0.00     0.027 A 
ENDROOT
BRANCH   1  11
HETATM   11  O1  UNL     1      23.114   1.213  51.238  1.00  0.00    -0.340 OA
BRANCH  11  12
HETATM   12  C2  UNL     1      22.299   1.468  52.332  1.00  0.00     0.161 C 
HETATM   13  C1  UNL     1      22.036   2.964  52.565  1.00  0.00     0.045 C 
BRANCH  12  14
HETATM   14  C16 UNL     1      20.985   0.767  52.278  1.00  0.00     0.017 A 
HETATM   15  C17 UNL     1      20.552   0.011  53.362  1.00  0.00     0.044 A 
HETATM   16 CL1  UNL     1      21.580  -0.102  54.790  1.00  0.00    -0.084 Cl
HETATM   17  C18 UNL     1      19.315  -0.636  53.284  1.00  0.00     0.028 A 
HETATM   18  C19 UNL     1      18.539  -0.520  52.141  1.00  0.00     0.046 A 
HETATM   19  C20 UNL     1      18.989   0.236  51.076  1.00  0.00     0.138 A 
HETATM   20  F1  UNL     1      18.126   0.266  50.014  1.00  0.00    -0.204 F 
HETATM   21  C21 UNL     1      20.204   0.880  51.132  1.00  0.00     0.083 A 
HETATM   22 CL2  UNL     1      20.693   1.813  49.745  1.00  0.00    -0.080 Cl
ENDBRANCH  12  14
ENDBRANCH  11  12
ENDBRANCH   1  11
BRANCH   2  23
HETATM   23  C5  UNL     1      25.197  -0.025  52.857  1.00  0.00     0.036 A 
HETATM   24  C6  UNL     1      26.209  -1.172  52.698  1.00  0.00     0.024 A 
HETATM   25  C7  UNL     1      25.997  -0.436  54.003  1.00  0.00     0.081 A 
BRANCH  25  26
HETATM   26  C8  UNL     1      27.190   0.221  54.546  1.00  0.00     0.199 C 
HETATM   27  N1  UNL     1      28.447  -0.481  54.663  1.00  0.00    -0.272 NA
HETATM   28  H9  UNL     1      29.316  -0.853  54.187  1.00  0.00     0.127 HD
HETATM   29  H10 UNL     1      29.313  -0.850  54.179  1.00  0.00     0.127 HD
HETATM   30  O2  UNL     1      27.930   1.127  55.046  1.00  0.00    -0.280 OA
ENDBRANCH  25  26
ENDBRANCH   2  23
TORSDOF 5
ENDMDL
MODEL 6
REMARK VINA RESULT:      -8.6      1.738      1.973
REMARK  5 active torsions:
REMARK  status: ('A' for Active; 'I' for Inactive)
REMARK    1  A    between atoms: C2_2  and  O1_3 
REMARK    2  A    between atoms: C2_2  and  C16_20 
REMARK    3  A    between atoms: O1_3  and  C3_4 
REMARK    4  A    between atoms: C4_5  and  C5_6 
REMARK    5  A    between atoms: C7_8  and  C8_9 
REMARK       I    between atoms: C8_9  and  N1_10 
ROOT
HETATM    1  C3  UNL     1      23.717   0.640  52.796  1.00  0.00     0.090 A 
HETATM    2  C4  UNL     1      24.725   0.091  53.611  1.00  0.00    -0.001 A 
HETATM    3  C9  UNL     1      24.443  -0.838  54.575  1.00  0.00     0.127 A 
HETATM    4  N2  UNL     1      23.178  -1.274  54.795  1.00  0.00    -0.260 NA
HETATM    5  C10 UNL     1      22.165  -0.789  54.050  1.00  0.00     0.069 A 
HETATM    6  C11 UNL     1      20.865  -1.230  54.279  1.00  0.00     0.032 A 
HETATM    7  C12 UNL     1      19.816  -0.760  53.557  1.00  0.00     0.002 A 
HETATM    8  C13 UNL     1      20.088   0.186  52.573  1.00  0.00     0.001 A 
HETATM    9  C14 UNL     1      21.382   0.591  52.382  1.00  0.00     0.017 A 
HETATM   10  C15 UNL     1      22.473   0.140  53.090  1.00  0.00     0.027 A 
ENDROOT
BRANCH   1  11
HETATM   11  O1  UNL     1      23.988   1.581  51.816  1.00  0.00    -0.340 OA
BRANCH  11  12
HETATM   12  C2  UNL     1      23.603   2.897  52.034  1.00  0.00     0.161 C 
HETATM   13  C1  UNL     1      24.260   3.531  53.268  1.00  0.00     0.045 C 
BRANCH  12  14
HETATM   14  C16 UNL     1      23.842   3.793  50.867  1.00  0.00     0.017 A 
HETATM   15  C17 UNL     1      25.109   3.876  50.299  1.00  0.00     0.044 A 
HETATM   16 CL1  UNL     1      26.415   2.909  50.980  1.00  0.00    -0.084 Cl
HETATM   17  C18 UNL     1      25.305   4.725  49.205  1.00  0.00     0.028 A 
HETATM   18  C19 UNL     1      24.248   5.468  48.702  1.00  0.00     0.046 A 
HETATM   19  C20 UNL     1      22.999   5.370  49.282  1.00  0.00     0.138 A 
HETATM   20  F1  UNL     1      22.049   6.156  48.687  1.00  0.00    -0.204 F 
HETATM   21  C21 UNL     1      22.784   4.541  50.359  1.00  0.00     0.083 A 
HETATM   22 CL2  UNL     1      21.177   4.478  51.028  1.00  0.00    -0.080 Cl
ENDBRANCH  12  14
ENDBRANCH  11  12
ENDBRANCH   1  11
BRANCH   2  23
HETATM   23  C5  UNL     1      26.120   0.469  53.462  1.00  0.00     0.036 A 
HETATM   24  C6  UNL     1      27.084  -0.177  54.470  1.00  0.00     0.024 A 
HETATM   25  C7  UNL     1      27.199  -0.380  52.975  1.00  0.00     0.081 A 
BRANCH  25  26
HETATM   26  C8  UNL     1      27.111  -1.774  52.530  1.00  0.00     0.199 C 
HETATM   27  N1  UNL     1      27.913  -2.809  53.139  1.00  0.00    -0.272 NA
HETATM   28  H9  UNL     1      28.065  -3.464  53.958  1.00  0.00     0.127 HD
HETATM   29  H10 UNL     1      28.058  -3.460  53.962  1.00  0.00     0.127 HD
HETATM   30  O2  UNL     1      26.737  -2.795  51.868  1.00  0.00    -0.280 OA
ENDBRANCH  25  26
ENDBRANCH   2  23
TORSDOF 5
ENDMDL
MODEL 7
REMARK VINA RESULT:      -8.6      3.675      6.657
REMARK  5 active torsions:
REMARK  status: ('A' for Active; 'I' for Inactive)
REMARK    1  A    between atoms: C2_2  and  O1_3 
REMARK    2  A    between atoms: C2_2  and  C16_20 
REMARK    3  A    between atoms: O1_3  and  C3_4 
REMARK    4  A    between atoms: C4_5  and  C5_6 
REMARK    5  A    between atoms: C7_8  and  C8_9 
REMARK       I    between atoms: C8_9  and  N1_10 
ROOT
HETATM    1  C3  UNL     1      24.436   1.110  51.817  1.00  0.00     0.090 A 
HETATM    2  C4  UNL     1      23.209   0.547  52.216  1.00  0.00    -0.001 A 
HETATM    3  C9  UNL     1      22.017   1.169  51.963  1.00  0.00     0.127 A 
HETATM    4  N2  UNL     1      21.958   2.360  51.317  1.00  0.00    -0.260 NA
HETATM    5  C10 UNL     1      23.097   2.955  50.908  1.00  0.00     0.069 A 
HETATM    6  C11 UNL     1      23.039   4.180  50.252  1.00  0.00     0.032 A 
HETATM    7  C12 UNL     1      24.163   4.817  49.832  1.00  0.00     0.002 A 
HETATM    8  C13 UNL     1      25.383   4.195  50.082  1.00  0.00     0.001 A 
HETATM    9  C14 UNL     1      25.391   2.989  50.731  1.00  0.00     0.017 A 
HETATM   10  C15 UNL     1      24.278   2.312  51.172  1.00  0.00     0.027 A 
ENDROOT
BRANCH   1  11
HETATM   11  O1  UNL     1      25.650   0.491  52.066  1.00  0.00    -0.340 OA
BRANCH  11  12
HETATM   12  C2  UNL     1      26.523   1.081  52.969  1.00  0.00     0.161 C 
HETATM   13  C1  UNL     1      25.889   1.363  54.340  1.00  0.00     0.045 C 
BRANCH  12  14
HETATM   14  C16 UNL     1      27.777   0.304  53.188  1.00  0.00     0.017 A 
HETATM   15  C17 UNL     1      28.961   0.963  53.500  1.00  0.00     0.044 A 
HETATM   16 CL1  UNL     1      28.951   2.721  53.630  1.00  0.00    -0.084 Cl
HETATM   17  C18 UNL     1      30.122   0.210  53.701  1.00  0.00     0.028 A 
HETATM   18  C19 UNL     1      30.083  -1.172  53.588  1.00  0.00     0.046 A 
HETATM   19  C20 UNL     1      28.896  -1.805  53.277  1.00  0.00     0.138 A 
HETATM   20  F1  UNL     1      29.000  -3.167  53.198  1.00  0.00    -0.204 F 
HETATM   21  C21 UNL     1      27.742  -1.082  53.076  1.00  0.00     0.083 A 
HETATM   22 CL2  UNL     1      26.290  -1.962  52.689  1.00  0.00    -0.080 Cl
ENDBRANCH  12  14
ENDBRANCH  11  12
ENDBRANCH   1  11
BRANCH   2  23
HETATM   23  C5  UNL     1      23.141  -0.732  52.903  1.00  0.00     0.036 A 
HETATM   24  C6  UNL     1      23.116  -0.649  54.438  1.00  0.00     0.024 A 
HETATM   25  C7  UNL     1      21.995  -1.264  53.628  1.00  0.00     0.081 A 
BRANCH  25  26
HETATM   26  C8  UNL     1      20.681  -0.638  53.811  1.00  0.00     0.199 C 
HETATM   27  N1  UNL     1      20.421   0.251  54.920  1.00  0.00    -0.272 NA
HETATM   28  H9  UNL     1      20.532   1.214  55.344  1.00  0.00     0.127 HD
HETATM   29  H10 UNL     1      20.537   1.216  55.338  1.00  0.00     0.127 HD
HETATM   30  O2  UNL     1      19.465  -0.333  53.599  1.00  0.00    -0.280 OA
ENDBRANCH  25  26
ENDBRANCH   2  23
TORSDOF 5
ENDMDL
MODEL 8
REMARK VINA RESULT:      -8.3      2.284      4.696
REMARK  5 active torsions:
REMARK  status: ('A' for Active; 'I' for Inactive)
REMARK    1  A    between atoms: C2_2  and  O1_3 
REMARK    2  A    between atoms: C2_2  and  C16_20 
REMARK    3  A    between atoms: O1_3  and  C3_4 
REMARK    4  A    between atoms: C4_5  and  C5_6 
REMARK    5  A    between atoms: C7_8  and  C8_9 
REMARK       I    between atoms: C8_9  and  N1_10 
ROOT
HETATM    1  C3  UNL     1      22.977   1.568  51.714  1.00  0.00     0.090 A 
HETATM    2  C4  UNL     1      22.033   0.525  51.676  1.00  0.00    -0.001 A 
HETATM    3  C9  UNL     1      22.181  -0.607  52.432  1.00  0.00     0.127 A 
HETATM    4  N2  UNL     1      23.246  -0.778  53.254  1.00  0.00    -0.260 NA
HETATM    5  C10 UNL     1      24.188   0.182  53.338  1.00  0.00     0.069 A 
HETATM    6  C11 UNL     1      25.285   0.005  54.175  1.00  0.00     0.032 A 
HETATM    7  C12 UNL     1      26.260   0.944  54.281  1.00  0.00     0.002 A 
HETATM    8  C13 UNL     1      26.121   2.100  53.518  1.00  0.00     0.001 A 
HETATM    9  C14 UNL     1      25.025   2.232  52.707  1.00  0.00     0.017 A 
HETATM   10  C15 UNL     1      24.017   1.306  52.571  1.00  0.00     0.027 A 
ENDROOT
BRANCH   1  11
HETATM   11  O1  UNL     1      22.839   2.719  50.955  1.00  0.00    -0.340 OA
BRANCH  11  12
HETATM   12  C2  UNL     1      23.604   2.850  49.804  1.00  0.00     0.161 C 
HETATM   13  C1  UNL     1      22.861   2.439  48.524  1.00  0.00     0.045 C 
BRANCH  12  14
HETATM   14  C16 UNL     1      24.154   4.221  49.602  1.00  0.00     0.017 A 
HETATM   15  C17 UNL     1      25.523   4.407  49.444  1.00  0.00     0.044 A 
HETATM   16 CL1  UNL     1      26.586   3.001  49.488  1.00  0.00    -0.084 Cl
HETATM   17  C18 UNL     1      26.012   5.703  49.257  1.00  0.00     0.028 A 
HETATM   18  C19 UNL     1      25.139   6.780  49.229  1.00  0.00     0.046 A 
HETATM   19  C20 UNL     1      23.783   6.572  49.389  1.00  0.00     0.138 A 
HETATM   20  F1  UNL     1      23.038   7.718  49.341  1.00  0.00    -0.204 F 
HETATM   21  C21 UNL     1      23.281   5.304  49.575  1.00  0.00     0.083 A 
HETATM   22 CL2  UNL     1      21.558   5.132  49.766  1.00  0.00    -0.080 Cl
ENDBRANCH  12  14
ENDBRANCH  11  12
ENDBRANCH   1  11
BRANCH   2  23
HETATM   23  C5  UNL     1      20.843   0.598  50.845  1.00  0.00     0.036 A 
HETATM   24  C6  UNL     1      19.529   0.225  51.550  1.00  0.00     0.024 A 
HETATM   25  C7  UNL     1      19.780   1.588  50.942  1.00  0.00     0.081 A 
BRANCH  25  26
HETATM   26  C8  UNL     1      19.685   2.712  51.879  1.00  0.00     0.199 C 
HETATM   27  N1  UNL     1      18.495   3.528  51.956  1.00  0.00    -0.272 NA
HETATM   28  H9  UNL     1      17.499   3.633  52.297  1.00  0.00     0.127 HD
HETATM   29  H10 UNL     1      17.499   3.625  52.301  1.00  0.00     0.127 HD
HETATM   30  O2  UNL     1      20.015   3.542  52.785  1.00  0.00    -0.280 OA
ENDBRANCH  25  26
ENDBRANCH   2  23
TORSDOF 5
ENDMDL
MODEL 9
REMARK VINA RESULT:      -8.3      3.349      6.253
REMARK  5 active torsions:
REMARK  status: ('A' for Active; 'I' for Inactive)
REMARK    1  A    between atoms: C2_2  and  O1_3 
REMARK    2  A    between atoms: C2_2  and  C16_20 
REMARK    3  A    between atoms: O1_3  and  C3_4 
REMARK    4  A    between atoms: C4_5  and  C5_6 
REMARK    5  A    between atoms: C7_8  and  C8_9 
REMARK       I    between atoms: C8_9  and  N1_10 
ROOT
HETATM    1  C3  UNL     1      24.403   1.723  51.356  1.00  0.00     0.090 A 
HETATM    2  C4  UNL     1      24.998   2.708  50.546  1.00  0.00    -0.001 A 
HETATM    3  C9  UNL     1      26.314   3.057  50.689  1.00  0.00     0.127 A 
HETATM    4  N2  UNL     1      27.109   2.470  51.618  1.00  0.00    -0.260 NA
HETATM    5  C10 UNL     1      26.602   1.519  52.427  1.00  0.00     0.069 A 
HETATM    6  C11 UNL     1      27.414   0.921  53.385  1.00  0.00     0.032 A 
HETATM    7  C12 UNL     1      26.940  -0.035  54.225  1.00  0.00     0.002 A 
HETATM    8  C13 UNL     1      25.603  -0.399  54.091  1.00  0.00     0.001 A 
HETATM    9  C14 UNL     1      24.841   0.216  53.134  1.00  0.00     0.017 A 
HETATM   10  C15 UNL     1      25.281   1.187  52.264  1.00  0.00     0.027 A 
ENDROOT
BRANCH   1  11
HETATM   11  O1  UNL     1      23.072   1.360  51.223  1.00  0.00    -0.340 OA
BRANCH  11  12
HETATM   12  C2  UNL     1      22.205   1.620  52.274  1.00  0.00     0.161 C 
HETATM   13  C1  UNL     1      21.903   3.114  52.465  1.00  0.00     0.045 C 
BRANCH  12  14
HETATM   14  C16 UNL     1      20.907   0.893  52.176  1.00  0.00     0.017 A 
HETATM   15  C17 UNL     1      20.462   0.113  53.238  1.00  0.00     0.044 A 
HETATM   16 CL1  UNL     1      21.455   0.002  54.690  1.00  0.00    -0.084 Cl
HETATM   17  C18 UNL     1      19.241  -0.558  53.119  1.00  0.00     0.028 A 
HETATM   18  C19 UNL     1      18.493  -0.442  51.958  1.00  0.00     0.046 A 
HETATM   19  C20 UNL     1      18.954   0.338  50.916  1.00  0.00     0.138 A 
HETATM   20  F1  UNL     1      18.119   0.365  49.832  1.00  0.00    -0.204 F 
HETATM   21  C21 UNL     1      20.153   1.006  51.012  1.00  0.00     0.083 A 
HETATM   22 CL2  UNL     1      20.659   1.968  49.650  1.00  0.00    -0.080 Cl
ENDBRANCH  12  14
ENDBRANCH  11  12
ENDBRANCH   1  11
BRANCH   2  23
HETATM   23  C5  UNL     1      24.253   3.398  49.507  1.00  0.00     0.036 A 
HETATM   24  C6  UNL     1      23.475   4.639  49.973  1.00  0.00     0.024 A 
HETATM   25  C7  UNL     1      24.572   4.698  48.932  1.00  0.00     0.081 A 
BRANCH  25  26
HETATM   26  C8  UNL     1      25.699   5.575  49.268  1.00  0.00     0.199 C 
HETATM   27  N1  UNL     1      25.657   6.444  50.421  1.00  0.00    -0.272 NA
HETATM   28  H9  UNL     1      25.738   6.548  51.471  1.00  0.00     0.127 HD
HETATM   29  H10 UNL     1      25.739   6.539  51.472  1.00  0.00     0.127 HD
HETATM   30  O2  UNL     1      26.837   6.138  49.190  1.00  0.00    -0.280 OA
ENDBRANCH  25  26
ENDBRANCH   2  23
TORSDOF 5
ENDMDL
