MODEL 1
REMARK VINA RESULT:      -9.7      0.000      0.000
REMARK  3 active torsions:
REMARK  status: ('A' for Active; 'I' for Inactive)
REMARK    1  A    between atoms: C2_2  and  C3_3 
REMARK    2  A    between atoms: C10_12  and  N3_13 
REMARK    3  A    between atoms: C20_25  and  O1_26 
ROOT
HETATM    1  C3  UNL     1      28.189   0.198  53.150  1.00  0.00     0.002 C 
HETATM    2  C4  UNL     1      27.215   1.121  53.429  1.00  0.00    -0.047 C 
HETATM    3  C5  UNL     1      27.529   2.214  52.496  1.00  0.00     0.072 C 
HETATM    4  C6  UNL     1      26.550   2.650  51.506  1.00  0.00    -0.048 C 
HETATM    5  C7  UNL     1      25.474   3.229  52.019  1.00  0.00     0.037 C 
HETATM    6  C8  UNL     1      24.381   3.296  50.995  1.00  0.00     0.388 C 
HETATM    7  N1  UNL     1      25.188   3.618  49.830  1.00  0.00     0.141 N 
HETATM    8  C9  UNL     1      25.668   4.961  49.825  1.00  0.00     0.444 C 
HETATM    9  N2  UNL     1      24.763   5.914  50.423  1.00  0.00    -0.076 NA
HETATM   10  C10 UNL     1      23.715   5.515  51.070  1.00  0.00     0.714 C 
HETATM   11  N4  UNL     1      23.311   4.144  51.281  1.00  0.00    -0.084 N 
HETATM   12  N5  UNL     1      21.972   4.043  51.703  1.00  0.00    -0.282 N 
HETATM   13  C11 UNL     1      21.650   2.691  51.874  1.00  0.00     0.050 A 
HETATM   14  C12 UNL     1      20.513   2.133  51.333  1.00  0.00     0.031 A 
HETATM   15  C13 UNL     1      20.253   0.774  51.416  1.00  0.00     0.004 A 
HETATM   16  C14 UNL     1      21.084  -0.144  52.033  1.00  0.00     0.021 A 
HETATM   17  C15 UNL     1      22.180   0.442  52.547  1.00  0.00     0.019 A 
HETATM   18  C16 UNL     1      22.467   1.774  52.491  1.00  0.00     0.051 A 
HETATM   19  C17 UNL     1      23.359   0.012  53.082  1.00  0.00    -0.067 C 
HETATM   20  C18 UNL     1      24.351  -0.338  53.514  1.00  0.00    -0.098 C 
HETATM   21  C19 UNL     1      25.579  -0.759  54.020  1.00  0.00     0.130 C 
HETATM   22  C20 UNL     1      26.605   0.232  54.425  1.00  0.00     0.158 C 
HETATM   23  C21 UNL     1      26.331   2.715  50.000  1.00  0.00     0.312 C 
HETATM   24  H13 UNL     1      21.243   4.732  51.884  1.00  0.00     0.188 HD
ENDROOT
BRANCH   1  25
HETATM   25  C2  UNL     1      28.832  -1.095  53.379  1.00  0.00    -0.026 C 
HETATM   26  C1  UNL     1      29.416  -2.304  53.229  1.00  0.00     0.031 C 
ENDBRANCH   1  25
BRANCH  22  27
HETATM   27  O1  UNL     1      27.494  -0.339  55.333  1.00  0.00    -0.390 OA
HETATM   28  H21 UNL     1      28.345   0.155  55.396  1.00  0.00     0.210 HD
ENDBRANCH  22  27
BRANCH  10  29
HETATM   29  N3  UNL     1      22.956   6.628  51.583  1.00  0.00    -0.232 N 
HETATM   30  H11 UNL     1      22.134   6.136  52.045  1.00  0.00     0.174 HD
HETATM   31  H12 UNL     1      22.798   7.647  51.732  1.00  0.00     0.174 HD
ENDBRANCH  10  29
TORSDOF 3
ENDMDL
MODEL 2
REMARK VINA RESULT:      -9.1      3.579      6.145
REMARK  3 active torsions:
REMARK  status: ('A' for Active; 'I' for Inactive)
REMARK    1  A    between atoms: C2_2  and  C3_3 
REMARK    2  A    between atoms: C10_12  and  N3_13 
REMARK    3  A    between atoms: C20_25  and  O1_26 
ROOT
HETATM    1  C3  UNL     1      23.033   4.253  48.261  1.00  0.00     0.002 C 
HETATM    2  C4  UNL     1      23.372   3.032  48.785  1.00  0.00    -0.047 C 
HETATM    3  C5  UNL     1      24.428   3.375  49.749  1.00  0.00     0.072 C 
HETATM    4  C6  UNL     1      24.274   3.055  51.164  1.00  0.00    -0.048 C 
HETATM    5  C7  UNL     1      24.276   1.758  51.435  1.00  0.00     0.037 C 
HETATM    6  C8  UNL     1      23.743   1.513  52.815  1.00  0.00     0.388 C 
HETATM    7  N1  UNL     1      24.359   2.642  53.493  1.00  0.00     0.141 N 
HETATM    8  C9  UNL     1      25.762   2.486  53.696  1.00  0.00     0.444 C 
HETATM    9  N2  UNL     1      26.177   1.124  53.933  1.00  0.00    -0.076 NA
HETATM   10  C10 UNL     1      25.349   0.142  53.770  1.00  0.00     0.714 C 
HETATM   11  N4  UNL     1      23.969   0.247  53.354  1.00  0.00    -0.084 N 
HETATM   12  N5  UNL     1      23.245  -0.933  53.608  1.00  0.00    -0.282 N 
HETATM   13  C11 UNL     1      21.921  -0.753  53.191  1.00  0.00     0.050 A 
HETATM   14  C12 UNL     1      20.848  -1.066  53.997  1.00  0.00     0.031 A 
HETATM   15  C13 UNL     1      19.544  -0.788  53.621  1.00  0.00     0.004 A 
HETATM   16  C14 UNL     1      19.186  -0.181  52.431  1.00  0.00     0.021 A 
HETATM   17  C15 UNL     1      20.261   0.107  51.675  1.00  0.00     0.019 A 
HETATM   18  C16 UNL     1      21.557  -0.157  52.007  1.00  0.00     0.051 A 
HETATM   19  C17 UNL     1      20.495   0.829  50.541  1.00  0.00    -0.067 C 
HETATM   20  C18 UNL     1      20.701   1.443  49.607  1.00  0.00    -0.098 C 
HETATM   21  C19 UNL     1      20.964   2.214  48.476  1.00  0.00     0.130 C 
HETATM   22  C20 UNL     1      22.352   2.359  47.972  1.00  0.00     0.158 C 
HETATM   23  C21 UNL     1      24.144   3.724  52.527  1.00  0.00     0.312 C 
HETATM   24  H13 UNL     1      23.496  -1.830  54.021  1.00  0.00     0.188 HD
ENDROOT
BRANCH   1  25
HETATM   25  C2  UNL     1      22.238   5.084  47.359  1.00  0.00    -0.026 C 
HETATM   26  C1  UNL     1      21.379   5.987  46.838  1.00  0.00     0.031 C 
ENDBRANCH   1  25
BRANCH  22  27
HETATM   27  O1  UNL     1      22.339   2.711  46.625  1.00  0.00    -0.390 OA
HETATM   28  H21 UNL     1      22.228   1.934  46.028  1.00  0.00     0.210 HD
ENDBRANCH  22  27
BRANCH  10  29
HETATM   29  N3  UNL     1      25.971  -1.126  54.060  1.00  0.00    -0.232 N 
HETATM   30  H11 UNL     1      26.747  -0.839  54.728  1.00  0.00     0.174 HD
HETATM   31  H12 UNL     1      26.052  -2.160  53.957  1.00  0.00     0.174 HD
ENDBRANCH  10  29
TORSDOF 3
ENDMDL
MODEL 3
REMARK VINA RESULT:      -8.9      3.435      5.959
REMARK  3 active torsions:
REMARK  status: ('A' for Active; 'I' for Inactive)
REMARK    1  A    between atoms: C2_2  and  C3_3 
REMARK    2  A    between atoms: C10_12  and  N3_13 
REMARK    3  A    between atoms: C20_25  and  O1_26 
ROOT
HETATM    1  C3  UNL     1      25.411   4.947  50.057  1.00  0.00     0.002 C 
HETATM    2  C4  UNL     1      25.354   3.578  50.092  1.00  0.00    -0.047 C 
HETATM    3  C5  UNL     1      26.669   3.213  50.641  1.00  0.00     0.072 C 
HETATM    4  C6  UNL     1      26.770   2.452  51.881  1.00  0.00    -0.048 C 
HETATM    5  C7  UNL     1      26.321   1.209  51.798  1.00  0.00     0.037 C 
HETATM    6  C8  UNL     1      26.111   0.637  53.169  1.00  0.00     0.388 C 
HETATM    7  N1  UNL     1      27.280   1.200  53.824  1.00  0.00     0.141 N 
HETATM    8  C9  UNL     1      28.503   0.575  53.439  1.00  0.00     0.444 C 
HETATM    9  N2  UNL     1      28.382  -0.834  53.154  1.00  0.00    -0.076 NA
HETATM   10  C10 UNL     1      27.219  -1.396  53.074  1.00  0.00     0.714 C 
HETATM   11  N4  UNL     1      25.941  -0.745  53.248  1.00  0.00    -0.084 N 
HETATM   12  N5  UNL     1      24.897  -1.666  53.453  1.00  0.00    -0.282 N 
HETATM   13  C11 UNL     1      23.698  -0.964  53.624  1.00  0.00     0.050 A 
HETATM   14  C12 UNL     1      22.837  -1.224  54.668  1.00  0.00     0.031 A 
HETATM   15  C13 UNL     1      21.705  -0.456  54.893  1.00  0.00     0.004 A 
HETATM   16  C14 UNL     1      21.327   0.624  54.116  1.00  0.00     0.021 A 
HETATM   17  C15 UNL     1      22.192   0.842  53.110  1.00  0.00     0.019 A 
HETATM   18  C16 UNL     1      23.311   0.106  52.853  1.00  0.00     0.051 A 
HETATM   19  C17 UNL     1      22.395   1.830  52.191  1.00  0.00    -0.067 C 
HETATM   20  C18 UNL     1      22.581   2.657  51.433  1.00  0.00    -0.098 C 
HETATM   21  C19 UNL     1      22.830   3.678  50.518  1.00  0.00     0.130 C 
HETATM   22  C20 UNL     1      23.978   3.585  49.582  1.00  0.00     0.158 C 
HETATM   23  C21 UNL     1      27.276   2.574  53.313  1.00  0.00     0.312 C 
HETATM   24  H13 UNL     1      24.864  -2.683  53.503  1.00  0.00     0.188 HD
ENDROOT
BRANCH   1  25
HETATM   25  C2  UNL     1      24.812   6.247  49.759  1.00  0.00    -0.026 C 
HETATM   26  C1  UNL     1      24.532   7.567  49.691  1.00  0.00     0.031 C 
ENDBRANCH   1  25
BRANCH  22  27
HETATM   27  O1  UNL     1      23.760   4.399  48.473  1.00  0.00    -0.390 OA
HETATM   28  H21 UNL     1      22.995   4.101  47.926  1.00  0.00     0.210 HD
ENDBRANCH  22  27
BRANCH  10  29
HETATM   29  N3  UNL     1      27.331  -2.804  52.783  1.00  0.00    -0.232 N 
HETATM   30  H11 UNL     1      26.311  -3.101  52.752  1.00  0.00     0.174 HD
HETATM   31  H12 UNL     1      27.885  -3.665  52.590  1.00  0.00     0.174 HD
ENDBRANCH  10  29
TORSDOF 3
ENDMDL
MODEL 4
REMARK VINA RESULT:      -8.6      3.259      6.689
REMARK  3 active torsions:
REMARK  status: ('A' for Active; 'I' for Inactive)
REMARK    1  A    between atoms: C2_2  and  C3_3 
REMARK    2  A    between atoms: C10_12  and  N3_13 
REMARK    3  A    between atoms: C20_25  and  O1_26 
ROOT
HETATM    1  C3  UNL     1      22.665   5.320  48.882  1.00  0.00     0.002 C 
HETATM    2  C4  UNL     1      22.654   4.791  50.146  1.00  0.00    -0.047 C 
HETATM    3  C5  UNL     1      21.401   4.022  50.165  1.00  0.00     0.072 C 
HETATM    4  C6  UNL     1      21.415   2.585  50.419  1.00  0.00    -0.048 C 
HETATM    5  C7  UNL     1      21.785   2.250  51.646  1.00  0.00     0.037 C 
HETATM    6  C8  UNL     1      22.135   0.792  51.705  1.00  0.00     0.388 C 
HETATM    7  N1  UNL     1      21.087   0.279  50.838  1.00  0.00     0.141 N 
HETATM    8  C9  UNL     1      19.795   0.288  51.442  1.00  0.00     0.444 C 
HETATM    9  N2  UNL     1      19.806   0.047  52.865  1.00  0.00    -0.076 NA
HETATM   10  C10 UNL     1      20.920   0.027  53.524  1.00  0.00     0.714 C 
HETATM   11  N4  UNL     1      22.241   0.229  52.977  1.00  0.00    -0.084 N 
HETATM   12  N5  UNL     1      23.253  -0.197  53.857  1.00  0.00    -0.282 N 
HETATM   13  C11 UNL     1      24.499   0.019  53.256  1.00  0.00     0.050 A 
HETATM   14  C12 UNL     1      25.468  -0.959  53.204  1.00  0.00     0.031 A 
HETATM   15  C13 UNL     1      26.658  -0.776  52.516  1.00  0.00     0.004 A 
HETATM   16  C14 UNL     1      26.992   0.375  51.826  1.00  0.00     0.021 A 
HETATM   17  C15 UNL     1      26.021   1.302  51.903  1.00  0.00     0.019 A 
HETATM   18  C16 UNL     1      24.842   1.162  52.574  1.00  0.00     0.051 A 
HETATM   19  C17 UNL     1      25.757   2.496  51.296  1.00  0.00    -0.067 C 
HETATM   20  C18 UNL     1      25.521   3.482  50.782  1.00  0.00    -0.098 C 
HETATM   21  C19 UNL     1      25.213   4.679  50.138  1.00  0.00     0.130 C 
HETATM   22  C20 UNL     1      23.955   5.399  50.451  1.00  0.00     0.158 C 
HETATM   23  C21 UNL     1      21.098   1.256  49.745  1.00  0.00     0.312 C 
HETATM   24  H13 UNL     1      23.240  -0.613  54.787  1.00  0.00     0.188 HD
ENDROOT
BRANCH   1  25
HETATM   25  C2  UNL     1      23.288   6.130  47.837  1.00  0.00    -0.026 C 
HETATM   26  C1  UNL     1      23.523   6.989  46.821  1.00  0.00     0.031 C 
ENDBRANCH   1  25
BRANCH  22  27
HETATM   27  O1  UNL     1      24.075   6.745  50.114  1.00  0.00    -0.390 OA
HETATM   28  H21 UNL     1      24.000   6.903  49.143  1.00  0.00     0.210 HD
ENDBRANCH  22  27
BRANCH  10  29
HETATM   29  N3  UNL     1      20.699  -0.230  54.926  1.00  0.00    -0.232 N 
HETATM   30  H11 UNL     1      21.622  -0.673  55.213  1.00  0.00     0.174 HD
HETATM   31  H12 UNL     1      20.114  -0.207  55.787  1.00  0.00     0.174 HD
ENDBRANCH  10  29
TORSDOF 3
ENDMDL
MODEL 5
REMARK VINA RESULT:      -8.3      2.674      6.266
REMARK  3 active torsions:
REMARK  status: ('A' for Active; 'I' for Inactive)
REMARK    1  A    between atoms: C2_2  and  C3_3 
REMARK    2  A    between atoms: C10_12  and  N3_13 
REMARK    3  A    between atoms: C20_25  and  O1_26 
ROOT
HETATM    1  C3  UNL     1      18.577   2.799  50.677  1.00  0.00     0.002 C 
HETATM    2  C4  UNL     1      19.844   2.552  50.217  1.00  0.00    -0.047 C 
HETATM    3  C5  UNL     1      20.419   3.902  50.110  1.00  0.00     0.072 C 
HETATM    4  C6  UNL     1      21.615   4.262  50.863  1.00  0.00    -0.048 C 
HETATM    5  C7  UNL     1      22.713   3.629  50.482  1.00  0.00     0.037 C 
HETATM    6  C8  UNL     1      23.782   3.764  51.525  1.00  0.00     0.388 C 
HETATM    7  N1  UNL     1      23.547   5.148  51.903  1.00  0.00     0.141 N 
HETATM    8  C9  UNL     1      23.984   6.087  50.923  1.00  0.00     0.444 C 
HETATM    9  N2  UNL     1      25.160   5.676  50.194  1.00  0.00    -0.076 NA
HETATM   10  C10 UNL     1      25.625   4.474  50.311  1.00  0.00     0.714 C 
HETATM   11  N4  UNL     1      25.078   3.422  51.137  1.00  0.00    -0.084 N 
HETATM   12  N5  UNL     1      25.988   2.365  51.326  1.00  0.00    -0.282 N 
HETATM   13  C11 UNL     1      25.394   1.395  52.142  1.00  0.00     0.050 A 
HETATM   14  C12 UNL     1      26.037   0.866  53.239  1.00  0.00     0.031 A 
HETATM   15  C13 UNL     1      25.407  -0.016  54.103  1.00  0.00     0.004 A 
HETATM   16  C14 UNL     1      24.100  -0.447  53.963  1.00  0.00     0.021 A 
HETATM   17  C15 UNL     1      23.511   0.092  52.881  1.00  0.00     0.019 A 
HETATM   18  C16 UNL     1      24.099   0.956  52.005  1.00  0.00     0.051 A 
HETATM   19  C17 UNL     1      22.241   0.149  52.385  1.00  0.00    -0.067 C 
HETATM   20  C18 UNL     1      21.183   0.216  51.974  1.00  0.00    -0.098 C 
HETATM   21  C19 UNL     1      19.884   0.323  51.479  1.00  0.00     0.130 C 
HETATM   22  C20 UNL     1      19.613   1.103  50.247  1.00  0.00     0.158 C 
HETATM   23  C21 UNL     1      22.084   5.194  51.974  1.00  0.00     0.312 C 
HETATM   24  H13 UNL     1      26.939   2.198  51.002  1.00  0.00     0.188 HD
ENDROOT
BRANCH   1  25
HETATM   25  C2  UNL     1      17.258   2.340  51.106  1.00  0.00    -0.026 C 
HETATM   26  C1  UNL     1      16.025   2.244  51.652  1.00  0.00     0.031 C 
ENDBRANCH   1  25
BRANCH  22  27
HETATM   27  O1  UNL     1      18.420   0.681  49.664  1.00  0.00    -0.390 OA
HETATM   28  H21 UNL     1      17.648   0.763  50.273  1.00  0.00     0.210 HD
ENDBRANCH  22  27
BRANCH  10  29
HETATM   29  N3  UNL     1      26.799   4.281  49.497  1.00  0.00    -0.232 N 
HETATM   30  H11 UNL     1      26.749   5.117  48.842  1.00  0.00     0.174 HD
HETATM   31  H12 UNL     1      27.656   3.755  49.224  1.00  0.00     0.174 HD
ENDBRANCH  10  29
TORSDOF 3
ENDMDL
MODEL 6
REMARK VINA RESULT:      -8.1      2.743      3.979
REMARK  3 active torsions:
REMARK  status: ('A' for Active; 'I' for Inactive)
REMARK    1  A    between atoms: C2_2  and  C3_3 
REMARK    2  A    between atoms: C10_12  and  N3_13 
REMARK    3  A    between atoms: C20_25  and  O1_26 
ROOT
HETATM    1  C3  UNL     1      25.311   1.403  51.487  1.00  0.00     0.002 C 
HETATM    2  C4  UNL     1      24.159   2.115  51.696  1.00  0.00    -0.047 C 
HETATM    3  C5  UNL     1      23.910   2.723  50.380  1.00  0.00     0.072 C 
HETATM    4  C6  UNL     1      22.672   2.449  49.658  1.00  0.00    -0.048 C 
HETATM    5  C7  UNL     1      21.584   2.943  50.231  1.00  0.00     0.037 C 
HETATM    6  C8  UNL     1      20.356   2.308  49.650  1.00  0.00     0.388 C 
HETATM    7  N1  UNL     1      20.774   2.251  48.259  1.00  0.00     0.141 N 
HETATM    8  C9  UNL     1      20.772   3.522  47.612  1.00  0.00     0.444 C 
HETATM    9  N2  UNL     1      19.735   4.416  48.070  1.00  0.00    -0.076 NA
HETATM   10  C10 UNL     1      19.022   4.125  49.110  1.00  0.00     0.714 C 
HETATM   11  N4  UNL     1      19.141   2.937  49.924  1.00  0.00    -0.084 N 
HETATM   12  N5  UNL     1      18.018   2.741  50.748  1.00  0.00    -0.282 N 
HETATM   13  C11 UNL     1      18.200   1.570  51.494  1.00  0.00     0.050 A 
HETATM   14  C12 UNL     1      17.230   0.596  51.579  1.00  0.00     0.031 A 
HETATM   15  C13 UNL     1      17.455  -0.606  52.232  1.00  0.00     0.004 A 
HETATM   16  C14 UNL     1      18.644  -0.950  52.850  1.00  0.00     0.021 A 
HETATM   17  C15 UNL     1      19.561   0.028  52.743  1.00  0.00     0.019 A 
HETATM   18  C16 UNL     1      19.375   1.225  52.116  1.00  0.00     0.051 A 
HETATM   19  C17 UNL     1      20.895   0.150  53.002  1.00  0.00    -0.067 C 
HETATM   20  C18 UNL     1      22.010   0.255  53.199  1.00  0.00    -0.098 C 
HETATM   21  C19 UNL     1      23.381   0.382  53.415  1.00  0.00     0.130 C 
HETATM   22  C20 UNL     1      24.079   1.649  53.086  1.00  0.00     0.158 C 
HETATM   23  C21 UNL     1      22.161   1.792  48.382  1.00  0.00     0.312 C 
HETATM   24  H13 UNL     1      17.151   3.260  50.882  1.00  0.00     0.188 HD
ENDROOT
BRANCH   1  25
HETATM   25  C2  UNL     1      26.376   0.522  51.961  1.00  0.00    -0.026 C 
HETATM   26  C1  UNL     1      27.094  -0.538  52.396  1.00  0.00     0.031 C 
ENDBRANCH   1  25
BRANCH  22  27
HETATM   27  O1  UNL     1      25.262   1.748  53.814  1.00  0.00    -0.390 OA
HETATM   28  H21 UNL     1      25.462   2.673  54.092  1.00  0.00     0.210 HD
ENDBRANCH  22  27
BRANCH  10  29
HETATM   29  N3  UNL     1      18.050   5.153  49.388  1.00  0.00    -0.232 N 
HETATM   30  H11 UNL     1      17.628   4.811  50.302  1.00  0.00     0.174 HD
HETATM   31  H12 UNL     1      17.555   6.041  49.161  1.00  0.00     0.174 HD
ENDBRANCH  10  29
TORSDOF 3
ENDMDL
MODEL 7
REMARK VINA RESULT:      -7.6      9.824     13.232
REMARK  3 active torsions:
REMARK  status: ('A' for Active; 'I' for Inactive)
REMARK    1  A    between atoms: C2_2  and  C3_3 
REMARK    2  A    between atoms: C10_12  and  N3_13 
REMARK    3  A    between atoms: C20_25  and  O1_26 
ROOT
HETATM    1  C3  UNL     1      28.205  10.354  48.863  1.00  0.00     0.002 C 
HETATM    2  C4  UNL     1      29.558  10.274  49.061  1.00  0.00    -0.047 C 
HETATM    3  C5  UNL     1      29.765   8.841  49.315  1.00  0.00     0.072 C 
HETATM    4  C6  UNL     1      30.643   8.053  48.455  1.00  0.00    -0.048 C 
HETATM    5  C7  UNL     1      31.924   8.380  48.536  1.00  0.00     0.037 C 
HETATM    6  C8  UNL     1      32.682   7.807  47.376  1.00  0.00     0.388 C 
HETATM    7  N1  UNL     1      32.018   6.517  47.295  1.00  0.00     0.141 N 
HETATM    8  C9  UNL     1      32.382   5.622  48.344  1.00  0.00     0.444 C 
HETATM    9  N2  UNL     1      33.748   5.759  48.790  1.00  0.00    -0.076 NA
HETATM   10  C10 UNL     1      34.480   6.748  48.386  1.00  0.00     0.714 C 
HETATM   11  N4  UNL     1      34.073   7.800  47.484  1.00  0.00    -0.084 N 
HETATM   12  N5  UNL     1      35.171   8.512  46.966  1.00  0.00    -0.282 N 
HETATM   13  C11 UNL     1      34.702   9.503  46.095  1.00  0.00     0.050 A 
HETATM   14  C12 UNL     1      35.223   9.677  44.832  1.00  0.00     0.031 A 
HETATM   15  C13 UNL     1      34.685  10.588  43.937  1.00  0.00     0.004 A 
HETATM   16  C14 UNL     1      33.596  11.398  44.206  1.00  0.00     0.021 A 
HETATM   17  C15 UNL     1      33.120  11.196  45.447  1.00  0.00     0.019 A 
HETATM   18  C16 UNL     1      33.625  10.315  46.357  1.00  0.00     0.051 A 
HETATM   19  C17 UNL     1      32.008  11.576  46.143  1.00  0.00    -0.067 C 
HETATM   20  C18 UNL     1      31.078  11.875  46.723  1.00  0.00    -0.098 C 
HETATM   21  C19 UNL     1      29.927  12.216  47.431  1.00  0.00     0.130 C 
HETATM   22  C20 UNL     1      29.717  11.712  48.810  1.00  0.00     0.158 C 
HETATM   23  C21 UNL     1      30.612   6.893  47.468  1.00  0.00     0.312 C 
HETATM   24  H13 UNL     1      36.179   8.433  47.097  1.00  0.00     0.188 HD
ENDROOT
BRANCH   1  25
HETATM   25  C2  UNL     1      26.995  11.122  48.575  1.00  0.00    -0.026 C 
HETATM   26  C1  UNL     1      25.842  11.588  48.045  1.00  0.00     0.031 C 
ENDBRANCH   1  25
BRANCH  22  27
HETATM   27  O1  UNL     1      28.823  12.535  49.492  1.00  0.00    -0.390 OA
HETATM   28  H21 UNL     1      28.152  12.027  50.006  1.00  0.00     0.210 HD
ENDBRANCH  22  27
BRANCH  10  29
HETATM   29  N3  UNL     1      35.804   6.689  48.953  1.00  0.00    -0.232 N 
HETATM   30  H11 UNL     1      36.211   5.836  48.466  1.00  0.00     0.174 HD
HETATM   31  H12 UNL     1      36.556   7.044  49.581  1.00  0.00     0.174 HD
ENDBRANCH  10  29
TORSDOF 3
ENDMDL
MODEL 8
REMARK VINA RESULT:      -7.5      9.416     12.137
REMARK  3 active torsions:
REMARK  status: ('A' for Active; 'I' for Inactive)
REMARK    1  A    between atoms: C2_2  and  C3_3 
REMARK    2  A    between atoms: C10_12  and  N3_13 
REMARK    3  A    between atoms: C20_25  and  O1_26 
ROOT
HETATM    1  C3  UNL     1      29.204   8.804  48.012  1.00  0.00     0.002 C 
HETATM    2  C4  UNL     1      29.702   8.156  46.912  1.00  0.00    -0.047 C 
HETATM    3  C5  UNL     1      30.572   9.173  46.302  1.00  0.00     0.072 C 
HETATM    4  C6  UNL     1      31.996   8.917  46.116  1.00  0.00    -0.048 C 
HETATM    5  C7  UNL     1      32.271   7.972  45.230  1.00  0.00     0.037 C 
HETATM    6  C8  UNL     1      33.693   7.517  45.377  1.00  0.00     0.388 C 
HETATM    7  N1  UNL     1      34.311   8.806  45.636  1.00  0.00     0.141 N 
HETATM    8  C9  UNL     1      34.395   9.639  44.481  1.00  0.00     0.444 C 
HETATM    9  N2  UNL     1      34.602   8.919  43.248  1.00  0.00    -0.076 NA
HETATM   10  C10 UNL     1      34.513   7.628  43.212  1.00  0.00     0.714 C 
HETATM   11  N4  UNL     1      34.215   6.760  44.328  1.00  0.00    -0.084 N 
HETATM   12  N5  UNL     1      34.535   5.416  44.058  1.00  0.00    -0.282 N 
HETATM   13  C11 UNL     1      34.231   4.642  45.184  1.00  0.00     0.050 A 
HETATM   14  C12 UNL     1      35.126   3.742  45.719  1.00  0.00     0.031 A 
HETATM   15  C13 UNL     1      34.861   3.055  46.894  1.00  0.00     0.004 A 
HETATM   16  C14 UNL     1      33.703   3.195  47.636  1.00  0.00     0.021 A 
HETATM   17  C15 UNL     1      32.858   4.081  47.079  1.00  0.00     0.019 A 
HETATM   18  C16 UNL     1      33.080   4.770  45.924  1.00  0.00     0.051 A 
HETATM   19  C17 UNL     1      31.705   4.706  47.459  1.00  0.00    -0.067 C 
HETATM   20  C18 UNL     1      30.754   5.243  47.774  1.00  0.00    -0.098 C 
HETATM   21  C19 UNL     1      29.602   5.923  48.164  1.00  0.00     0.130 C 
HETATM   22  C20 UNL     1      28.982   6.927  47.264  1.00  0.00     0.158 C 
HETATM   23  C21 UNL     1      33.363   9.409  46.578  1.00  0.00     0.312 C 
HETATM   24  H13 UNL     1      34.929   4.942  43.247  1.00  0.00     0.188 HD
ENDROOT
BRANCH   1  25
HETATM   25  C2  UNL     1      28.370   8.837  49.211  1.00  0.00    -0.026 C 
HETATM   26  C1  UNL     1      27.496   9.185  50.182  1.00  0.00     0.031 C 
ENDBRANCH   1  25
BRANCH  22  27
HETATM   27  O1  UNL     1      27.639   7.099  47.591  1.00  0.00    -0.390 OA
HETATM   28  H21 UNL     1      27.032   6.630  46.971  1.00  0.00     0.210 HD
ENDBRANCH  22  27
BRANCH  10  29
HETATM   29  N3  UNL     1      34.755   7.119  41.885  1.00  0.00    -0.232 N 
HETATM   30  H11 UNL     1      33.965   7.569  41.333  1.00  0.00     0.174 HD
HETATM   31  H12 UNL     1      35.293   6.549  41.199  1.00  0.00     0.174 HD
ENDBRANCH  10  29
TORSDOF 3
ENDMDL
MODEL 9
REMARK VINA RESULT:      -7.2      4.740      7.830
REMARK  3 active torsions:
REMARK  status: ('A' for Active; 'I' for Inactive)
REMARK    1  A    between atoms: C2_2  and  C3_3 
REMARK    2  A    between atoms: C10_12  and  N3_13 
REMARK    3  A    between atoms: C20_25  and  O1_26 
ROOT
HETATM    1  C3  UNL     1      20.608   5.677  45.175  1.00  0.00     0.002 C 
HETATM    2  C4  UNL     1      21.911   5.484  45.554  1.00  0.00    -0.047 C 
HETATM    3  C5  UNL     1      22.333   6.833  45.959  1.00  0.00     0.072 C 
HETATM    4  C6  UNL     1      22.805   7.088  47.316  1.00  0.00    -0.048 C 
HETATM    5  C7  UNL     1      23.955   6.503  47.614  1.00  0.00     0.037 C 
HETATM    6  C8  UNL     1      24.169   6.498  49.098  1.00  0.00     0.388 C 
HETATM    7  N1  UNL     1      23.653   7.823  49.400  1.00  0.00     0.141 N 
HETATM    8  C9  UNL     1      24.521   8.877  48.990  1.00  0.00     0.444 C 
HETATM    9  N2  UNL     1      25.925   8.557  49.083  1.00  0.00    -0.076 NA
HETATM   10  C10 UNL     1      26.312   7.347  49.331  1.00  0.00     0.714 C 
HETATM   11  N4  UNL     1      25.458   6.201  49.541  1.00  0.00    -0.084 N 
HETATM   12  N5  UNL     1      26.146   5.124  50.129  1.00  0.00    -0.282 N 
HETATM   13  C11 UNL     1      25.255   4.060  50.311  1.00  0.00     0.050 A 
HETATM   14  C12 UNL     1      25.145   3.391  51.511  1.00  0.00     0.031 A 
HETATM   15  C13 UNL     1      24.189   2.410  51.718  1.00  0.00     0.004 A 
HETATM   16  C14 UNL     1      23.266   2.006  50.770  1.00  0.00     0.021 A 
HETATM   17  C15 UNL     1      23.408   2.683  49.617  1.00  0.00     0.019 A 
HETATM   18  C16 UNL     1      24.339   3.649  49.373  1.00  0.00     0.051 A 
HETATM   19  C17 UNL     1      22.691   2.810  48.462  1.00  0.00    -0.067 C 
HETATM   20  C18 UNL     1      22.091   2.935  47.505  1.00  0.00    -0.098 C 
HETATM   21  C19 UNL     1      21.348   3.112  46.339  1.00  0.00     0.130 C 
HETATM   22  C20 UNL     1      21.815   4.045  45.285  1.00  0.00     0.158 C 
HETATM   23  C21 UNL     1      22.442   7.867  48.574  1.00  0.00     0.312 C 
HETATM   24  H13 UNL     1      27.110   4.994  50.433  1.00  0.00     0.188 HD
ENDROOT
BRANCH   1  25
HETATM   25  C2  UNL     1      19.334   5.173  44.666  1.00  0.00    -0.026 C 
HETATM   26  C1  UNL     1      18.032   4.844  44.507  1.00  0.00     0.031 C 
ENDBRANCH   1  25
BRANCH  22  27
HETATM   27  O1  UNL     1      21.247   3.707  44.058  1.00  0.00    -0.390 OA
HETATM   28  H21 UNL     1      21.885   3.264  43.451  1.00  0.00     0.210 HD
ENDBRANCH  22  27
BRANCH  10  29
HETATM   29  N3  UNL     1      27.750   7.254  49.381  1.00  0.00    -0.232 N 
HETATM   30  H11 UNL     1      27.978   6.895  48.405  1.00  0.00     0.174 HD
HETATM   31  H12 UNL     1      28.666   7.354  49.868  1.00  0.00     0.174 HD
ENDBRANCH  10  29
TORSDOF 3
ENDMDL
