MODEL 1
REMARK VINA RESULT:      -7.6      0.000      0.000
REMARK  7 active torsions:
REMARK  status: ('A' for Active; 'I' for Inactive)
REMARK    1  A    between atoms: C2_2  and  C3_3 
REMARK    2  A    between atoms: N1_8  and  N2_9 
REMARK    3  A    between atoms: N2_9  and  C8_10 
REMARK    4  A    between atoms: N2_9  and  C15_17 
REMARK    5  A    between atoms: C8_10  and  C9_11 
REMARK    6  A    between atoms: C16_19  and  O1_20 
REMARK    7  A    between atoms: C18_23  and  O2_24 
ROOT
HETATM    1  N2  UNL     1      25.578   0.536  53.616  1.00  0.00    -0.242 N 
ENDROOT
BRANCH   1   2
HETATM    2  N1  UNL     1      24.967   1.758  53.704  1.00  0.00    -0.176 NA
HETATM    3  C7  UNL     1      24.784   2.641  52.817  1.00  0.00     0.065 C 
HETATM    4  C6  UNL     1      24.066   3.784  53.444  1.00  0.00     0.086 C 
HETATM    5  C18 UNL     1      25.159   2.669  51.381  1.00  0.00     0.175 C 
HETATM    6  C5  UNL     1      23.639   4.792  52.429  1.00  0.00    -0.024 C 
HETATM    7  C4  UNL     1      23.676   4.670  51.114  1.00  0.00    -0.023 C 
HETATM    8  C3  UNL     1      24.188   3.413  50.530  1.00  0.00     0.042 C 
BRANCH   8   9
HETATM    9  C2  UNL     1      23.056   2.523  50.034  1.00  0.00     0.007 C 
HETATM   10  C1  UNL     1      22.835   2.680  48.554  1.00  0.00     0.006 C 
ENDBRANCH   8   9
BRANCH   5  11
HETATM   11  O2  UNL     1      25.281   1.372  50.863  1.00  0.00    -0.389 OA
HETATM   12  H23 UNL     1      25.725   0.841  51.581  1.00  0.00     0.210 HD
ENDBRANCH   5  11
ENDBRANCH   1   2
BRANCH   1  13
HETATM   13  C8  UNL     1      24.950  -0.751  53.399  1.00  0.00     0.188 C 
BRANCH  13  14
HETATM   14  C9  UNL     1      23.482  -0.636  53.622  1.00  0.00    -0.056 A 
HETATM   15  C10 UNL     1      22.540  -0.255  52.775  1.00  0.00     0.011 A 
HETATM   16  C11 UNL     1      21.237  -0.294  53.428  1.00  0.00    -0.065 A 
HETATM   17  C12 UNL     1      19.883   0.032  52.925  1.00  0.00     0.048 C 
HETATM   18  C13 UNL     1      21.393  -0.702  54.684  1.00  0.00    -0.016 A 
HETATM   19  C14 UNL     1      22.839  -0.959  54.925  1.00  0.00     0.063 A 
ENDBRANCH  13  14
ENDBRANCH   1  13
BRANCH   1  20
HETATM   20  C15 UNL     1      27.002   0.640  53.766  1.00  0.00     0.192 A 
HETATM   21  N3  UNL     1      27.762   1.610  54.270  1.00  0.00    -0.198 NA
HETATM   22  C16 UNL     1      29.062   1.358  54.246  1.00  0.00     0.171 A 
HETATM   23  C17 UNL     1      29.711   0.105  53.714  1.00  0.00     0.111 A 
HETATM   24  S1  UNL     1      28.114  -0.733  53.211  1.00  0.00    -0.058 SA
BRANCH  22  25
HETATM   25  O1  UNL     1      29.741   2.464  54.808  1.00  0.00    -0.344 OA
HETATM   26  H20 UNL     1      29.626   3.399  54.446  1.00  0.00     0.219 HD
ENDBRANCH  22  25
ENDBRANCH   1  20
TORSDOF 7
ENDMDL
MODEL 2
REMARK VINA RESULT:      -7.2      2.830      5.109
REMARK  7 active torsions:
REMARK  status: ('A' for Active; 'I' for Inactive)
REMARK    1  A    between atoms: C2_2  and  C3_3 
REMARK    2  A    between atoms: N1_8  and  N2_9 
REMARK    3  A    between atoms: N2_9  and  C8_10 
REMARK    4  A    between atoms: N2_9  and  C15_17 
REMARK    5  A    between atoms: C8_10  and  C9_11 
REMARK    6  A    between atoms: C16_19  and  O1_20 
REMARK    7  A    between atoms: C18_23  and  O2_24 
ROOT
HETATM    1  N2  UNL     1      24.882   2.668  51.292  1.00  0.00    -0.242 N 
ENDROOT
BRANCH   1   2
HETATM    2  N1  UNL     1      25.566   1.484  51.335  1.00  0.00    -0.176 NA
HETATM    3  C7  UNL     1      26.418   1.068  52.173  1.00  0.00     0.065 C 
HETATM    4  C6  UNL     1      26.856  -0.291  51.752  1.00  0.00     0.086 C 
HETATM    5  C18 UNL     1      26.974   1.705  53.394  1.00  0.00     0.175 C 
HETATM    6  C5  UNL     1      27.718  -0.939  52.783  1.00  0.00    -0.024 C 
HETATM    7  C4  UNL     1      27.949  -0.517  54.014  1.00  0.00    -0.023 C 
HETATM    8  C3  UNL     1      27.304   0.731  54.472  1.00  0.00     0.042 C 
BRANCH   8   9
HETATM    9  C2  UNL     1      26.113   0.445  55.377  1.00  0.00     0.007 C 
HETATM   10  C1  UNL     1      25.443  -0.853  55.020  1.00  0.00     0.006 C 
ENDBRANCH   8   9
BRANCH   5  11
HETATM   11  O2  UNL     1      26.082   2.648  53.924  1.00  0.00    -0.389 OA
HETATM   12  H23 UNL     1      25.362   2.746  53.240  1.00  0.00     0.210 HD
ENDBRANCH   5  11
ENDBRANCH   1   2
BRANCH   1  13
HETATM   13  C8  UNL     1      23.647   3.000  51.975  1.00  0.00     0.188 C 
BRANCH  13  14
HETATM   14  C9  UNL     1      22.856   1.760  52.209  1.00  0.00    -0.056 A 
HETATM   15  C10 UNL     1      22.793   1.008  53.296  1.00  0.00     0.011 A 
HETATM   16  C11 UNL     1      21.887  -0.113  53.074  1.00  0.00    -0.065 A 
HETATM   17  C12 UNL     1      21.476  -1.225  53.960  1.00  0.00     0.048 C 
HETATM   18  C13 UNL     1      21.398  -0.037  51.840  1.00  0.00    -0.016 A 
HETATM   19  C14 UNL     1      21.969   1.164  51.173  1.00  0.00     0.063 A 
ENDBRANCH  13  14
ENDBRANCH   1  13
BRANCH   1  20
HETATM   20  C15 UNL     1      25.536   3.632  50.453  1.00  0.00     0.192 A 
HETATM   21  N3  UNL     1      26.779   3.682  49.980  1.00  0.00    -0.198 NA
HETATM   22  C16 UNL     1      27.037   4.738  49.223  1.00  0.00     0.171 A 
HETATM   23  C17 UNL     1      26.064   5.836  48.874  1.00  0.00     0.111 A 
HETATM   24  S1  UNL     1      24.624   5.121  49.834  1.00  0.00    -0.058 SA
BRANCH  22  25
HETATM   25  O1  UNL     1      28.382   4.661  48.795  1.00  0.00    -0.344 OA
HETATM   26  H20 UNL     1      29.136   5.062  49.332  1.00  0.00     0.219 HD
ENDBRANCH  22  25
ENDBRANCH   1  20
TORSDOF 7
ENDMDL
MODEL 3
REMARK VINA RESULT:      -7.1      3.259      7.211
REMARK  7 active torsions:
REMARK  status: ('A' for Active; 'I' for Inactive)
REMARK    1  A    between atoms: C2_2  and  C3_3 
REMARK    2  A    between atoms: N1_8  and  N2_9 
REMARK    3  A    between atoms: N2_9  and  C8_10 
REMARK    4  A    between atoms: N2_9  and  C15_17 
REMARK    5  A    between atoms: C8_10  and  C9_11 
REMARK    6  A    between atoms: C16_19  and  O1_20 
REMARK    7  A    between atoms: C18_23  and  O2_24 
ROOT
HETATM    1  N2  UNL     1      24.404   2.966  50.610  1.00  0.00    -0.242 N 
ENDROOT
BRANCH   1   2
HETATM    2  N1  UNL     1      25.255   1.937  50.911  1.00  0.00    -0.176 NA
HETATM    3  C7  UNL     1      25.385   1.278  51.983  1.00  0.00     0.065 C 
HETATM    4  C6  UNL     1      26.458   0.268  51.778  1.00  0.00     0.086 C 
HETATM    5  C18 UNL     1      24.670   1.381  53.281  1.00  0.00     0.175 C 
HETATM    6  C5  UNL     1      26.550  -0.682  52.926  1.00  0.00    -0.024 C 
HETATM    7  C4  UNL     1      25.706  -0.804  53.934  1.00  0.00    -0.023 C 
HETATM    8  C3  UNL     1      24.517   0.073  53.978  1.00  0.00     0.042 C 
BRANCH   8   9
HETATM    9  C2  UNL     1      23.258  -0.669  53.546  1.00  0.00     0.007 C 
HETATM   10  C1  UNL     1      22.430  -1.092  54.728  1.00  0.00     0.006 C 
ENDBRANCH   8   9
BRANCH   5  11
HETATM   11  O2  UNL     1      23.392   1.932  53.114  1.00  0.00    -0.389 OA
HETATM   12  H23 UNL     1      22.826   1.187  52.765  1.00  0.00     0.210 HD
ENDBRANCH   5  11
ENDBRANCH   1   2
BRANCH   1  13
HETATM   13  C8  UNL     1      24.619   4.382  50.829  1.00  0.00     0.188 C 
BRANCH  13  14
HETATM   14  C9  UNL     1      25.693   4.873  49.922  1.00  0.00    -0.056 A 
HETATM   15  C10 UNL     1      25.850   6.076  49.394  1.00  0.00     0.011 A 
HETATM   16  C11 UNL     1      27.049   6.103  48.564  1.00  0.00    -0.065 A 
HETATM   17  C12 UNL     1      27.658   7.190  47.767  1.00  0.00     0.048 C 
HETATM   18  C13 UNL     1      27.620   4.903  48.589  1.00  0.00    -0.016 A 
HETATM   19  C14 UNL     1      26.810   4.006  49.457  1.00  0.00     0.063 A 
ENDBRANCH  13  14
ENDBRANCH   1  13
BRANCH   1  20
HETATM   20  C15 UNL     1      23.188   2.494  50.009  1.00  0.00     0.192 A 
HETATM   21  N3  UNL     1      22.242   1.680  50.471  1.00  0.00    -0.198 NA
HETATM   22  C16 UNL     1      21.245   1.462  49.626  1.00  0.00     0.171 A 
HETATM   23  C17 UNL     1      21.112   2.048  48.243  1.00  0.00     0.111 A 
HETATM   24  S1  UNL     1      22.711   3.022  48.299  1.00  0.00    -0.058 SA
BRANCH  22  25
HETATM   25  O1  UNL     1      20.321   0.588  50.244  1.00  0.00    -0.344 OA
HETATM   26  H20 UNL     1      19.706  -0.004  49.705  1.00  0.00     0.219 HD
ENDBRANCH  22  25
ENDBRANCH   1  20
TORSDOF 7
ENDMDL
MODEL 4
REMARK VINA RESULT:      -7.0      2.790      4.980
REMARK  7 active torsions:
REMARK  status: ('A' for Active; 'I' for Inactive)
REMARK    1  A    between atoms: C2_2  and  C3_3 
REMARK    2  A    between atoms: N1_8  and  N2_9 
REMARK    3  A    between atoms: N2_9  and  C8_10 
REMARK    4  A    between atoms: N2_9  and  C15_17 
REMARK    5  A    between atoms: C8_10  and  C9_11 
REMARK    6  A    between atoms: C16_19  and  O1_20 
REMARK    7  A    between atoms: C18_23  and  O2_24 
ROOT
HETATM    1  N2  UNL     1      22.822   1.327  52.167  1.00  0.00    -0.242 N 
ENDROOT
BRANCH   1   2
HETATM    2  N1  UNL     1      23.597   0.776  53.151  1.00  0.00    -0.176 NA
HETATM    3  C7  UNL     1      24.819   0.448  53.135  1.00  0.00     0.065 C 
HETATM    4  C6  UNL     1      25.166  -0.108  54.471  1.00  0.00     0.086 C 
HETATM    5  C18 UNL     1      25.837   0.542  52.059  1.00  0.00     0.175 C 
HETATM    6  C5  UNL     1      26.633  -0.346  54.607  1.00  0.00    -0.024 C 
HETATM    7  C4  UNL     1      27.587   0.041  53.779  1.00  0.00    -0.023 C 
HETATM    8  C3  UNL     1      27.214   0.798  52.567  1.00  0.00     0.042 C 
BRANCH   8   9
HETATM    9  C2  UNL     1      27.503   2.286  52.726  1.00  0.00     0.007 C 
HETATM   10  C1  UNL     1      28.678   2.529  53.633  1.00  0.00     0.006 C 
ENDBRANCH   8   9
BRANCH   5  11
HETATM   11  O2  UNL     1      25.519   1.557  51.146  1.00  0.00    -0.389 OA
HETATM   12  H23 UNL     1      25.218   1.085  50.320  1.00  0.00     0.210 HD
ENDBRANCH   5  11
ENDBRANCH   1   2
BRANCH   1  13
HETATM   13  C8  UNL     1      22.038   0.630  51.166  1.00  0.00     0.188 C 
BRANCH  13  14
HETATM   14  C9  UNL     1      20.733   0.215  51.752  1.00  0.00    -0.056 A 
HETATM   15  C10 UNL     1      19.519   0.333  51.241  1.00  0.00     0.011 A 
HETATM   16  C11 UNL     1      18.534  -0.212  52.168  1.00  0.00    -0.065 A 
HETATM   17  C12 UNL     1      17.061  -0.320  52.074  1.00  0.00     0.048 C 
HETATM   18  C13 UNL     1      19.160  -0.662  53.251  1.00  0.00    -0.016 A 
HETATM   19  C14 UNL     1      20.622  -0.432  53.087  1.00  0.00     0.063 A 
ENDBRANCH  13  14
ENDBRANCH   1  13
BRANCH   1  20
HETATM   20  C15 UNL     1      22.847   2.762  52.208  1.00  0.00     0.192 A 
HETATM   21  N3  UNL     1      23.570   3.605  52.942  1.00  0.00    -0.198 NA
HETATM   22  C16 UNL     1      23.324   4.886  52.709  1.00  0.00     0.171 A 
HETATM   23  C17 UNL     1      22.328   5.430  51.716  1.00  0.00     0.111 A 
HETATM   24  S1  UNL     1      21.740   3.759  51.108  1.00  0.00    -0.058 SA
BRANCH  22  25
HETATM   25  O1  UNL     1      24.156   5.659  53.551  1.00  0.00    -0.344 OA
HETATM   26  H20 UNL     1      25.054   5.324  53.866  1.00  0.00     0.219 HD
ENDBRANCH  22  25
ENDBRANCH   1  20
TORSDOF 7
ENDMDL
MODEL 5
REMARK VINA RESULT:      -7.0      2.920      5.734
REMARK  7 active torsions:
REMARK  status: ('A' for Active; 'I' for Inactive)
REMARK    1  A    between atoms: C2_2  and  C3_3 
REMARK    2  A    between atoms: N1_8  and  N2_9 
REMARK    3  A    between atoms: N2_9  and  C8_10 
REMARK    4  A    between atoms: N2_9  and  C15_17 
REMARK    5  A    between atoms: C8_10  and  C9_11 
REMARK    6  A    between atoms: C16_19  and  O1_20 
REMARK    7  A    between atoms: C18_23  and  O2_24 
ROOT
HETATM    1  N2  UNL     1      25.436   3.199  50.926  1.00  0.00    -0.242 N 
ENDROOT
BRANCH   1   2
HETATM    2  N1  UNL     1      24.367   3.838  51.495  1.00  0.00    -0.176 NA
HETATM    3  C7  UNL     1      23.138   3.538  51.478  1.00  0.00     0.065 C 
HETATM    4  C6  UNL     1      22.399   4.572  52.253  1.00  0.00     0.086 C 
HETATM    5  C18 UNL     1      22.423   2.400  50.847  1.00  0.00     0.175 C 
HETATM    6  C5  UNL     1      20.967   4.197  52.448  1.00  0.00    -0.024 C 
HETATM    7  C4  UNL     1      20.399   3.036  52.177  1.00  0.00    -0.023 C 
HETATM    8  C3  UNL     1      21.229   1.950  51.617  1.00  0.00     0.042 C 
BRANCH   8   9
HETATM    9  C2  UNL     1      21.581   0.912  52.675  1.00  0.00     0.007 C 
HETATM   10  C1  UNL     1      20.423   0.645  53.598  1.00  0.00     0.006 C 
ENDBRANCH   8   9
BRANCH   5  11
HETATM   11  O2  UNL     1      23.272   1.295  50.685  1.00  0.00    -0.389 OA
HETATM   12  H23 UNL     1      22.925   0.601  51.312  1.00  0.00     0.210 HD
ENDBRANCH   5  11
ENDBRANCH   1   2
BRANCH   1  13
HETATM   13  C8  UNL     1      25.776   3.128  49.520  1.00  0.00     0.188 C 
BRANCH  13  14
HETATM   14  C9  UNL     1      26.415   4.404  49.094  1.00  0.00    -0.056 A 
HETATM   15  C10 UNL     1      27.670   4.627  48.739  1.00  0.00     0.011 A 
HETATM   16  C11 UNL     1      27.849   6.034  48.399  1.00  0.00    -0.065 A 
HETATM   17  C12 UNL     1      29.042   6.785  47.948  1.00  0.00     0.048 C 
HETATM   18  C13 UNL     1      26.690   6.668  48.552  1.00  0.00    -0.016 A 
HETATM   19  C14 UNL     1      25.667   5.688  49.009  1.00  0.00     0.063 A 
ENDBRANCH  13  14
ENDBRANCH   1  13
BRANCH   1  20
HETATM   20  C15 UNL     1      26.258   2.556  51.912  1.00  0.00     0.192 A 
HETATM   21  N3  UNL     1      27.581   2.499  52.047  1.00  0.00    -0.198 NA
HETATM   22  C16 UNL     1      27.996   1.803  53.095  1.00  0.00     0.171 A 
HETATM   23  C17 UNL     1      27.115   1.104  54.100  1.00  0.00     0.111 A 
HETATM   24  S1  UNL     1      25.495   1.600  53.303  1.00  0.00    -0.058 SA
BRANCH  22  25
HETATM   25  O1  UNL     1      29.410   1.828  53.114  1.00  0.00    -0.344 OA
HETATM   26  H20 UNL     1      29.928   2.693  53.165  1.00  0.00     0.219 HD
ENDBRANCH  22  25
ENDBRANCH   1  20
TORSDOF 7
ENDMDL
MODEL 6
REMARK VINA RESULT:      -6.9      2.511      5.080
REMARK  7 active torsions:
REMARK  status: ('A' for Active; 'I' for Inactive)
REMARK    1  A    between atoms: C2_2  and  C3_3 
REMARK    2  A    between atoms: N1_8  and  N2_9 
REMARK    3  A    between atoms: N2_9  and  C8_10 
REMARK    4  A    between atoms: N2_9  and  C15_17 
REMARK    5  A    between atoms: C8_10  and  C9_11 
REMARK    6  A    between atoms: C16_19  and  O1_20 
REMARK    7  A    between atoms: C18_23  and  O2_24 
ROOT
HETATM    1  N2  UNL     1      24.622   0.995  52.782  1.00  0.00    -0.242 N 
ENDROOT
BRANCH   1   2
HETATM    2  N1  UNL     1      24.245   2.304  52.911  1.00  0.00    -0.176 NA
HETATM    3  C7  UNL     1      23.450   2.993  52.208  1.00  0.00     0.065 C 
HETATM    4  C6  UNL     1      23.396   4.365  52.783  1.00  0.00     0.086 C 
HETATM    5  C18 UNL     1      22.651   2.635  51.009  1.00  0.00     0.175 C 
HETATM    6  C5  UNL     1      22.339   5.195  52.134  1.00  0.00    -0.024 C 
HETATM    7  C4  UNL     1      21.403   4.788  51.296  1.00  0.00    -0.023 C 
HETATM    8  C3  UNL     1      21.351   3.358  50.927  1.00  0.00     0.042 C 
BRANCH   8   9
HETATM    9  C2  UNL     1      20.237   2.629  51.668  1.00  0.00     0.007 C 
HETATM   10  C1  UNL     1      18.928   3.364  51.563  1.00  0.00     0.006 C 
ENDBRANCH   8   9
BRANCH   5  11
HETATM   11  O2  UNL     1      22.383   1.260  50.971  1.00  0.00    -0.389 OA
HETATM   12  H23 UNL     1      21.936   1.102  50.092  1.00  0.00     0.210 HD
ENDBRANCH   5  11
ENDBRANCH   1   2
BRANCH   1  13
HETATM   13  C8  UNL     1      25.595   0.442  51.861  1.00  0.00     0.188 C 
BRANCH  13  14
HETATM   14  C9  UNL     1      26.931   0.388  52.517  1.00  0.00    -0.056 A 
HETATM   15  C10 UNL     1      27.698  -0.663  52.753  1.00  0.00     0.011 A 
HETATM   16  C11 UNL     1      28.926  -0.245  53.421  1.00  0.00    -0.065 A 
HETATM   17  C12 UNL     1      30.093  -1.022  53.893  1.00  0.00     0.048 C 
HETATM   18  C13 UNL     1      28.898   1.074  53.590  1.00  0.00    -0.016 A 
HETATM   19  C14 UNL     1      27.624   1.601  53.030  1.00  0.00     0.063 A 
ENDBRANCH  13  14
ENDBRANCH   1  13
BRANCH   1  20
HETATM   20  C15 UNL     1      23.924   0.145  53.705  1.00  0.00     0.192 A 
HETATM   21  N3  UNL     1      22.628  -0.133  53.833  1.00  0.00    -0.198 NA
HETATM   22  C16 UNL     1      22.341  -0.975  54.815  1.00  0.00     0.171 A 
HETATM   23  C17 UNL     1      23.335  -1.613  55.753  1.00  0.00     0.111 A 
HETATM   24  S1  UNL     1      24.846  -0.799  55.006  1.00  0.00    -0.058 SA
BRANCH  22  25
HETATM   25  O1  UNL     1      20.942  -1.177  54.833  1.00  0.00    -0.344 OA
HETATM   26  H20 UNL     1      20.392  -1.025  55.666  1.00  0.00     0.219 HD
ENDBRANCH  22  25
ENDBRANCH   1  20
TORSDOF 7
ENDMDL
MODEL 7
REMARK VINA RESULT:      -6.9      8.565     11.497
REMARK  7 active torsions:
REMARK  status: ('A' for Active; 'I' for Inactive)
REMARK    1  A    between atoms: C2_2  and  C3_3 
REMARK    2  A    between atoms: N1_8  and  N2_9 
REMARK    3  A    between atoms: N2_9  and  C8_10 
REMARK    4  A    between atoms: N2_9  and  C15_17 
REMARK    5  A    between atoms: C8_10  and  C9_11 
REMARK    6  A    between atoms: C16_19  and  O1_20 
REMARK    7  A    between atoms: C18_23  and  O2_24 
ROOT
HETATM    1  N2  UNL     1      31.005   6.963  48.190  1.00  0.00    -0.242 N 
ENDROOT
BRANCH   1   2
HETATM    2  N1  UNL     1      31.612   6.550  47.035  1.00  0.00    -0.176 NA
HETATM    3  C7  UNL     1      32.527   5.694  46.859  1.00  0.00     0.065 C 
HETATM    4  C6  UNL     1      32.823   5.627  45.402  1.00  0.00     0.086 C 
HETATM    5  C18 UNL     1      33.259   4.840  47.827  1.00  0.00     0.175 C 
HETATM    6  C5  UNL     1      33.756   4.508  45.078  1.00  0.00    -0.024 C 
HETATM    7  C4  UNL     1      34.155   3.540  45.883  1.00  0.00    -0.023 C 
HETATM    8  C3  UNL     1      33.649   3.514  47.271  1.00  0.00     0.042 C 
BRANCH   8   9
HETATM    9  C2  UNL     1      32.554   2.469  47.449  1.00  0.00     0.007 C 
HETATM   10  C1  UNL     1      33.047   1.277  48.224  1.00  0.00     0.006 C 
ENDBRANCH   8   9
BRANCH   5  11
HETATM   11  O2  UNL     1      32.498   4.616  48.983  1.00  0.00    -0.389 OA
HETATM   12  H23 UNL     1      32.892   3.803  49.406  1.00  0.00     0.210 HD
ENDBRANCH   5  11
ENDBRANCH   1   2
BRANCH   1  13
HETATM   13  C8  UNL     1      31.568   7.794  49.235  1.00  0.00     0.188 C 
BRANCH  13  14
HETATM   14  C9  UNL     1      31.390   9.230  48.884  1.00  0.00    -0.056 A 
HETATM   15  C10 UNL     1      30.639  10.143  49.478  1.00  0.00     0.011 A 
HETATM   16  C11 UNL     1      30.773  11.422  48.790  1.00  0.00    -0.065 A 
HETATM   17  C12 UNL     1      30.154  12.740  49.052  1.00  0.00     0.048 C 
HETATM   18  C13 UNL     1      31.613  11.279  47.769  1.00  0.00    -0.016 A 
HETATM   19  C14 UNL     1      32.086   9.868  47.734  1.00  0.00     0.063 A 
ENDBRANCH  13  14
ENDBRANCH   1  13
BRANCH   1  20
HETATM   20  C15 UNL     1      29.660   6.471  48.290  1.00  0.00     0.192 A 
HETATM   21  N3  UNL     1      29.189   5.259  48.575  1.00  0.00    -0.198 NA
HETATM   22  C16 UNL     1      27.867   5.170  48.579  1.00  0.00     0.171 A 
HETATM   23  C17 UNL     1      26.903   6.295  48.298  1.00  0.00     0.111 A 
HETATM   24  S1  UNL     1      28.216   7.597  48.003  1.00  0.00    -0.058 SA
BRANCH  22  25
HETATM   25  O1  UNL     1      27.512   3.839  48.894  1.00  0.00    -0.344 OA
HETATM   26  H20 UNL     1      27.391   3.135  48.180  1.00  0.00     0.219 HD
ENDBRANCH  22  25
ENDBRANCH   1  20
TORSDOF 7
ENDMDL
MODEL 8
REMARK VINA RESULT:      -6.9      2.083      3.204
REMARK  7 active torsions:
REMARK  status: ('A' for Active; 'I' for Inactive)
REMARK    1  A    between atoms: C2_2  and  C3_3 
REMARK    2  A    between atoms: N1_8  and  N2_9 
REMARK    3  A    between atoms: N2_9  and  C8_10 
REMARK    4  A    between atoms: N2_9  and  C15_17 
REMARK    5  A    between atoms: C8_10  and  C9_11 
REMARK    6  A    between atoms: C16_19  and  O1_20 
REMARK    7  A    between atoms: C18_23  and  O2_24 
ROOT
HETATM    1  N2  UNL     1      23.714   1.449  52.119  1.00  0.00    -0.242 N 
ENDROOT
BRANCH   1   2
HETATM    2  N1  UNL     1      23.443   1.792  50.822  1.00  0.00    -0.176 NA
HETATM    3  C7  UNL     1      23.309   2.934  50.295  1.00  0.00     0.065 C 
HETATM    4  C6  UNL     1      23.019   2.744  48.847  1.00  0.00     0.086 C 
HETATM    5  C18 UNL     1      23.397   4.294  50.884  1.00  0.00     0.175 C 
HETATM    6  C5  UNL     1      23.034   4.040  48.106  1.00  0.00    -0.024 C 
HETATM    7  C4  UNL     1      23.436   5.215  48.556  1.00  0.00    -0.023 C 
HETATM    8  C3  UNL     1      23.937   5.314  49.942  1.00  0.00     0.042 C 
BRANCH   8   9
HETATM    9  C2  UNL     1      25.458   5.391  49.983  1.00  0.00     0.007 C 
HETATM   10  C1  UNL     1      26.009   6.129  48.793  1.00  0.00     0.006 C 
ENDBRANCH   8   9
BRANCH   5  11
HETATM   11  O2  UNL     1      24.203   4.299  52.032  1.00  0.00    -0.389 OA
HETATM   12  H23 UNL     1      24.840   5.056  51.904  1.00  0.00     0.210 HD
ENDBRANCH   5  11
ENDBRANCH   1   2
BRANCH   1  13
HETATM   13  C8  UNL     1      22.763   1.220  53.189  1.00  0.00     0.188 C 
BRANCH  13  14
HETATM   14  C9  UNL     1      21.380   1.215  52.637  1.00  0.00    -0.056 A 
HETATM   15  C10 UNL     1      20.688   0.204  52.138  1.00  0.00     0.011 A 
HETATM   16  C11 UNL     1      19.370   0.663  51.714  1.00  0.00    -0.065 A 
HETATM   17  C12 UNL     1      18.235  -0.063  51.102  1.00  0.00     0.048 C 
HETATM   18  C13 UNL     1      19.266   1.965  51.959  1.00  0.00    -0.016 A 
HETATM   19  C14 UNL     1      20.537   2.440  52.571  1.00  0.00     0.063 A 
ENDBRANCH  13  14
ENDBRANCH   1  13
BRANCH   1  20
HETATM   20  C15 UNL     1      25.124   1.323  52.354  1.00  0.00     0.192 A 
HETATM   21  N3  UNL     1      26.106   2.219  52.294  1.00  0.00    -0.198 NA
HETATM   22  C16 UNL     1      27.308   1.738  52.579  1.00  0.00     0.171 A 
HETATM   23  C17 UNL     1      27.624   0.312  52.951  1.00  0.00     0.111 A 
HETATM   24  S1  UNL     1      25.861  -0.308  52.834  1.00  0.00    -0.058 SA
BRANCH  22  25
HETATM   25  O1  UNL     1      28.245   2.792  52.477  1.00  0.00    -0.344 OA
HETATM   26  H20 UNL     1      28.884   3.011  53.226  1.00  0.00     0.219 HD
ENDBRANCH  22  25
ENDBRANCH   1  20
TORSDOF 7
ENDMDL
MODEL 9
REMARK VINA RESULT:      -6.9      2.603      5.305
REMARK  7 active torsions:
REMARK  status: ('A' for Active; 'I' for Inactive)
REMARK    1  A    between atoms: C2_2  and  C3_3 
REMARK    2  A    between atoms: N1_8  and  N2_9 
REMARK    3  A    between atoms: N2_9  and  C8_10 
REMARK    4  A    between atoms: N2_9  and  C15_17 
REMARK    5  A    between atoms: C8_10  and  C9_11 
REMARK    6  A    between atoms: C16_19  and  O1_20 
REMARK    7  A    between atoms: C18_23  and  O2_24 
ROOT
HETATM    1  N2  UNL     1      24.005   1.533  52.539  1.00  0.00    -0.242 N 
ENDROOT
BRANCH   1   2
HETATM    2  N1  UNL     1      23.710   1.738  51.218  1.00  0.00    -0.176 NA
HETATM    3  C7  UNL     1      23.472   2.813  50.596  1.00  0.00     0.065 C 
HETATM    4  C6  UNL     1      23.210   2.474  49.171  1.00  0.00     0.086 C 
HETATM    5  C18 UNL     1      23.428   4.220  51.067  1.00  0.00     0.175 C 
HETATM    6  C5  UNL     1      23.106   3.697  48.322  1.00  0.00    -0.024 C 
HETATM    7  C4  UNL     1      23.392   4.939  48.668  1.00  0.00    -0.023 C 
HETATM    8  C3  UNL     1      23.874   5.203  50.040  1.00  0.00     0.042 C 
BRANCH   8   9
HETATM    9  C2  UNL     1      25.381   5.427  50.071  1.00  0.00     0.007 C 
HETATM   10  C1  UNL     1      25.865   6.113  48.822  1.00  0.00     0.006 C 
ENDBRANCH   8   9
BRANCH   5  11
HETATM   11  O2  UNL     1      24.223   4.399  52.208  1.00  0.00    -0.389 OA
HETATM   12  H23 UNL     1      24.419   5.376  52.244  1.00  0.00     0.210 HD
ENDBRANCH   5  11
ENDBRANCH   1   2
BRANCH   1  13
HETATM   13  C8  UNL     1      25.181   1.977  53.261  1.00  0.00     0.188 C 
BRANCH  13  14
HETATM   14  C9  UNL     1      26.245   0.939  53.170  1.00  0.00    -0.056 A 
HETATM   15  C10 UNL     1      27.417   0.895  53.782  1.00  0.00     0.011 A 
HETATM   16  C11 UNL     1      28.137  -0.313  53.394  1.00  0.00    -0.065 A 
HETATM   17  C12 UNL     1      29.468  -0.825  53.790  1.00  0.00     0.048 C 
HETATM   18  C13 UNL     1      27.391  -1.005  52.538  1.00  0.00    -0.016 A 
HETATM   19  C14 UNL     1      26.115  -0.272  52.315  1.00  0.00     0.063 A 
ENDBRANCH  13  14
ENDBRANCH   1  13
BRANCH   1  20
HETATM   20  C15 UNL     1      22.975   0.787  53.206  1.00  0.00     0.192 A 
HETATM   21  N3  UNL     1      23.044  -0.251  54.036  1.00  0.00    -0.198 NA
HETATM   22  C16 UNL     1      21.869  -0.690  54.465  1.00  0.00     0.171 A 
HETATM   23  C17 UNL     1      20.523  -0.119  54.096  1.00  0.00     0.111 A 
HETATM   24  S1  UNL     1      21.190   1.223  52.974  1.00  0.00    -0.058 SA
BRANCH  22  25
HETATM   25  O1  UNL     1      22.092  -1.785  55.330  1.00  0.00    -0.344 OA
HETATM   26  H20 UNL     1      21.614  -2.666  55.210  1.00  0.00     0.219 HD
ENDBRANCH  22  25
ENDBRANCH   1  20
TORSDOF 7
ENDMDL
