MODEL 1
REMARK VINA RESULT:      -9.5      0.000      0.000
REMARK  2 active torsions:
REMARK  status: ('A' for Active; 'I' for Inactive)
REMARK    1  A    between atoms: O1_2  and  C2_3 
REMARK    2  A    between atoms: C9_12  and  O2_13 
ROOT
HETATM    1  C2  UNL     1      20.552   3.886  50.699  1.00  0.00     0.102 C 
HETATM    2  C3  UNL     1      21.443   4.598  51.452  1.00  0.00     0.059 C 
HETATM    3  C4  UNL     1      22.117   4.768  52.644  1.00  0.00     0.120 C 
HETATM    4  N1  UNL     1      23.421   4.471  52.663  1.00  0.00    -0.261 NA
HETATM    5  C5  UNL     1      23.778   3.182  52.542  1.00  0.00     0.188 C 
HETATM    6  N2  UNL     1      24.120   1.817  52.456  1.00  0.00    -0.185 NA
HETATM    7  C6  UNL     1      23.845   1.315  51.203  1.00  0.00     0.136 C 
HETATM    8  C7  UNL     1      22.496   1.088  51.251  1.00  0.00    -0.009 C 
HETATM    9  C8  UNL     1      21.677   1.736  50.364  1.00  0.00     0.050 C 
HETATM   10  C9  UNL     1      20.844   2.741  50.000  1.00  0.00     0.102 C 
HETATM   11  C11 UNL     1      21.993   0.116  52.290  1.00  0.00     0.042 C 
HETATM   12  C12 UNL     1      21.834   0.642  53.663  1.00  0.00     0.006 C 
HETATM   13  C13 UNL     1      21.343  -0.382  54.620  1.00  0.00     0.020 C 
HETATM   14  C14 UNL     1      22.084  -1.585  54.958  1.00  0.00     0.124 C 
HETATM   15  N3  UNL     1      23.368  -1.535  55.592  1.00  0.00    -0.343 N 
HETATM   16  C15 UNL     1      24.735  -1.106  55.477  1.00  0.00     0.317 C 
HETATM   17  O3  UNL     1      24.236  -0.731  54.408  1.00  0.00    -0.247 OA
HETATM   18  N4  UNL     1      26.110  -0.660  55.332  1.00  0.00    -0.330 N 
HETATM   19  C16 UNL     1      26.351   0.065  54.049  1.00  0.00     0.066 A 
HETATM   20  C17 UNL     1      26.466   1.225  54.732  1.00  0.00     0.005 A 
HETATM   21  C18 UNL     1      26.102   2.169  53.800  1.00  0.00     0.028 A 
HETATM   22  C19 UNL     1      25.743   1.720  52.551  1.00  0.00     0.160 A 
HETATM   23  C20 UNL     1      25.824   0.309  52.412  1.00  0.00     0.081 A 
HETATM   24  C21 UNL     1      26.129  -0.855  53.067  1.00  0.00     0.037 A 
HETATM   25  O4  UNL     1      25.312   1.571  51.170  1.00  0.00    -0.307 OA
HETATM   26  H19 UNL     1      23.528  -1.951  56.558  1.00  0.00     0.164 HD
HETATM   27  H20 UNL     1      26.188  -1.117  56.264  1.00  0.00     0.165 HD
ENDROOT
BRANCH   1  28
HETATM   28  O1  UNL     1      19.312   4.506  50.756  1.00  0.00    -0.353 OA
HETATM   29  C1  UNL     1      18.237   3.865  51.388  1.00  0.00     0.210 C 
ENDBRANCH   1  28
BRANCH  10  30
HETATM   30  O2  UNL     1      20.178   2.664  48.791  1.00  0.00    -0.353 OA
HETATM   31  C10 UNL     1      20.769   3.033  47.568  1.00  0.00     0.210 C 
ENDBRANCH  10  30
TORSDOF 2
ENDMDL
MODEL 2
REMARK VINA RESULT:      -8.6      2.379      6.744
REMARK  2 active torsions:
REMARK  status: ('A' for Active; 'I' for Inactive)
REMARK    1  A    between atoms: O1_2  and  C2_3 
REMARK    2  A    between atoms: C9_12  and  O2_13 
ROOT
HETATM    1  C2  UNL     1      25.433  -0.203  52.834  1.00  0.00     0.102 C 
HETATM    2  C3  UNL     1      26.268   0.727  52.281  1.00  0.00     0.059 C 
HETATM    3  C4  UNL     1      26.600   1.535  51.213  1.00  0.00     0.120 C 
HETATM    4  N1  UNL     1      26.376   2.848  51.341  1.00  0.00    -0.261 NA
HETATM    5  C5  UNL     1      25.103   3.272  51.381  1.00  0.00     0.188 C 
HETATM    6  N2  UNL     1      23.756   3.691  51.377  1.00  0.00    -0.185 NA
HETATM    7  C6  UNL     1      23.110   3.291  52.527  1.00  0.00     0.136 C 
HETATM    8  C7  UNL     1      22.817   1.978  52.276  1.00  0.00    -0.009 C 
HETATM    9  C8  UNL     1      23.323   1.010  53.104  1.00  0.00     0.050 C 
HETATM   10  C9  UNL     1      24.238   0.072  53.450  1.00  0.00     0.102 C 
HETATM   11  C11 UNL     1      21.936   1.679  51.088  1.00  0.00     0.042 C 
HETATM   12  C12 UNL     1      22.597   1.662  49.765  1.00  0.00     0.006 C 
HETATM   13  C13 UNL     1      21.656   1.367  48.654  1.00  0.00     0.020 C 
HETATM   14  C14 UNL     1      20.536   2.224  48.302  1.00  0.00     0.124 C 
HETATM   15  N3  UNL     1      20.722   3.573  47.855  1.00  0.00    -0.343 N 
HETATM   16  C15 UNL     1      21.208   4.882  48.193  1.00  0.00     0.317 C 
HETATM   17  O3  UNL     1      21.440   4.227  49.218  1.00  0.00    -0.247 OA
HETATM   18  N4  UNL     1      21.708   6.194  48.565  1.00  0.00    -0.330 N 
HETATM   19  C16 UNL     1      22.305   6.219  49.935  1.00  0.00     0.066 A 
HETATM   20  C17 UNL     1      23.536   6.344  49.390  1.00  0.00     0.005 A 
HETATM   21  C18 UNL     1      24.354   5.800  50.354  1.00  0.00     0.028 A 
HETATM   22  C19 UNL     1      23.757   5.316  51.493  1.00  0.00     0.160 A 
HETATM   23  C20 UNL     1      22.346   5.472  51.501  1.00  0.00     0.081 A 
HETATM   24  C21 UNL     1      21.275   5.936  50.783  1.00  0.00     0.037 A 
HETATM   25  O4  UNL     1      23.438   4.722  52.781  1.00  0.00    -0.307 OA
HETATM   26  H19 UNL     1      20.420   3.883  46.882  1.00  0.00     0.164 HD
HETATM   27  H20 UNL     1      21.358   6.421  47.612  1.00  0.00     0.165 HD
ENDROOT
BRANCH   1  28
HETATM   28  O1  UNL     1      25.989  -1.465  52.672  1.00  0.00    -0.353 OA
HETATM   29  C1  UNL     1      27.367  -1.650  52.852  1.00  0.00     0.210 C 
ENDBRANCH   1  28
BRANCH  10  30
HETATM   30  O2  UNL     1      23.998  -0.736  54.545  1.00  0.00    -0.353 OA
HETATM   31  C10 UNL     1      22.707  -1.164  54.912  1.00  0.00     0.210 C 
ENDBRANCH  10  30
TORSDOF 2
ENDMDL
MODEL 3
REMARK VINA RESULT:      -8.3      2.752      4.967
REMARK  2 active torsions:
REMARK  status: ('A' for Active; 'I' for Inactive)
REMARK    1  A    between atoms: O1_2  and  C2_3 
REMARK    2  A    between atoms: C9_12  and  O2_13 
ROOT
HETATM    1  C2  UNL     1      24.349   5.355  49.471  1.00  0.00     0.102 C 
HETATM    2  C3  UNL     1      23.460   4.588  48.771  1.00  0.00     0.059 C 
HETATM    3  C4  UNL     1      22.982   3.339  48.433  1.00  0.00     0.120 C 
HETATM    4  N1  UNL     1      21.807   2.968  48.954  1.00  0.00    -0.261 NA
HETATM    5  C5  UNL     1      21.745   2.733  50.275  1.00  0.00     0.188 C 
HETATM    6  N2  UNL     1      21.722   2.453  51.656  1.00  0.00    -0.185 NA
HETATM    7  C6  UNL     1      21.886   3.602  52.397  1.00  0.00     0.136 C 
HETATM    8  C7  UNL     1      23.238   3.810  52.351  1.00  0.00    -0.009 C 
HETATM    9  C8  UNL     1      23.717   4.973  51.806  1.00  0.00     0.050 C 
HETATM   10  C9  UNL     1      24.217   5.716  50.789  1.00  0.00     0.102 C 
HETATM   11  C11 UNL     1      24.125   2.730  52.917  1.00  0.00     0.042 C 
HETATM   12  C12 UNL     1      24.392   1.568  52.041  1.00  0.00     0.006 C 
HETATM   13  C13 UNL     1      25.267   0.552  52.680  1.00  0.00     0.020 C 
HETATM   14  C14 UNL     1      24.897  -0.187  53.876  1.00  0.00     0.124 C 
HETATM   15  N3  UNL     1      23.766  -1.067  53.907  1.00  0.00    -0.343 N 
HETATM   16  C15 UNL     1      22.338  -1.173  53.783  1.00  0.00     0.317 C 
HETATM   17  O3  UNL     1      22.543   0.035  53.604  1.00  0.00    -0.247 OA
HETATM   18  N4  UNL     1      20.893  -1.248  53.652  1.00  0.00    -0.330 N 
HETATM   19  C16 UNL     1      20.272   0.072  53.333  1.00  0.00     0.066 A 
HETATM   20  C17 UNL     1      20.008  -0.361  52.080  1.00  0.00     0.005 A 
HETATM   21  C18 UNL     1      19.976   0.806  51.351  1.00  0.00     0.028 A 
HETATM   22  C19 UNL     1      20.207   1.981  52.026  1.00  0.00     0.160 A 
HETATM   23  C20 UNL     1      20.436   1.799  53.416  1.00  0.00     0.081 A 
HETATM   24  C21 UNL     1      20.529   0.864  54.413  1.00  0.00     0.037 A 
HETATM   25  O4  UNL     1      20.416   3.359  52.437  1.00  0.00    -0.307 OA
HETATM   26  H19 UNL     1      23.877  -2.110  54.087  1.00  0.00     0.164 HD
HETATM   27  H20 UNL     1      21.087  -2.248  53.866  1.00  0.00     0.165 HD
ENDROOT
BRANCH   1  28
HETATM   28  O1  UNL     1      25.401   5.707  48.637  1.00  0.00    -0.353 OA
HETATM   29  C1  UNL     1      26.686   5.202  48.880  1.00  0.00     0.210 C 
ENDBRANCH   1  28
BRANCH  10  30
HETATM   30  O2  UNL     1      24.663   6.999  51.043  1.00  0.00    -0.353 OA
HETATM   31  C10 UNL     1      23.983   8.148  50.595  1.00  0.00     0.210 C 
ENDBRANCH  10  30
TORSDOF 2
ENDMDL
MODEL 4
REMARK VINA RESULT:      -7.7     10.492     12.489
REMARK  2 active torsions:
REMARK  status: ('A' for Active; 'I' for Inactive)
REMARK    1  A    between atoms: O1_2  and  C2_3 
REMARK    2  A    between atoms: C9_12  and  O2_13 
ROOT
HETATM    1  C2  UNL     1      29.081   9.537  48.198  1.00  0.00     0.102 C 
HETATM    2  C3  UNL     1      28.605   8.259  48.106  1.00  0.00     0.059 C 
HETATM    3  C4  UNL     1      28.530   7.070  47.409  1.00  0.00     0.120 C 
HETATM    4  N1  UNL     1      29.211   6.026  47.895  1.00  0.00    -0.261 NA
HETATM    5  C5  UNL     1      30.552   6.070  47.852  1.00  0.00     0.188 C 
HETATM    6  N2  UNL     1      31.958   6.127  47.753  1.00  0.00    -0.185 NA
HETATM    7  C6  UNL     1      32.475   7.083  48.599  1.00  0.00     0.136 C 
HETATM    8  C7  UNL     1      32.270   8.248  47.911  1.00  0.00    -0.009 C 
HETATM    9  C8  UNL     1      31.495   9.229  48.474  1.00  0.00     0.050 C 
HETATM   10  C9  UNL     1      30.325   9.887  48.661  1.00  0.00     0.102 C 
HETATM   11  C11 UNL     1      32.928   8.381  46.560  1.00  0.00     0.042 C 
HETATM   12  C12 UNL     1      32.240   7.727  45.425  1.00  0.00     0.006 C 
HETATM   13  C13 UNL     1      32.959   7.902  44.137  1.00  0.00     0.020 C 
HETATM   14  C14 UNL     1      34.292   7.379  43.885  1.00  0.00     0.124 C 
HETATM   15  N3  UNL     1      34.575   5.974  43.912  1.00  0.00    -0.343 N 
HETATM   16  C15 UNL     1      34.603   4.781  44.713  1.00  0.00     0.317 C 
HETATM   17  O3  UNL     1      34.204   5.641  45.509  1.00  0.00    -0.247 OA
HETATM   18  N4  UNL     1      34.620   3.593  45.548  1.00  0.00    -0.330 N 
HETATM   19  C16 UNL     1      34.140   3.856  46.938  1.00  0.00     0.066 A 
HETATM   20  C17 UNL     1      33.008   3.167  46.672  1.00  0.00     0.005 A 
HETATM   21  C18 UNL     1      32.098   3.720  47.543  1.00  0.00     0.028 A 
HETATM   22  C19 UNL     1      32.540   4.733  48.362  1.00  0.00     0.160 A 
HETATM   23  C20 UNL     1      33.913   5.045  48.183  1.00  0.00     0.081 A 
HETATM   24  C21 UNL     1      35.042   4.727  47.474  1.00  0.00     0.037 A 
HETATM   25  O4  UNL     1      32.690   5.804  49.333  1.00  0.00    -0.307 OA
HETATM   26  H19 UNL     1      34.919   5.459  43.046  1.00  0.00     0.164 HD
HETATM   27  H20 UNL     1      34.981   3.174  44.667  1.00  0.00     0.165 HD
ENDROOT
BRANCH   1  28
HETATM   28  O1  UNL     1      28.106  10.418  47.751  1.00  0.00    -0.353 OA
HETATM   29  C1  UNL     1      28.217  10.996  46.479  1.00  0.00     0.210 C 
ENDBRANCH   1  28
BRANCH  10  30
HETATM   30  O2  UNL     1      30.316  11.056  49.397  1.00  0.00    -0.353 OA
HETATM   31  C10 UNL     1      30.917  12.247  48.949  1.00  0.00     0.210 C 
ENDBRANCH  10  30
TORSDOF 2
ENDMDL
MODEL 5
REMARK VINA RESULT:      -7.6      9.714     11.655
REMARK  2 active torsions:
REMARK  status: ('A' for Active; 'I' for Inactive)
REMARK    1  A    between atoms: O1_2  and  C2_3 
REMARK    2  A    between atoms: C9_12  and  O2_13 
ROOT
HETATM    1  C2  UNL     1      27.271   8.452  48.642  1.00  0.00     0.102 C 
HETATM    2  C3  UNL     1      27.374   7.090  48.701  1.00  0.00     0.059 C 
HETATM    3  C4  UNL     1      27.766   5.905  48.114  1.00  0.00     0.120 C 
HETATM    4  N1  UNL     1      28.852   5.301  48.610  1.00  0.00    -0.261 NA
HETATM    5  C5  UNL     1      30.044   5.890  48.428  1.00  0.00     0.188 C 
HETATM    6  N2  UNL     1      31.286   6.512  48.182  1.00  0.00    -0.185 NA
HETATM    7  C6  UNL     1      31.400   7.686  48.892  1.00  0.00     0.136 C 
HETATM    8  C7  UNL     1      30.683   8.574  48.137  1.00  0.00    -0.009 C 
HETATM    9  C8  UNL     1      29.601   9.204  48.695  1.00  0.00     0.050 C 
HETATM   10  C9  UNL     1      28.276   9.336  48.947  1.00  0.00     0.102 C 
HETATM   11  C11 UNL     1      31.143   8.811  46.720  1.00  0.00     0.042 C 
HETATM   12  C12 UNL     1      30.730   7.805  45.717  1.00  0.00     0.006 C 
HETATM   13  C13 UNL     1      31.232   8.112  44.353  1.00  0.00     0.020 C 
HETATM   14  C14 UNL     1      32.643   8.161  44.009  1.00  0.00     0.124 C 
HETATM   15  N3  UNL     1      33.494   7.013  44.120  1.00  0.00    -0.343 N 
HETATM   16  C15 UNL     1      34.069   6.040  45.007  1.00  0.00     0.317 C 
HETATM   17  O3  UNL     1      33.392   6.743  45.769  1.00  0.00    -0.247 OA
HETATM   18  N4  UNL     1      34.635   5.070  45.929  1.00  0.00    -0.330 N 
HETATM   19  C16 UNL     1      34.171   5.269  47.335  1.00  0.00     0.066 A 
HETATM   20  C17 UNL     1      33.422   4.148  47.241  1.00  0.00     0.005 A 
HETATM   21  C18 UNL     1      32.416   4.372  48.153  1.00  0.00     0.028 A 
HETATM   22  C19 UNL     1      32.436   5.563  48.839  1.00  0.00     0.160 A 
HETATM   23  C20 UNL     1      33.537   6.393  48.497  1.00  0.00     0.081 A 
HETATM   24  C21 UNL     1      34.651   6.491  47.705  1.00  0.00     0.037 A 
HETATM   25  O4  UNL     1      32.177   6.705  49.700  1.00  0.00    -0.307 OA
HETATM   26  H19 UNL     1      33.972   6.590  43.268  1.00  0.00     0.164 HD
HETATM   27  H20 UNL     1      35.086   4.739  45.052  1.00  0.00     0.165 HD
ENDROOT
BRANCH   1  28
HETATM   28  O1  UNL     1      25.991   8.793  48.227  1.00  0.00    -0.353 OA
HETATM   29  C1  UNL     1      25.707   8.908  46.859  1.00  0.00     0.210 C 
ENDBRANCH   1  28
BRANCH  10  30
HETATM   30  O2  UNL     1      27.817  10.473  49.585  1.00  0.00    -0.353 OA
HETATM   31  C10 UNL     1      27.856  11.750  48.993  1.00  0.00     0.210 C 
ENDBRANCH  10  30
TORSDOF 2
ENDMDL
MODEL 6
REMARK VINA RESULT:      -7.4      3.864      6.079
REMARK  2 active torsions:
REMARK  status: ('A' for Active; 'I' for Inactive)
REMARK    1  A    between atoms: O1_2  and  C2_3 
REMARK    2  A    between atoms: C9_12  and  O2_13 
ROOT
HETATM    1  C2  UNL     1      24.221   8.403  49.117  1.00  0.00     0.102 C 
HETATM    2  C3  UNL     1      23.045   8.445  49.813  1.00  0.00     0.059 C 
HETATM    3  C4  UNL     1      21.770   7.959  50.016  1.00  0.00     0.120 C 
HETATM    4  N1  UNL     1      21.564   7.201  51.099  1.00  0.00    -0.261 NA
HETATM    5  C5  UNL     1      22.131   5.985  51.137  1.00  0.00     0.188 C 
HETATM    6  N2  UNL     1      22.703   4.696  51.129  1.00  0.00    -0.185 NA
HETATM    7  C6  UNL     1      24.075   4.763  51.222  1.00  0.00     0.136 C 
HETATM    8  C7  UNL     1      24.457   5.060  49.941  1.00  0.00    -0.009 C 
HETATM    9  C8  UNL     1      25.154   6.216  49.703  1.00  0.00     0.050 C 
HETATM   10  C9  UNL     1      25.247   7.520  49.348  1.00  0.00     0.102 C 
HETATM   11  C11 UNL     1      24.086   4.074  48.861  1.00  0.00     0.042 C 
HETATM   12  C12 UNL     1      22.703   4.155  48.342  1.00  0.00     0.006 C 
HETATM   13  C13 UNL     1      22.422   3.146  47.289  1.00  0.00     0.020 C 
HETATM   14  C14 UNL     1      22.459   1.712  47.522  1.00  0.00     0.124 C 
HETATM   15  N3  UNL     1      21.574   1.069  48.447  1.00  0.00    -0.343 N 
HETATM   16  C15 UNL     1      21.160   0.961  49.819  1.00  0.00     0.317 C 
HETATM   17  O3  UNL     1      22.054   1.815  49.865  1.00  0.00    -0.247 OA
HETATM   18  N4  UNL     1      20.765   0.874  51.214  1.00  0.00    -0.330 N 
HETATM   19  C16 UNL     1      21.518   1.822  52.089  1.00  0.00     0.066 A 
HETATM   20  C17 UNL     1      20.400   2.570  52.232  1.00  0.00     0.005 A 
HETATM   21  C18 UNL     1      20.901   3.825  52.490  1.00  0.00     0.028 A 
HETATM   22  C19 UNL     1      22.268   3.968  52.521  1.00  0.00     0.160 A 
HETATM   23  C20 UNL     1      22.968   2.755  52.287  1.00  0.00     0.081 A 
HETATM   24  C21 UNL     1      22.819   1.419  52.023  1.00  0.00     0.037 A 
HETATM   25  O4  UNL     1      23.640   4.440  52.610  1.00  0.00    -0.307 OA
HETATM   26  H19 UNL     1      20.868   0.339  48.126  1.00  0.00     0.164 HD
HETATM   27  H20 UNL     1      20.127   0.151  50.822  1.00  0.00     0.165 HD
ENDROOT
BRANCH   1  28
HETATM   28  O1  UNL     1      24.208   9.393  48.144  1.00  0.00    -0.353 OA
HETATM   29  C1  UNL     1      23.998   9.051  46.801  1.00  0.00     0.210 C 
ENDBRANCH   1  28
BRANCH  10  30
HETATM   30  O2  UNL     1      26.494   8.090  49.182  1.00  0.00    -0.353 OA
HETATM   31  C10 UNL     1      27.086   8.930  50.145  1.00  0.00     0.210 C 
ENDBRANCH  10  30
TORSDOF 2
ENDMDL
MODEL 7
REMARK VINA RESULT:      -7.2      9.894     12.825
REMARK  2 active torsions:
REMARK  status: ('A' for Active; 'I' for Inactive)
REMARK    1  A    between atoms: O1_2  and  C2_3 
REMARK    2  A    between atoms: C9_12  and  O2_13 
ROOT
HETATM    1  C2  UNL     1      30.448   5.816  48.497  1.00  0.00     0.102 C 
HETATM    2  C3  UNL     1      31.180   6.808  49.088  1.00  0.00     0.059 C 
HETATM    3  C4  UNL     1      31.870   7.998  48.977  1.00  0.00     0.120 C 
HETATM    4  N1  UNL     1      31.293   9.094  49.481  1.00  0.00    -0.261 NA
HETATM    5  C5  UNL     1      30.196   9.570  48.870  1.00  0.00     0.188 C 
HETATM    6  N2  UNL     1      29.072  10.071  48.181  1.00  0.00    -0.185 NA
HETATM    7  C6  UNL     1      27.992   9.227  48.318  1.00  0.00     0.136 C 
HETATM    8  C7  UNL     1      28.251   8.242  47.403  1.00  0.00    -0.009 C 
HETATM    9  C8  UNL     1      28.380   6.947  47.834  1.00  0.00     0.050 C 
HETATM   10  C9  UNL     1      29.102   5.873  48.235  1.00  0.00     0.102 C 
HETATM   11  C11 UNL     1      28.372   8.654  45.957  1.00  0.00     0.042 C 
HETATM   12  C12 UNL     1      29.672   9.222  45.540  1.00  0.00     0.006 C 
HETATM   13  C13 UNL     1      29.701   9.605  44.105  1.00  0.00     0.020 C 
HETATM   14  C14 UNL     1      28.847  10.633  43.532  1.00  0.00     0.124 C 
HETATM   15  N3  UNL     1      28.918  12.001  43.953  1.00  0.00    -0.343 N 
HETATM   16  C15 UNL     1      28.753  12.920  45.046  1.00  0.00     0.317 C 
HETATM   17  O3  UNL     1      28.478  11.827  45.558  1.00  0.00    -0.247 OA
HETATM   18  N4  UNL     1      28.579  13.823  46.170  1.00  0.00    -0.330 N 
HETATM   19  C16 UNL     1      28.201  13.114  47.429  1.00  0.00     0.066 A 
HETATM   20  C17 UNL     1      29.431  13.364  47.932  1.00  0.00     0.005 A 
HETATM   21  C18 UNL     1      29.610  12.338  48.832  1.00  0.00     0.028 A 
HETATM   22  C19 UNL     1      28.594  11.421  48.957  1.00  0.00     0.160 A 
HETATM   23  C20 UNL     1      27.479  11.695  48.122  1.00  0.00     0.081 A 
HETATM   24  C21 UNL     1      26.982  12.556  47.179  1.00  0.00     0.037 A 
HETATM   25  O4  UNL     1      27.727  10.308  49.309  1.00  0.00    -0.307 OA
HETATM   26  H19 UNL     1      29.196  12.777  43.279  1.00  0.00     0.164 HD
HETATM   27  H20 UNL     1      28.829  14.522  45.441  1.00  0.00     0.165 HD
ENDROOT
BRANCH   1  28
HETATM   28  O1  UNL     1      31.285   4.747  48.207  1.00  0.00    -0.353 OA
HETATM   29  C1  UNL     1      32.099   4.785  47.067  1.00  0.00     0.210 C 
ENDBRANCH   1  28
BRANCH  10  30
HETATM   30  O2  UNL     1      28.466   4.661  48.422  1.00  0.00    -0.353 OA
HETATM   31  C10 UNL     1      27.168   4.553  48.958  1.00  0.00     0.210 C 
ENDBRANCH  10  30
TORSDOF 2
ENDMDL
MODEL 8
REMARK VINA RESULT:      -7.0      3.368      5.861
REMARK  2 active torsions:
REMARK  status: ('A' for Active; 'I' for Inactive)
REMARK    1  A    between atoms: O1_2  and  C2_3 
REMARK    2  A    between atoms: C9_12  and  O2_13 
ROOT
HETATM    1  C2  UNL     1      19.511   7.329  48.451  1.00  0.00     0.102 C 
HETATM    2  C3  UNL     1      19.288   5.993  48.272  1.00  0.00     0.059 C 
HETATM    3  C4  UNL     1      19.773   4.745  47.938  1.00  0.00     0.120 C 
HETATM    4  N1  UNL     1      19.941   3.863  48.929  1.00  0.00    -0.261 NA
HETATM    5  C5  UNL     1      20.911   4.097  49.827  1.00  0.00     0.188 C 
HETATM    6  N2  UNL     1      21.965   4.348  50.729  1.00  0.00    -0.185 NA
HETATM    7  C6  UNL     1      21.692   5.445  51.516  1.00  0.00     0.136 C 
HETATM    8  C7  UNL     1      21.998   6.497  50.696  1.00  0.00    -0.009 C 
HETATM    9  C8  UNL     1      21.019   7.404  50.380  1.00  0.00     0.050 C 
HETATM   10  C9  UNL     1      20.042   7.899  49.582  1.00  0.00     0.102 C 
HETATM   11  C11 UNL     1      23.416   6.595  50.193  1.00  0.00     0.042 C 
HETATM   12  C12 UNL     1      23.765   5.744  49.034  1.00  0.00     0.006 C 
HETATM   13  C13 UNL     1      25.180   5.898  48.610  1.00  0.00     0.020 C 
HETATM   14  C14 UNL     1      26.313   5.553  49.453  1.00  0.00     0.124 C 
HETATM   15  N3  UNL     1      26.541   4.213  49.909  1.00  0.00    -0.343 N 
HETATM   16  C15 UNL     1      26.031   3.119  50.689  1.00  0.00     0.317 C 
HETATM   17  O3  UNL     1      25.155   3.983  50.818  1.00  0.00    -0.247 OA
HETATM   18  N4  UNL     1      25.490   2.031  51.484  1.00  0.00    -0.330 N 
HETATM   19  C16 UNL     1      24.155   2.351  52.072  1.00  0.00     0.066 A 
HETATM   20  C17 UNL     1      23.575   1.483  51.214  1.00  0.00     0.005 A 
HETATM   21  C18 UNL     1      22.297   1.978  51.091  1.00  0.00     0.028 A 
HETATM   22  C19 UNL     1      21.989   3.117  51.796  1.00  0.00     0.160 A 
HETATM   23  C20 UNL     1      23.069   3.608  52.577  1.00  0.00     0.081 A 
HETATM   24  C21 UNL     1      24.376   3.391  52.925  1.00  0.00     0.037 A 
HETATM   25  O4  UNL     1      21.365   4.286  52.394  1.00  0.00    -0.307 OA
HETATM   26  H19 UNL     1      27.416   3.674  49.634  1.00  0.00     0.164 HD
HETATM   27  H20 UNL     1      26.385   1.587  51.194  1.00  0.00     0.165 HD
ENDROOT
BRANCH   1  28
HETATM   28  O1  UNL     1      19.115   8.013  47.310  1.00  0.00    -0.353 OA
HETATM   29  C1  UNL     1      17.758   8.062  46.960  1.00  0.00     0.210 C 
ENDBRANCH   1  28
BRANCH  10  30
HETATM   30  O2  UNL     1      19.471   9.119  49.889  1.00  0.00    -0.353 OA
HETATM   31  C10 UNL     1      20.070  10.349  49.557  1.00  0.00     0.210 C 
ENDBRANCH  10  30
TORSDOF 2
ENDMDL
MODEL 9
REMARK VINA RESULT:      -7.0      4.050      6.687
REMARK  2 active torsions:
REMARK  status: ('A' for Active; 'I' for Inactive)
REMARK    1  A    between atoms: O1_2  and  C2_3 
REMARK    2  A    between atoms: C9_12  and  O2_13 
ROOT
HETATM    1  C2  UNL     1      19.222   2.123  50.455  1.00  0.00     0.102 C 
HETATM    2  C3  UNL     1      20.391   1.464  50.190  1.00  0.00     0.059 C 
HETATM    3  C4  UNL     1      21.519   1.321  49.409  1.00  0.00     0.120 C 
HETATM    4  N1  UNL     1      22.685   1.715  49.933  1.00  0.00    -0.261 NA
HETATM    5  C5  UNL     1      22.879   3.029  50.129  1.00  0.00     0.188 C 
HETATM    6  N2  UNL     1      23.070   4.418  50.283  1.00  0.00    -0.185 NA
HETATM    7  C6  UNL     1      22.256   4.922  51.272  1.00  0.00     0.136 C 
HETATM    8  C7  UNL     1      21.046   5.047  50.643  1.00  0.00    -0.009 C 
HETATM    9  C8  UNL     1      19.966   4.357  51.129  1.00  0.00     0.050 C 
HETATM   10  C9  UNL     1      19.118   3.301  51.153  1.00  0.00     0.102 C 
HETATM   11  C11 UNL     1      20.981   5.957  49.442  1.00  0.00     0.042 C 
HETATM   12  C12 UNL     1      21.457   5.392  48.160  1.00  0.00     0.006 C 
HETATM   13  C13 UNL     1      21.363   6.357  47.035  1.00  0.00     0.020 C 
HETATM   14  C14 UNL     1      22.105   7.605  46.984  1.00  0.00     0.124 C 
HETATM   15  N3  UNL     1      23.538   7.638  46.961  1.00  0.00    -0.343 N 
HETATM   16  C15 UNL     1      24.746   7.316  47.668  1.00  0.00     0.317 C 
HETATM   17  O3  UNL     1      23.861   6.927  48.441  1.00  0.00    -0.247 OA
HETATM   18  N4  UNL     1      25.950   6.978  48.407  1.00  0.00    -0.330 N 
HETATM   19  C16 UNL     1      25.660   6.299  49.706  1.00  0.00     0.066 A 
HETATM   20  C17 UNL     1      26.126   5.137  49.197  1.00  0.00     0.005 A 
HETATM   21  C18 UNL     1      25.453   4.188  49.931  1.00  0.00     0.028 A 
HETATM   22  C19 UNL     1      24.569   4.633  50.884  1.00  0.00     0.160 A 
HETATM   23  C20 UNL     1      24.499   6.049  50.972  1.00  0.00     0.081 A 
HETATM   24  C21 UNL     1      24.986   7.220  50.452  1.00  0.00     0.037 A 
HETATM   25  O4  UNL     1      23.580   4.779  51.940  1.00  0.00    -0.307 OA
HETATM   26  H19 UNL     1      24.072   8.045  46.135  1.00  0.00     0.164 HD
HETATM   27  H20 UNL     1      26.392   7.420  47.576  1.00  0.00     0.165 HD
ENDROOT
BRANCH   1  28
HETATM   28  O1  UNL     1      18.165   1.410  49.907  1.00  0.00    -0.353 OA
HETATM   29  C1  UNL     1      17.790   0.178  50.461  1.00  0.00     0.210 C 
ENDBRANCH   1  28
BRANCH  10  30
HETATM   30  O2  UNL     1      17.996   3.351  51.957  1.00  0.00    -0.353 OA
HETATM   31  C10 UNL     1      16.835   4.068  51.607  1.00  0.00     0.210 C 
ENDBRANCH  10  30
TORSDOF 2
ENDMDL
