MODEL 1
REMARK VINA RESULT:      -8.0      0.000      0.000
REMARK  8 active torsions:
REMARK  status: ('A' for Active; 'I' for Inactive)
REMARK    1  A    between atoms: O1_1  and  C1_2 
REMARK    2  A    between atoms: C1_2  and  C2_3 
REMARK    3  A    between atoms: C2_3  and  C3_4 
REMARK    4  A    between atoms: C3_4  and  C4_5 
REMARK    5  A    between atoms: C4_5  and  C5_6 
REMARK    6  A    between atoms: C5_6  and  C6_7 
REMARK    7  A    between atoms: C6_7  and  C7_8 
REMARK    8  A    between atoms: C12_13  and  O2_14 
ROOT
HETATM    1  C7  UNL     1      25.766   1.652  52.865  1.00  0.00    -0.062 C 
HETATM    2  C8  UNL     1      24.578   2.142  52.649  1.00  0.00    -0.015 C 
HETATM    3  C9  UNL     1      23.143   2.367  52.686  1.00  0.00     0.067 C 
HETATM    4  C10 UNL     1      22.396   1.826  51.522  1.00  0.00    -0.046 A 
HETATM    5  C11 UNL     1      22.847   2.238  50.294  1.00  0.00     0.044 A 
HETATM    6  C12 UNL     1      22.331   1.865  49.078  1.00  0.00     0.066 A 
HETATM    7  C13 UNL     1      21.253   0.990  49.117  1.00  0.00     0.037 A 
HETATM    8  C14 UNL     1      20.783   0.564  50.339  1.00  0.00     0.010 A 
HETATM    9  C15 UNL     1      21.310   0.945  51.574  1.00  0.00    -0.049 A 
HETATM   10  C16 UNL     1      20.567   0.324  52.670  1.00  0.00     0.065 C 
HETATM   11  C17 UNL     1      21.283   0.253  53.994  1.00  0.00     0.172 C 
HETATM   12  O3  UNL     1      22.302  -0.400  54.234  1.00  0.00    -0.387 OA
HETATM   13  C18 UNL     1      23.336  -1.063  54.477  1.00  0.00     0.195 C 
HETATM   14  C19 UNL     1      24.677  -0.547  54.110  1.00  0.00    -0.000 C 
HETATM   15  C20 UNL     1      25.163   0.509  53.514  1.00  0.00     0.005 C 
ENDROOT
BRANCH   1  16
HETATM   16  C6  UNL     1      27.180   1.902  52.472  1.00  0.00     0.038 C 
BRANCH  16  17
HETATM   17  C5  UNL     1      28.093   2.132  53.618  1.00  0.00     0.005 C 
BRANCH  17  18
HETATM   18  C4  UNL     1      29.263   1.236  53.774  1.00  0.00     0.000 C 
BRANCH  18  19
HETATM   19  C3  UNL     1      28.792  -0.155  54.181  1.00  0.00     0.002 C 
BRANCH  19  20
HETATM   20  C2  UNL     1      29.403  -1.260  53.386  1.00  0.00     0.026 C 
BRANCH  20  21
HETATM   21  C1  UNL     1      28.293  -2.225  52.988  1.00  0.00     0.164 C 
BRANCH  21  22
HETATM   22  O1  UNL     1      28.554  -3.527  53.370  1.00  0.00    -0.401 OA
HETATM   23  H1  UNL     1      29.157  -3.991  52.732  1.00  0.00     0.209 HD
ENDBRANCH  21  22
ENDBRANCH  20  21
ENDBRANCH  19  20
ENDBRANCH  18  19
ENDBRANCH  17  18
ENDBRANCH  16  17
ENDBRANCH   1  16
BRANCH   6  24
HETATM   24  O2  UNL     1      22.835   2.318  47.889  1.00  0.00    -0.361 OA
HETATM   25  H18 UNL     1      22.500   1.927  47.001  1.00  0.00     0.217 HD
ENDBRANCH   6  24
TORSDOF 8
ENDMDL
MODEL 2
REMARK VINA RESULT:      -7.9      1.640      3.633
REMARK  8 active torsions:
REMARK  status: ('A' for Active; 'I' for Inactive)
REMARK    1  A    between atoms: O1_1  and  C1_2 
REMARK    2  A    between atoms: C1_2  and  C2_3 
REMARK    3  A    between atoms: C2_3  and  C3_4 
REMARK    4  A    between atoms: C3_4  and  C4_5 
REMARK    5  A    between atoms: C4_5  and  C5_6 
REMARK    6  A    between atoms: C5_6  and  C6_7 
REMARK    7  A    between atoms: C6_7  and  C7_8 
REMARK    8  A    between atoms: C12_13  and  O2_14 
ROOT
HETATM    1  C7  UNL     1      25.133   2.274  53.117  1.00  0.00    -0.062 C 
HETATM    2  C8  UNL     1      24.347   1.445  52.490  1.00  0.00    -0.015 C 
HETATM    3  C9  UNL     1      23.269   0.894  51.687  1.00  0.00     0.067 C 
HETATM    4  C10 UNL     1      22.140   0.325  52.464  1.00  0.00    -0.046 A 
HETATM    5  C11 UNL     1      22.487  -0.623  53.393  1.00  0.00     0.044 A 
HETATM    6  C12 UNL     1      21.626  -1.280  54.236  1.00  0.00     0.066 A 
HETATM    7  C13 UNL     1      20.284  -0.940  54.122  1.00  0.00     0.037 A 
HETATM    8  C14 UNL     1      19.912   0.008  53.196  1.00  0.00     0.010 A 
HETATM    9  C15 UNL     1      20.791   0.675  52.340  1.00  0.00    -0.049 A 
HETATM   10  C16 UNL     1      20.066   1.604  51.472  1.00  0.00     0.065 C 
HETATM   11  C17 UNL     1      20.888   2.705  50.854  1.00  0.00     0.172 C 
HETATM   12  O3  UNL     1      21.454   3.618  51.461  1.00  0.00    -0.387 OA
HETATM   13  C18 UNL     1      22.027   4.543  52.079  1.00  0.00     0.195 C 
HETATM   14  C19 UNL     1      23.341   4.327  52.731  1.00  0.00    -0.000 C 
HETATM   15  C20 UNL     1      24.171   3.332  52.898  1.00  0.00     0.005 C 
ENDROOT
BRANCH   1  16
HETATM   16  C6  UNL     1      26.367   2.251  53.949  1.00  0.00     0.038 C 
BRANCH  16  17
HETATM   17  C5  UNL     1      27.568   1.756  53.234  1.00  0.00     0.005 C 
BRANCH  17  18
HETATM   18  C4  UNL     1      27.886   0.310  53.313  1.00  0.00     0.000 C 
BRANCH  18  19
HETATM   19  C3  UNL     1      29.366   0.128  53.625  1.00  0.00     0.002 C 
BRANCH  19  20
HETATM   20  C2  UNL     1      29.808  -1.297  53.659  1.00  0.00     0.026 C 
BRANCH  20  21
HETATM   21  C1  UNL     1      28.702  -2.150  53.049  1.00  0.00     0.164 C 
BRANCH  21  22
HETATM   22  O1  UNL     1      28.752  -3.466  53.465  1.00  0.00    -0.401 OA
HETATM   23  H1  UNL     1      29.024  -3.548  54.416  1.00  0.00     0.209 HD
ENDBRANCH  21  22
ENDBRANCH  20  21
ENDBRANCH  19  20
ENDBRANCH  18  19
ENDBRANCH  17  18
ENDBRANCH  16  17
ENDBRANCH   1  16
BRANCH   6  24
HETATM   24  O2  UNL     1      22.047  -2.217  55.140  1.00  0.00    -0.361 OA
HETATM   25  H18 UNL     1      21.576  -3.127  55.201  1.00  0.00     0.217 HD
ENDBRANCH   6  24
TORSDOF 8
ENDMDL
MODEL 3
REMARK VINA RESULT:      -7.8      2.569      4.305
REMARK  8 active torsions:
REMARK  status: ('A' for Active; 'I' for Inactive)
REMARK    1  A    between atoms: O1_1  and  C1_2 
REMARK    2  A    between atoms: C1_2  and  C2_3 
REMARK    3  A    between atoms: C2_3  and  C3_4 
REMARK    4  A    between atoms: C3_4  and  C4_5 
REMARK    5  A    between atoms: C4_5  and  C5_6 
REMARK    6  A    between atoms: C5_6  and  C6_7 
REMARK    7  A    between atoms: C6_7  and  C7_8 
REMARK    8  A    between atoms: C12_13  and  O2_14 
ROOT
HETATM    1  C7  UNL     1      22.983   0.454  52.928  1.00  0.00    -0.062 C 
HETATM    2  C8  UNL     1      23.073   1.743  52.761  1.00  0.00    -0.015 C 
HETATM    3  C9  UNL     1      22.806   3.110  52.347  1.00  0.00     0.067 C 
HETATM    4  C10 UNL     1      23.615   3.582  51.195  1.00  0.00    -0.046 A 
HETATM    5  C11 UNL     1      24.973   3.452  51.340  1.00  0.00     0.044 A 
HETATM    6  C12 UNL     1      25.921   3.803  50.411  1.00  0.00     0.066 A 
HETATM    7  C13 UNL     1      25.441   4.338  49.223  1.00  0.00     0.037 A 
HETATM    8  C14 UNL     1      24.081   4.478  49.055  1.00  0.00     0.010 A 
HETATM    9  C15 UNL     1      23.120   4.119  50.001  1.00  0.00    -0.049 A 
HETATM   10  C16 UNL     1      21.774   4.416  49.512  1.00  0.00     0.065 C 
HETATM   11  C17 UNL     1      20.649   3.673  50.186  1.00  0.00     0.172 C 
HETATM   12  O3  UNL     1      20.460   2.455  50.150  1.00  0.00    -0.387 OA
HETATM   13  C18 UNL     1      20.268   1.218  50.113  1.00  0.00     0.195 C 
HETATM   14  C19 UNL     1      21.019   0.302  51.006  1.00  0.00    -0.000 C 
HETATM   15  C20 UNL     1      21.952   0.407  51.913  1.00  0.00     0.005 C 
ENDROOT
BRANCH   1  16
HETATM   16  C6  UNL     1      23.704  -0.649  53.620  1.00  0.00     0.038 C 
BRANCH  16  17
HETATM   17  C5  UNL     1      25.141  -0.374  53.859  1.00  0.00     0.005 C 
BRANCH  17  18
HETATM   18  C4  UNL     1      26.116  -0.778  52.819  1.00  0.00     0.000 C 
BRANCH  18  19
HETATM   19  C3  UNL     1      26.896   0.443  52.346  1.00  0.00     0.002 C 
BRANCH  19  20
HETATM   20  C2  UNL     1      27.137   1.459  53.412  1.00  0.00     0.026 C 
BRANCH  20  21
HETATM   21  C1  UNL     1      28.632   1.756  53.453  1.00  0.00     0.164 C 
BRANCH  21  22
HETATM   22  O1  UNL     1      28.936   3.027  53.007  1.00  0.00    -0.401 OA
HETATM   23  H1  UNL     1      29.078   3.055  52.025  1.00  0.00     0.209 HD
ENDBRANCH  21  22
ENDBRANCH  20  21
ENDBRANCH  19  20
ENDBRANCH  18  19
ENDBRANCH  17  18
ENDBRANCH  16  17
ENDBRANCH   1  16
BRANCH   6  24
HETATM   24  O2  UNL     1      27.263   3.644  50.628  1.00  0.00    -0.361 OA
HETATM   25  H18 UNL     1      27.688   2.711  50.579  1.00  0.00     0.217 HD
ENDBRANCH   6  24
TORSDOF 8
ENDMDL
MODEL 4
REMARK VINA RESULT:      -7.8      3.441      4.800
REMARK  8 active torsions:
REMARK  status: ('A' for Active; 'I' for Inactive)
REMARK    1  A    between atoms: O1_1  and  C1_2 
REMARK    2  A    between atoms: C1_2  and  C2_3 
REMARK    3  A    between atoms: C2_3  and  C3_4 
REMARK    4  A    between atoms: C3_4  and  C4_5 
REMARK    5  A    between atoms: C4_5  and  C5_6 
REMARK    6  A    between atoms: C5_6  and  C6_7 
REMARK    7  A    between atoms: C6_7  and  C7_8 
REMARK    8  A    between atoms: C12_13  and  O2_14 
ROOT
HETATM    1  C7  UNL     1      26.143   2.404  51.159  1.00  0.00    -0.062 C 
HETATM    2  C8  UNL     1      25.154   2.424  52.007  1.00  0.00    -0.015 C 
HETATM    3  C9  UNL     1      24.257   2.089  53.100  1.00  0.00     0.067 C 
HETATM    4  C10 UNL     1      23.011   1.391  52.693  1.00  0.00    -0.046 A 
HETATM    5  C11 UNL     1      22.270   2.030  51.732  1.00  0.00     0.044 A 
HETATM    6  C12 UNL     1      21.093   1.578  51.188  1.00  0.00     0.066 A 
HETATM    7  C13 UNL     1      20.627   0.362  51.669  1.00  0.00     0.037 A 
HETATM    8  C14 UNL     1      21.355  -0.297  52.635  1.00  0.00     0.010 A 
HETATM    9  C15 UNL     1      22.551   0.165  53.186  1.00  0.00    -0.049 A 
HETATM   10  C16 UNL     1      23.052  -0.768  54.196  1.00  0.00     0.065 C 
HETATM   11  C17 UNL     1      24.519  -0.659  54.522  1.00  0.00     0.172 C 
HETATM   12  O3  UNL     1      25.454  -0.896  53.752  1.00  0.00    -0.387 OA
HETATM   13  C18 UNL     1      26.401  -1.136  52.971  1.00  0.00     0.195 C 
HETATM   14  C19 UNL     1      26.847  -0.128  51.978  1.00  0.00    -0.000 C 
HETATM   15  C20 UNL     1      26.488   1.074  51.612  1.00  0.00     0.005 C 
ENDROOT
BRANCH   1  16
HETATM   16  C6  UNL     1      26.664   3.196  50.011  1.00  0.00     0.038 C 
BRANCH  16  17
HETATM   17  C5  UNL     1      25.810   4.348  49.637  1.00  0.00     0.005 C 
BRANCH  17  18
HETATM   18  C4  UNL     1      26.424   5.459  48.872  1.00  0.00     0.000 C 
BRANCH  18  19
HETATM   19  C3  UNL     1      27.874   5.118  48.550  1.00  0.00     0.002 C 
BRANCH  19  20
HETATM   20  C2  UNL     1      28.670   6.272  48.039  1.00  0.00     0.026 C 
BRANCH  20  21
HETATM   21  C1  UNL     1      30.148   5.941  48.215  1.00  0.00     0.164 C 
BRANCH  21  22
HETATM   22  O1  UNL     1      30.473   5.623  49.519  1.00  0.00    -0.401 OA
HETATM   23  H1  UNL     1      29.705   5.742  50.136  1.00  0.00     0.209 HD
ENDBRANCH  21  22
ENDBRANCH  20  21
ENDBRANCH  19  20
ENDBRANCH  18  19
ENDBRANCH  17  18
ENDBRANCH  16  17
ENDBRANCH   1  16
BRANCH   6  24
HETATM   24  O2  UNL     1      20.407   2.274  50.229  1.00  0.00    -0.361 OA
HETATM   25  H18 UNL     1      19.835   1.775  49.537  1.00  0.00     0.217 HD
ENDBRANCH   6  24
TORSDOF 8
ENDMDL
MODEL 5
REMARK VINA RESULT:      -7.6      2.609      5.043
REMARK  8 active torsions:
REMARK  status: ('A' for Active; 'I' for Inactive)
REMARK    1  A    between atoms: O1_1  and  C1_2 
REMARK    2  A    between atoms: C1_2  and  C2_3 
REMARK    3  A    between atoms: C2_3  and  C3_4 
REMARK    4  A    between atoms: C3_4  and  C4_5 
REMARK    5  A    between atoms: C4_5  and  C5_6 
REMARK    6  A    between atoms: C5_6  and  C6_7 
REMARK    7  A    between atoms: C6_7  and  C7_8 
REMARK    8  A    between atoms: C12_13  and  O2_14 
ROOT
HETATM    1  C7  UNL     1      26.108   2.457  51.304  1.00  0.00    -0.062 C 
HETATM    2  C8  UNL     1      25.109   2.432  52.140  1.00  0.00    -0.015 C 
HETATM    3  C9  UNL     1      24.205   2.044  53.209  1.00  0.00     0.067 C 
HETATM    4  C10 UNL     1      22.975   1.343  52.763  1.00  0.00    -0.046 A 
HETATM    5  C11 UNL     1      22.235   2.004  51.816  1.00  0.00     0.044 A 
HETATM    6  C12 UNL     1      21.072   1.553  51.242  1.00  0.00     0.066 A 
HETATM    7  C13 UNL     1      20.620   0.313  51.674  1.00  0.00     0.037 A 
HETATM    8  C14 UNL     1      21.347  -0.368  52.625  1.00  0.00     0.010 A 
HETATM    9  C15 UNL     1      22.529   0.093  53.206  1.00  0.00    -0.049 A 
HETATM   10  C16 UNL     1      23.033  -0.867  54.189  1.00  0.00     0.065 C 
HETATM   11  C17 UNL     1      24.495  -0.747  54.537  1.00  0.00     0.172 C 
HETATM   12  O3  UNL     1      25.442  -0.942  53.771  1.00  0.00    -0.387 OA
HETATM   13  C18 UNL     1      26.402  -1.139  52.993  1.00  0.00     0.195 C 
HETATM   14  C19 UNL     1      26.843  -0.090  52.042  1.00  0.00    -0.000 C 
HETATM   15  C20 UNL     1      26.469   1.118  51.713  1.00  0.00     0.005 C 
ENDROOT
BRANCH   1  16
HETATM   16  C6  UNL     1      26.629   3.298  50.191  1.00  0.00     0.038 C 
BRANCH  16  17
HETATM   17  C5  UNL     1      25.612   3.646  49.170  1.00  0.00     0.005 C 
BRANCH  17  18
HETATM   18  C4  UNL     1      24.940   4.964  49.269  1.00  0.00     0.000 C 
BRANCH  18  19
HETATM   19  C3  UNL     1      23.479   4.765  49.653  1.00  0.00     0.002 C 
BRANCH  19  20
HETATM   20  C2  UNL     1      23.086   5.451  50.919  1.00  0.00     0.026 C 
BRANCH  20  21
HETATM   21  C1  UNL     1      23.930   6.712  51.056  1.00  0.00     0.164 C 
BRANCH  21  22
HETATM   22  O1  UNL     1      24.512   6.833  52.304  1.00  0.00    -0.401 OA
HETATM   23  H1  UNL     1      25.311   7.421  52.289  1.00  0.00     0.209 HD
ENDBRANCH  21  22
ENDBRANCH  20  21
ENDBRANCH  19  20
ENDBRANCH  18  19
ENDBRANCH  17  18
ENDBRANCH  16  17
ENDBRANCH   1  16
BRANCH   6  24
HETATM   24  O2  UNL     1      20.386   2.271  50.300  1.00  0.00    -0.361 OA
HETATM   25  H18 UNL     1      19.377   2.432  50.404  1.00  0.00     0.217 HD
ENDBRANCH   6  24
TORSDOF 8
ENDMDL
MODEL 6
REMARK VINA RESULT:      -7.5      2.019      5.353
REMARK  8 active torsions:
REMARK  status: ('A' for Active; 'I' for Inactive)
REMARK    1  A    between atoms: O1_1  and  C1_2 
REMARK    2  A    between atoms: C1_2  and  C2_3 
REMARK    3  A    between atoms: C2_3  and  C3_4 
REMARK    4  A    between atoms: C3_4  and  C4_5 
REMARK    5  A    between atoms: C4_5  and  C5_6 
REMARK    6  A    between atoms: C5_6  and  C6_7 
REMARK    7  A    between atoms: C6_7  and  C7_8 
REMARK    8  A    between atoms: C12_13  and  O2_14 
ROOT
HETATM    1  C7  UNL     1      21.040   1.244  52.625  1.00  0.00    -0.062 C 
HETATM    2  C8  UNL     1      21.829   2.270  52.477  1.00  0.00    -0.015 C 
HETATM    3  C9  UNL     1      22.626   3.333  51.889  1.00  0.00     0.067 C 
HETATM    4  C10 UNL     1      24.082   3.053  51.812  1.00  0.00    -0.046 A 
HETATM    5  C11 UNL     1      24.674   2.701  52.998  1.00  0.00     0.044 A 
HETATM    6  C12 UNL     1      25.998   2.383  53.176  1.00  0.00     0.066 A 
HETATM    7  C13 UNL     1      26.793   2.429  52.039  1.00  0.00     0.037 A 
HETATM    8  C14 UNL     1      26.220   2.780  50.837  1.00  0.00     0.010 A 
HETATM    9  C15 UNL     1      24.874   3.102  50.659  1.00  0.00    -0.049 A 
HETATM   10  C16 UNL     1      24.602   3.444  49.263  1.00  0.00     0.065 C 
HETATM   11  C17 UNL     1      23.161   3.349  48.831  1.00  0.00     0.172 C 
HETATM   12  O3  UNL     1      22.488   2.317  48.773  1.00  0.00    -0.387 OA
HETATM   13  C18 UNL     1      21.805   1.270  48.715  1.00  0.00     0.195 C 
HETATM   14  C19 UNL     1      21.173   0.701  49.931  1.00  0.00    -0.000 C 
HETATM   15  C20 UNL     1      21.130   0.985  51.205  1.00  0.00     0.005 C 
ENDROOT
BRANCH   1  16
HETATM   16  C6  UNL     1      20.436   0.431  53.716  1.00  0.00     0.038 C 
BRANCH  16  17
HETATM   17  C5  UNL     1      21.418  -0.072  54.707  1.00  0.00     0.005 C 
BRANCH  17  18
HETATM   18  C4  UNL     1      22.268  -1.225  54.330  1.00  0.00     0.000 C 
BRANCH  18  19
HETATM   19  C3  UNL     1      23.522  -0.727  53.623  1.00  0.00     0.002 C 
BRANCH  19  20
HETATM   20  C2  UNL     1      24.776  -0.904  54.412  1.00  0.00     0.026 C 
BRANCH  20  21
HETATM   21  C1  UNL     1      25.917  -1.167  53.436  1.00  0.00     0.164 C 
BRANCH  21  22
HETATM   22  O1  UNL     1      27.156  -0.876  53.972  1.00  0.00    -0.401 OA
HETATM   23  H1  UNL     1      27.131  -0.078  54.562  1.00  0.00     0.209 HD
ENDBRANCH  21  22
ENDBRANCH  20  21
ENDBRANCH  19  20
ENDBRANCH  18  19
ENDBRANCH  17  18
ENDBRANCH  16  17
ENDBRANCH   1  16
BRANCH   6  24
HETATM   24  O2  UNL     1      26.519   2.040  54.394  1.00  0.00    -0.361 OA
HETATM   25  H18 UNL     1      26.089   1.291  54.949  1.00  0.00     0.217 HD
ENDBRANCH   6  24
TORSDOF 8
ENDMDL
MODEL 7
REMARK VINA RESULT:      -7.4      2.013      4.911
REMARK  8 active torsions:
REMARK  status: ('A' for Active; 'I' for Inactive)
REMARK    1  A    between atoms: O1_1  and  C1_2 
REMARK    2  A    between atoms: C1_2  and  C2_3 
REMARK    3  A    between atoms: C2_3  and  C3_4 
REMARK    4  A    between atoms: C3_4  and  C4_5 
REMARK    5  A    between atoms: C4_5  and  C5_6 
REMARK    6  A    between atoms: C5_6  and  C6_7 
REMARK    7  A    between atoms: C6_7  and  C7_8 
REMARK    8  A    between atoms: C12_13  and  O2_14 
ROOT
HETATM    1  C7  UNL     1      26.089   2.531  51.369  1.00  0.00    -0.062 C 
HETATM    2  C8  UNL     1      25.154   2.481  52.275  1.00  0.00    -0.015 C 
HETATM    3  C9  UNL     1      24.325   2.058  53.391  1.00  0.00     0.067 C 
HETATM    4  C10 UNL     1      23.055   1.392  53.007  1.00  0.00    -0.046 A 
HETATM    5  C11 UNL     1      22.257   2.103  52.147  1.00  0.00     0.044 A 
HETATM    6  C12 UNL     1      21.048   1.693  51.642  1.00  0.00     0.066 A 
HETATM    7  C13 UNL     1      20.610   0.441  52.053  1.00  0.00     0.037 A 
HETATM    8  C14 UNL     1      21.395  -0.291  52.916  1.00  0.00     0.010 A 
HETATM    9  C15 UNL     1      22.624   0.129  53.428  1.00  0.00    -0.049 A 
HETATM   10  C16 UNL     1      23.183  -0.879  54.328  1.00  0.00     0.065 C 
HETATM   11  C17 UNL     1      24.668  -0.793  54.572  1.00  0.00     0.172 C 
HETATM   12  O3  UNL     1      25.553  -0.965  53.730  1.00  0.00    -0.387 OA
HETATM   13  C18 UNL     1      26.450  -1.140  52.875  1.00  0.00     0.195 C 
HETATM   14  C19 UNL     1      26.836  -0.055  51.940  1.00  0.00    -0.000 C 
HETATM   15  C20 UNL     1      26.458   1.171  51.692  1.00  0.00     0.005 C 
ENDROOT
BRANCH   1  16
HETATM   16  C6  UNL     1      26.540   3.414  50.258  1.00  0.00     0.038 C 
BRANCH  16  17
HETATM   17  C5  UNL     1      25.525   3.613  49.196  1.00  0.00     0.005 C 
BRANCH  17  18
HETATM   18  C4  UNL     1      24.464   4.624  49.420  1.00  0.00     0.000 C 
BRANCH  18  19
HETATM   19  C3  UNL     1      23.121   4.065  48.967  1.00  0.00     0.002 C 
BRANCH  19  20
HETATM   20  C2  UNL     1      23.144   2.605  48.659  1.00  0.00     0.026 C 
BRANCH  20  21
HETATM   21  C1  UNL     1      21.963   2.295  47.747  1.00  0.00     0.164 C 
BRANCH  21  22
HETATM   22  O1  UNL     1      21.226   1.209  48.177  1.00  0.00    -0.401 OA
HETATM   23  H1  UNL     1      21.280   1.086  49.160  1.00  0.00     0.209 HD
ENDBRANCH  21  22
ENDBRANCH  20  21
ENDBRANCH  19  20
ENDBRANCH  18  19
ENDBRANCH  17  18
ENDBRANCH  16  17
ENDBRANCH   1  16
BRANCH   6  24
HETATM   24  O2  UNL     1      20.306   2.460  50.785  1.00  0.00    -0.361 OA
HETATM   25  H18 UNL     1      20.161   2.159  49.814  1.00  0.00     0.217 HD
ENDBRANCH   6  24
TORSDOF 8
ENDMDL
MODEL 8
REMARK VINA RESULT:      -7.4      2.136      4.199
REMARK  8 active torsions:
REMARK  status: ('A' for Active; 'I' for Inactive)
REMARK    1  A    between atoms: O1_1  and  C1_2 
REMARK    2  A    between atoms: C1_2  and  C2_3 
REMARK    3  A    between atoms: C2_3  and  C3_4 
REMARK    4  A    between atoms: C3_4  and  C4_5 
REMARK    5  A    between atoms: C4_5  and  C5_6 
REMARK    6  A    between atoms: C5_6  and  C6_7 
REMARK    7  A    between atoms: C6_7  and  C7_8 
REMARK    8  A    between atoms: C12_13  and  O2_14 
ROOT
HETATM    1  C7  UNL     1      23.994   2.864  51.349  1.00  0.00    -0.062 C 
HETATM    2  C8  UNL     1      23.561   1.638  51.423  1.00  0.00    -0.015 C 
HETATM    3  C9  UNL     1      22.694   0.476  51.524  1.00  0.00     0.067 C 
HETATM    4  C10 UNL     1      22.612  -0.125  52.878  1.00  0.00    -0.046 A 
HETATM    5  C11 UNL     1      23.816  -0.460  53.444  1.00  0.00     0.044 A 
HETATM    6  C12 UNL     1      23.998  -1.015  54.687  1.00  0.00     0.066 A 
HETATM    7  C13 UNL     1      22.844  -1.252  55.422  1.00  0.00     0.037 A 
HETATM    8  C14 UNL     1      21.624  -0.925  54.874  1.00  0.00     0.010 A 
HETATM    9  C15 UNL     1      21.443  -0.360  53.610  1.00  0.00    -0.049 A 
HETATM   10  C16 UNL     1      20.021  -0.155  53.332  1.00  0.00     0.065 C 
HETATM   11  C17 UNL     1      19.699   0.849  52.255  1.00  0.00     0.172 C 
HETATM   12  O3  UNL     1      19.928   2.060  52.300  1.00  0.00    -0.387 OA
HETATM   13  C18 UNL     1      20.160   3.289  52.347  1.00  0.00     0.195 C 
HETATM   14  C19 UNL     1      21.508   3.824  52.036  1.00  0.00    -0.000 C 
HETATM   15  C20 UNL     1      22.676   3.338  51.712  1.00  0.00     0.005 C 
ENDROOT
BRANCH   1  16
HETATM   16  C6  UNL     1      25.279   3.604  51.213  1.00  0.00     0.038 C 
BRANCH  16  17
HETATM   17  C5  UNL     1      26.414   2.762  50.765  1.00  0.00     0.005 C 
BRANCH  17  18
HETATM   18  C4  UNL     1      26.752   1.557  51.558  1.00  0.00     0.000 C 
BRANCH  18  19
HETATM   19  C3  UNL     1      27.111   1.965  52.981  1.00  0.00     0.002 C 
BRANCH  19  20
HETATM   20  C2  UNL     1      28.496   1.589  53.389  1.00  0.00     0.026 C 
BRANCH  20  21
HETATM   21  C1  UNL     1      28.396   0.589  54.535  1.00  0.00     0.164 C 
BRANCH  21  22
HETATM   22  O1  UNL     1      27.765  -0.583  54.168  1.00  0.00    -0.401 OA
HETATM   23  H1  UNL     1      27.823  -1.277  54.874  1.00  0.00     0.209 HD
ENDBRANCH  21  22
ENDBRANCH  20  21
ENDBRANCH  19  20
ENDBRANCH  18  19
ENDBRANCH  17  18
ENDBRANCH  16  17
ENDBRANCH   1  16
BRANCH   6  24
HETATM   24  O2  UNL     1      25.235  -1.322  55.186  1.00  0.00    -0.361 OA
HETATM   25  H18 UNL     1      25.336  -1.651  56.153  1.00  0.00     0.217 HD
ENDBRANCH   6  24
TORSDOF 8
ENDMDL
MODEL 9
REMARK VINA RESULT:      -7.3      1.763      2.273
REMARK  8 active torsions:
REMARK  status: ('A' for Active; 'I' for Inactive)
REMARK    1  A    between atoms: O1_1  and  C1_2 
REMARK    2  A    between atoms: C1_2  and  C2_3 
REMARK    3  A    between atoms: C2_3  and  C3_4 
REMARK    4  A    between atoms: C3_4  and  C4_5 
REMARK    5  A    between atoms: C4_5  and  C5_6 
REMARK    6  A    between atoms: C5_6  and  C6_7 
REMARK    7  A    between atoms: C6_7  and  C7_8 
REMARK    8  A    between atoms: C12_13  and  O2_14 
ROOT
HETATM    1  C7  UNL     1      24.908   0.269  52.554  1.00  0.00    -0.062 C 
HETATM    2  C8  UNL     1      24.131   1.270  52.249  1.00  0.00    -0.015 C 
HETATM    3  C9  UNL     1      23.005   2.187  52.202  1.00  0.00     0.067 C 
HETATM    4  C10 UNL     1      22.097   2.000  51.042  1.00  0.00    -0.046 A 
HETATM    5  C11 UNL     1      22.704   2.028  49.812  1.00  0.00     0.044 A 
HETATM    6  C12 UNL     1      22.079   1.866  48.600  1.00  0.00     0.066 A 
HETATM    7  C13 UNL     1      20.708   1.658  48.645  1.00  0.00     0.037 A 
HETATM    8  C14 UNL     1      20.077   1.626  49.869  1.00  0.00     0.010 A 
HETATM    9  C15 UNL     1      20.714   1.791  51.099  1.00  0.00    -0.049 A 
HETATM   10  C16 UNL     1      19.750   1.719  52.198  1.00  0.00     0.065 C 
HETATM   11  C17 UNL     1      20.322   1.407  53.557  1.00  0.00     0.172 C 
HETATM   12  O3  UNL     1      20.871   0.352  53.888  1.00  0.00    -0.387 OA
HETATM   13  C18 UNL     1      21.427  -0.717  54.224  1.00  0.00     0.195 C 
HETATM   14  C19 UNL     1      22.849  -0.976  53.889  1.00  0.00    -0.000 C 
HETATM   15  C20 UNL     1      23.806  -0.360  53.248  1.00  0.00     0.005 C 
ENDROOT
BRANCH   1  16
HETATM   16  C6  UNL     1      26.259  -0.257  52.214  1.00  0.00     0.038 C 
BRANCH  16  17
HETATM   17  C5  UNL     1      26.994  -0.821  53.371  1.00  0.00     0.005 C 
BRANCH  17  18
HETATM   18  C4  UNL     1      27.244   0.055  54.541  1.00  0.00     0.000 C 
BRANCH  18  19
HETATM   19  C3  UNL     1      28.744   0.220  54.745  1.00  0.00     0.002 C 
BRANCH  19  20
HETATM   20  C2  UNL     1      29.373   1.229  53.843  1.00  0.00     0.026 C 
BRANCH  20  21
HETATM   21  C1  UNL     1      28.422   2.415  53.725  1.00  0.00     0.164 C 
BRANCH  21  22
HETATM   22  O1  UNL     1      28.160   2.761  52.414  1.00  0.00    -0.401 OA
HETATM   23  H1  UNL     1      28.957   3.141  51.961  1.00  0.00     0.209 HD
ENDBRANCH  21  22
ENDBRANCH  20  21
ENDBRANCH  19  20
ENDBRANCH  18  19
ENDBRANCH  17  18
ENDBRANCH  16  17
ENDBRANCH   1  16
BRANCH   6  24
HETATM   24  O2  UNL     1      22.754   1.907  47.410  1.00  0.00    -0.361 OA
HETATM   25  H18 UNL     1      23.779   1.845  47.393  1.00  0.00     0.217 HD
ENDBRANCH   6  24
TORSDOF 8
ENDMDL
