MODEL 1
REMARK VINA RESULT:      -8.1      0.000      0.000
REMARK  7 active torsions:
REMARK  status: ('A' for Active; 'I' for Inactive)
REMARK    1  A    between atoms: C5_7  and  C6_8 
REMARK    2  A    between atoms: C6_8  and  C7_9 
REMARK    3  A    between atoms: C7_9  and  N2_10 
REMARK    4  A    between atoms: C8_11  and  C9_12 
REMARK    5  A    between atoms: C9_12  and  C10_14 
REMARK    6  A    between atoms: C13_17  and  C14_18 
REMARK    7  A    between atoms: N3_22  and  C18_23 
ROOT
HETATM    1  N1  UNL     1      22.607   2.173  47.828  1.00  0.00    -0.191 NA
HETATM    2  C1  UNL     1      22.196   2.032  48.921  1.00  0.00     0.099 C 
HETATM    3  C2  UNL     1      21.686   1.844  50.267  1.00  0.00     0.045 A 
HETATM    4  C3  UNL     1      20.964   2.878  50.842  1.00  0.00     0.024 A 
HETATM    5  C4  UNL     1      20.400   2.895  52.100  1.00  0.00     0.018 A 
HETATM    6  P1  UNL     1      20.654   1.428  53.027  1.00  0.00    -0.027 P 
HETATM    7  C5  UNL     1      21.585   0.256  52.118  1.00  0.00    -0.037 A 
HETATM    8  C25 UNL     1      21.975   0.638  50.845  1.00  0.00     0.031 A 
ENDROOT
BRANCH   7   9
HETATM    9  C6  UNL     1      21.920  -1.068  52.714  1.00  0.00     0.096 C 
BRANCH   9  10
HETATM   10  C7  UNL     1      22.412  -0.965  54.084  1.00  0.00     0.011 C 
HETATM   11  C8  UNL     1      23.566  -0.728  54.674  1.00  0.00     0.080 C 
BRANCH  10  12
HETATM   12  N2  UNL     1      21.228  -1.212  54.871  1.00  0.00    -0.402 N 
HETATM   13  H5  UNL     1      20.585  -2.021  54.966  1.00  0.00     0.156 HD
HETATM   14  H6  UNL     1      20.471  -0.999  55.554  1.00  0.00     0.156 HD
ENDBRANCH  10  12
BRANCH  11  15
HETATM   15  C9  UNL     1      24.799  -0.476  53.966  1.00  0.00     0.183 C 
HETATM   16  O1  UNL     1      25.806  -1.227  54.005  1.00  0.00    -0.288 OA
BRANCH  15  17
HETATM   17  C10 UNL     1      24.984   0.695  53.125  1.00  0.00     0.014 A 
HETATM   18  C11 UNL     1      25.802   0.651  52.019  1.00  0.00     0.016 A 
HETATM   19  C12 UNL     1      26.005   1.757  51.186  1.00  0.00     0.008 A 
HETATM   20  C13 UNL     1      25.376   2.952  51.456  1.00  0.00    -0.054 A 
HETATM   21  C23 UNL     1      24.555   3.036  52.548  1.00  0.00     0.008 A 
HETATM   22  C24 UNL     1      24.390   1.918  53.336  1.00  0.00     0.016 A 
BRANCH  20  23
HETATM   23  C14 UNL     1      25.568   4.143  50.595  1.00  0.00     0.020 C 
HETATM   24  C15 UNL     1      24.246   4.723  50.214  1.00  0.00     0.011 C 
HETATM   25  C16 UNL     1      24.388   6.142  49.744  1.00  0.00     0.020 C 
HETATM   26  C17 UNL     1      25.344   6.183  48.586  1.00  0.00     0.117 C 
HETATM   27  N3  UNL     1      26.709   6.108  48.933  1.00  0.00    -0.404 N 
HETATM   28  C21 UNL     1      27.289   4.798  48.913  1.00  0.00     0.118 C 
HETATM   29  C22 UNL     1      26.364   3.720  49.381  1.00  0.00     0.029 C 
BRANCH  27  30
HETATM   30  C18 UNL     1      27.567   7.150  48.514  1.00  0.00     0.126 C 
HETATM   31  C19 UNL     1      28.690   6.799  47.590  1.00  0.00     0.194 C 
HETATM   32  O2  UNL     1      28.314   7.786  46.668  1.00  0.00    -0.387 OA
HETATM   33  C20 UNL     1      27.035   7.816  47.249  1.00  0.00     0.194 C 
ENDBRANCH  27  30
ENDBRANCH  20  23
ENDBRANCH  15  17
ENDBRANCH  11  15
ENDBRANCH   9  10
ENDBRANCH   7   9
TORSDOF 7
ENDMDL
MODEL 2
REMARK VINA RESULT:      -8.0      2.875      5.126
REMARK  7 active torsions:
REMARK  status: ('A' for Active; 'I' for Inactive)
REMARK    1  A    between atoms: C5_7  and  C6_8 
REMARK    2  A    between atoms: C6_8  and  C7_9 
REMARK    3  A    between atoms: C7_9  and  N2_10 
REMARK    4  A    between atoms: C8_11  and  C9_12 
REMARK    5  A    between atoms: C9_12  and  C10_14 
REMARK    6  A    between atoms: C13_17  and  C14_18 
REMARK    7  A    between atoms: N3_22  and  C18_23 
ROOT
HETATM    1  N1  UNL     1      27.543   2.372  51.989  1.00  0.00    -0.191 NA
HETATM    2  C1  UNL     1      26.517   1.848  52.227  1.00  0.00     0.099 C 
HETATM    3  C2  UNL     1      25.245   1.213  52.520  1.00  0.00     0.045 A 
HETATM    4  C3  UNL     1      25.223   0.200  53.465  1.00  0.00     0.024 A 
HETATM    5  C4  UNL     1      24.123  -0.522  53.880  1.00  0.00     0.018 A 
HETATM    6  P1  UNL     1      22.622  -0.069  53.097  1.00  0.00    -0.027 P 
HETATM    7  C5  UNL     1      22.873   1.226  51.943  1.00  0.00    -0.037 A 
HETATM    8  C25 UNL     1      24.172   1.690  51.817  1.00  0.00     0.031 A 
ENDROOT
BRANCH   7   9
HETATM    9  C6  UNL     1      21.729   1.771  51.159  1.00  0.00     0.096 C 
BRANCH   9  10
HETATM   10  C7  UNL     1      21.675   3.230  51.174  1.00  0.00     0.011 C 
HETATM   11  C8  UNL     1      22.126   4.214  50.424  1.00  0.00     0.080 C 
BRANCH  10  12
HETATM   12  N2  UNL     1      20.910   3.511  52.364  1.00  0.00    -0.402 N 
HETATM   13  H5  UNL     1      20.266   4.276  52.640  1.00  0.00     0.156 HD
HETATM   14  H6  UNL     1      20.547   3.354  53.328  1.00  0.00     0.156 HD
ENDBRANCH  10  12
BRANCH  11  15
HETATM   15  C9  UNL     1      22.903   4.023  49.222  1.00  0.00     0.183 C 
HETATM   16  O1  UNL     1      22.548   3.306  48.253  1.00  0.00    -0.288 OA
BRANCH  15  17
HETATM   17  C10 UNL     1      24.195   4.660  49.025  1.00  0.00     0.014 A 
HETATM   18  C11 UNL     1      24.283   5.952  48.556  1.00  0.00     0.016 A 
HETATM   19  C12 UNL     1      25.507   6.599  48.354  1.00  0.00     0.008 A 
HETATM   20  C13 UNL     1      26.689   5.946  48.625  1.00  0.00    -0.054 A 
HETATM   21  C23 UNL     1      26.643   4.660  49.092  1.00  0.00     0.008 A 
HETATM   22  C24 UNL     1      25.412   4.069  49.273  1.00  0.00     0.016 A 
BRANCH  20  23
HETATM   23  C14 UNL     1      28.003   6.601  48.423  1.00  0.00     0.020 C 
HETATM   24  C15 UNL     1      27.927   7.576  47.294  1.00  0.00     0.011 C 
HETATM   25  C16 UNL     1      29.059   8.560  47.348  1.00  0.00     0.020 C 
HETATM   26  C17 UNL     1      30.362   7.813  47.321  1.00  0.00     0.117 C 
HETATM   27  N3  UNL     1      30.744   7.231  48.546  1.00  0.00    -0.404 N 
HETATM   28  C21 UNL     1      30.365   5.862  48.735  1.00  0.00     0.118 C 
HETATM   29  C22 UNL     1      29.028   5.520  48.158  1.00  0.00     0.029 C 
BRANCH  27  30
HETATM   30  C18 UNL     1      31.995   7.588  49.099  1.00  0.00     0.126 C 
HETATM   31  C19 UNL     1      33.153   6.671  48.854  1.00  0.00     0.194 C 
HETATM   32  O2  UNL     1      33.946   7.715  48.358  1.00  0.00    -0.387 OA
HETATM   33  C20 UNL     1      32.782   8.470  48.135  1.00  0.00     0.194 C 
ENDBRANCH  27  30
ENDBRANCH  20  23
ENDBRANCH  15  17
ENDBRANCH  11  15
ENDBRANCH   9  10
ENDBRANCH   7   9
TORSDOF 7
ENDMDL
MODEL 3
REMARK VINA RESULT:      -7.7      3.933      7.377
REMARK  7 active torsions:
REMARK  status: ('A' for Active; 'I' for Inactive)
REMARK    1  A    between atoms: C5_7  and  C6_8 
REMARK    2  A    between atoms: C6_8  and  C7_9 
REMARK    3  A    between atoms: C7_9  and  N2_10 
REMARK    4  A    between atoms: C8_11  and  C9_12 
REMARK    5  A    between atoms: C9_12  and  C10_14 
REMARK    6  A    between atoms: C13_17  and  C14_18 
REMARK    7  A    between atoms: N3_22  and  C18_23 
ROOT
HETATM    1  N1  UNL     1      21.286   4.313  52.513  1.00  0.00    -0.191 NA
HETATM    2  C1  UNL     1      22.359   3.940  52.208  1.00  0.00     0.099 C 
HETATM    3  C2  UNL     1      23.688   3.484  51.843  1.00  0.00     0.045 A 
HETATM    4  C3  UNL     1      24.136   3.740  50.558  1.00  0.00     0.024 A 
HETATM    5  C4  UNL     1      25.358   3.390  50.021  1.00  0.00     0.018 A 
HETATM    6  P1  UNL     1      26.416   2.535  51.128  1.00  0.00    -0.027 P 
HETATM    7  C5  UNL     1      25.658   2.319  52.692  1.00  0.00    -0.037 A 
HETATM    8  C25 UNL     1      24.379   2.833  52.829  1.00  0.00     0.031 A 
ENDROOT
BRANCH   7   9
HETATM    9  C6  UNL     1      26.379   1.615  53.790  1.00  0.00     0.096 C 
BRANCH   9  10
HETATM   10  C7  UNL     1      26.540   0.186  53.538  1.00  0.00     0.011 C 
HETATM   11  C8  UNL     1      25.926  -0.925  53.891  1.00  0.00     0.080 C 
BRANCH  10  12
HETATM   12  N2  UNL     1      27.698   0.139  52.679  1.00  0.00    -0.402 N 
HETATM   13  H5  UNL     1      28.511   0.767  52.534  1.00  0.00     0.156 HD
HETATM   14  H6  UNL     1      28.336  -0.251  51.953  1.00  0.00     0.156 HD
ENDBRANCH  10  12
BRANCH  11  15
HETATM   15  C9  UNL     1      24.767  -0.970  54.750  1.00  0.00     0.183 C 
HETATM   16  O1  UNL     1      24.803  -1.220  55.981  1.00  0.00    -0.288 OA
BRANCH  15  17
HETATM   17  C10 UNL     1      23.424  -0.722  54.251  1.00  0.00     0.014 A 
HETATM   18  C11 UNL     1      23.199  -0.464  52.918  1.00  0.00     0.016 A 
HETATM   19  C12 UNL     1      21.921  -0.221  52.401  1.00  0.00     0.008 A 
HETATM   20  C13 UNL     1      20.824  -0.233  53.233  1.00  0.00    -0.054 A 
HETATM   21  C23 UNL     1      21.006  -0.486  54.566  1.00  0.00     0.008 A 
HETATM   22  C24 UNL     1      22.285  -0.719  55.024  1.00  0.00     0.016 A 
BRANCH  20  23
HETATM   23  C14 UNL     1      19.456   0.019  52.720  1.00  0.00     0.020 C 
HETATM   24  C15 UNL     1      18.587  -1.171  52.959  1.00  0.00     0.011 C 
HETATM   25  C16 UNL     1      17.132  -0.808  52.879  1.00  0.00     0.020 C 
HETATM   26  C17 UNL     1      16.850  -0.201  51.534  1.00  0.00     0.117 C 
HETATM   27  N3  UNL     1      17.246   1.144  51.389  1.00  0.00    -0.404 N 
HETATM   28  C21 UNL     1      18.544   1.358  50.824  1.00  0.00     0.118 C 
HETATM   29  C22 UNL     1      19.562   0.347  51.248  1.00  0.00     0.029 C 
BRANCH  27  30
HETATM   30  C18 UNL     1      16.268   2.096  51.022  1.00  0.00     0.126 C 
HETATM   31  C19 UNL     1      16.047   3.259  51.938  1.00  0.00     0.194 C 
HETATM   32  O2  UNL     1      16.221   4.183  50.898  1.00  0.00    -0.387 OA
HETATM   33  C20 UNL     1      16.875   3.190  50.149  1.00  0.00     0.194 C 
ENDBRANCH  27  30
ENDBRANCH  20  23
ENDBRANCH  15  17
ENDBRANCH  11  15
ENDBRANCH   9  10
ENDBRANCH   7   9
TORSDOF 7
ENDMDL
MODEL 4
REMARK VINA RESULT:      -7.6      3.292      7.054
REMARK  7 active torsions:
REMARK  status: ('A' for Active; 'I' for Inactive)
REMARK    1  A    between atoms: C5_7  and  C6_8 
REMARK    2  A    between atoms: C6_8  and  C7_9 
REMARK    3  A    between atoms: C7_9  and  N2_10 
REMARK    4  A    between atoms: C8_11  and  C9_12 
REMARK    5  A    between atoms: C9_12  and  C10_14 
REMARK    6  A    between atoms: C13_17  and  C14_18 
REMARK    7  A    between atoms: N3_22  and  C18_23 
ROOT
HETATM    1  N1  UNL     1      26.426   3.298  49.343  1.00  0.00    -0.191 NA
HETATM    2  C1  UNL     1      25.650   4.160  49.541  1.00  0.00     0.099 C 
HETATM    3  C2  UNL     1      24.692   5.225  49.770  1.00  0.00     0.045 A 
HETATM    4  C3  UNL     1      24.920   6.091  50.828  1.00  0.00     0.024 A 
HETATM    5  C4  UNL     1      24.133   7.159  51.209  1.00  0.00     0.018 A 
HETATM    6  P1  UNL     1      22.709   7.399  50.215  1.00  0.00    -0.027 P 
HETATM    7  C5  UNL     1      22.613   6.201  48.941  1.00  0.00    -0.037 A 
HETATM    8  C25 UNL     1      23.637   5.268  48.900  1.00  0.00     0.031 A 
ENDROOT
BRANCH   7   9
HETATM    9  C6  UNL     1      21.480   6.215  47.974  1.00  0.00     0.096 C 
BRANCH   9  10
HETATM   10  C7  UNL     1      20.177   6.130  48.626  1.00  0.00     0.011 C 
HETATM   11  C8  UNL     1      19.389   5.174  49.075  1.00  0.00     0.080 C 
BRANCH  10  12
HETATM   12  N2  UNL     1      19.780   7.513  48.735  1.00  0.00    -0.402 N 
HETATM   13  H5  UNL     1      19.699   8.292  48.055  1.00  0.00     0.156 HD
HETATM   14  H6  UNL     1      19.455   8.381  49.211  1.00  0.00     0.156 HD
ENDBRANCH  10  12
BRANCH  11  15
HETATM   15  C9  UNL     1      19.703   3.767  49.001  1.00  0.00     0.183 C 
HETATM   16  O1  UNL     1      19.094   2.939  48.279  1.00  0.00    -0.288 OA
BRANCH  15  17
HETATM   17  C10 UNL     1      20.781   3.173  49.775  1.00  0.00     0.014 A 
HETATM   18  C11 UNL     1      21.023   3.567  51.072  1.00  0.00     0.016 A 
HETATM   19  C12 UNL     1      22.050   3.018  51.849  1.00  0.00     0.008 A 
HETATM   20  C13 UNL     1      22.869   2.043  51.324  1.00  0.00    -0.054 A 
HETATM   21  C23 UNL     1      22.661   1.625  50.037  1.00  0.00     0.008 A 
HETATM   22  C24 UNL     1      21.636   2.197  49.316  1.00  0.00     0.016 A 
BRANCH  20  23
HETATM   23  C14 UNL     1      23.966   1.440  52.117  1.00  0.00     0.020 C 
HETATM   24  C15 UNL     1      23.421   0.414  53.057  1.00  0.00     0.011 C 
HETATM   25  C16 UNL     1      24.499  -0.515  53.533  1.00  0.00     0.020 C 
HETATM   26  C17 UNL     1      25.585   0.287  54.190  1.00  0.00     0.117 C 
HETATM   27  N3  UNL     1      26.469   0.938  53.305  1.00  0.00    -0.404 N 
HETATM   28  C21 UNL     1      26.144   2.295  52.981  1.00  0.00     0.118 C 
HETATM   29  C22 UNL     1      24.676   2.552  52.856  1.00  0.00     0.029 C 
BRANCH  27  30
HETATM   30  C18 UNL     1      27.851   0.661  53.410  1.00  0.00     0.126 C 
HETATM   31  C19 UNL     1      28.377   0.237  54.745  1.00  0.00     0.194 C 
HETATM   32  O2  UNL     1      28.979  -0.909  54.205  1.00  0.00    -0.387 OA
HETATM   33  C20 UNL     1      28.137  -0.801  53.085  1.00  0.00     0.194 C 
ENDBRANCH  27  30
ENDBRANCH  20  23
ENDBRANCH  15  17
ENDBRANCH  11  15
ENDBRANCH   9  10
ENDBRANCH   7   9
TORSDOF 7
ENDMDL
MODEL 5
REMARK VINA RESULT:      -7.5      2.872      5.346
REMARK  7 active torsions:
REMARK  status: ('A' for Active; 'I' for Inactive)
REMARK    1  A    between atoms: C5_7  and  C6_8 
REMARK    2  A    between atoms: C6_8  and  C7_9 
REMARK    3  A    between atoms: C7_9  and  N2_10 
REMARK    4  A    between atoms: C8_11  and  C9_12 
REMARK    5  A    between atoms: C9_12  and  C10_14 
REMARK    6  A    between atoms: C13_17  and  C14_18 
REMARK    7  A    between atoms: N3_22  and  C18_23 
ROOT
HETATM    1  N1  UNL     1      21.755  -1.531  53.932  1.00  0.00    -0.191 NA
HETATM    2  C1  UNL     1      22.617  -0.795  53.615  1.00  0.00     0.099 C 
HETATM    3  C2  UNL     1      23.670   0.120  53.217  1.00  0.00     0.045 A 
HETATM    4  C3  UNL     1      24.934  -0.400  52.987  1.00  0.00     0.024 A 
HETATM    5  C4  UNL     1      26.060   0.299  52.604  1.00  0.00     0.018 A 
HETATM    6  P1  UNL     1      25.809   2.022  52.401  1.00  0.00    -0.027 P 
HETATM    7  C5  UNL     1      24.148   2.466  52.739  1.00  0.00    -0.037 A 
HETATM    8  C25 UNL     1      23.301   1.433  53.106  1.00  0.00     0.031 A 
ENDROOT
BRANCH   7   9
HETATM    9  C6  UNL     1      23.709   3.885  52.629  1.00  0.00     0.096 C 
BRANCH   9  10
HETATM   10  C7  UNL     1      22.659   4.078  51.634  1.00  0.00     0.011 C 
HETATM   11  C8  UNL     1      22.556   4.013  50.322  1.00  0.00     0.080 C 
BRANCH  10  12
HETATM   12  N2  UNL     1      21.512   4.424  52.439  1.00  0.00    -0.402 N 
HETATM   13  H5  UNL     1      20.496   4.500  52.246  1.00  0.00     0.156 HD
HETATM   14  H6  UNL     1      20.997   4.706  53.299  1.00  0.00     0.156 HD
ENDBRANCH  10  12
BRANCH  11  15
HETATM   15  C9  UNL     1      23.651   3.681  49.442  1.00  0.00     0.183 C 
HETATM   16  O1  UNL     1      23.818   2.555  48.909  1.00  0.00    -0.288 OA
BRANCH  15  17
HETATM   17  C10 UNL     1      24.679   4.645  49.086  1.00  0.00     0.014 A 
HETATM   18  C11 UNL     1      26.015   4.330  49.196  1.00  0.00     0.016 A 
HETATM   19  C12 UNL     1      27.033   5.231  48.863  1.00  0.00     0.008 A 
HETATM   20  C13 UNL     1      26.719   6.491  48.404  1.00  0.00    -0.054 A 
HETATM   21  C23 UNL     1      25.402   6.843  48.282  1.00  0.00     0.008 A 
HETATM   22  C24 UNL     1      24.439   5.919  48.623  1.00  0.00     0.016 A 
BRANCH  20  23
HETATM   23  C14 UNL     1      27.771   7.471  48.043  1.00  0.00     0.020 C 
HETATM   24  C15 UNL     1      27.452   8.110  46.731  1.00  0.00     0.011 C 
HETATM   25  C16 UNL     1      28.214   9.391  46.550  1.00  0.00     0.020 C 
HETATM   26  C17 UNL     1      29.685   9.108  46.663  1.00  0.00     0.117 C 
HETATM   27  N3  UNL     1      30.165   8.950  47.979  1.00  0.00    -0.404 N 
HETATM   28  C21 UNL     1      30.225   7.604  48.467  1.00  0.00     0.118 C 
HETATM   29  C22 UNL     1      29.095   6.742  48.001  1.00  0.00     0.029 C 
BRANCH  27  30
HETATM   30  C18 UNL     1      31.211   9.794  48.419  1.00  0.00     0.126 C 
HETATM   31  C19 UNL     1      31.757  10.791  47.447  1.00  0.00     0.194 C 
HETATM   32  O2  UNL     1      31.568  11.852  48.343  1.00  0.00    -0.387 OA
HETATM   33  C20 UNL     1      30.652  11.061  49.058  1.00  0.00     0.194 C 
ENDBRANCH  27  30
ENDBRANCH  20  23
ENDBRANCH  15  17
ENDBRANCH  11  15
ENDBRANCH   9  10
ENDBRANCH   7   9
TORSDOF 7
ENDMDL
MODEL 6
REMARK VINA RESULT:      -7.5      4.314     10.106
REMARK  7 active torsions:
REMARK  status: ('A' for Active; 'I' for Inactive)
REMARK    1  A    between atoms: C5_7  and  C6_8 
REMARK    2  A    between atoms: C6_8  and  C7_9 
REMARK    3  A    between atoms: C7_9  and  N2_10 
REMARK    4  A    between atoms: C8_11  and  C9_12 
REMARK    5  A    between atoms: C9_12  and  C10_14 
REMARK    6  A    between atoms: C13_17  and  C14_18 
REMARK    7  A    between atoms: N3_22  and  C18_23 
ROOT
HETATM    1  N1  UNL     1      28.294  12.864  49.340  1.00  0.00    -0.191 NA
HETATM    2  C1  UNL     1      29.144  12.171  48.916  1.00  0.00     0.099 C 
HETATM    3  C2  UNL     1      30.195  11.311  48.405  1.00  0.00     0.045 A 
HETATM    4  C3  UNL     1      31.009  11.802  47.396  1.00  0.00     0.024 A 
HETATM    5  C4  UNL     1      32.055  11.146  46.782  1.00  0.00     0.018 A 
HETATM    6  P1  UNL     1      32.341   9.523  47.379  1.00  0.00    -0.027 P 
HETATM    7  C5  UNL     1      31.207   9.102  48.646  1.00  0.00    -0.037 A 
HETATM    8  C25 UNL     1      30.279  10.073  48.984  1.00  0.00     0.031 A 
ENDROOT
BRANCH   7   9
HETATM    9  C6  UNL     1      31.268   7.765  49.300  1.00  0.00     0.096 C 
BRANCH   9  10
HETATM   10  C7  UNL     1      31.091   6.664  48.357  1.00  0.00     0.011 C 
HETATM   11  C8  UNL     1      30.100   6.147  47.660  1.00  0.00     0.080 C 
BRANCH  10  12
HETATM   12  N2  UNL     1      32.415   6.095  48.276  1.00  0.00    -0.402 N 
HETATM   13  H5  UNL     1      32.779   5.125  48.240  1.00  0.00     0.156 HD
HETATM   14  H6  UNL     1      33.455   6.097  48.219  1.00  0.00     0.156 HD
ENDBRANCH  10  12
BRANCH  11  15
HETATM   15  C9  UNL     1      28.747   6.649  47.686  1.00  0.00     0.183 C 
HETATM   16  O1  UNL     1      28.352   7.663  47.058  1.00  0.00    -0.288 OA
BRANCH  15  17
HETATM   17  C10 UNL     1      27.698   6.005  48.460  1.00  0.00     0.014 A 
HETATM   18  C11 UNL     1      26.688   6.743  49.036  1.00  0.00     0.016 A 
HETATM   19  C12 UNL     1      25.661   6.160  49.788  1.00  0.00     0.008 A 
HETATM   20  C13 UNL     1      25.631   4.797  49.977  1.00  0.00    -0.054 A 
HETATM   21  C23 UNL     1      26.618   4.028  49.421  1.00  0.00     0.008 A 
HETATM   22  C24 UNL     1      27.605   4.652  48.690  1.00  0.00     0.016 A 
BRANCH  20  23
HETATM   23  C14 UNL     1      24.558   4.145  50.767  1.00  0.00     0.020 C 
HETATM   24  C15 UNL     1      25.113   2.993  51.538  1.00  0.00     0.011 C 
HETATM   25  C16 UNL     1      24.200   2.602  52.664  1.00  0.00     0.020 C 
HETATM   26  C17 UNL     1      22.845   2.270  52.108  1.00  0.00     0.117 C 
HETATM   27  N3  UNL     1      22.044   3.383  51.778  1.00  0.00    -0.404 N 
HETATM   28  C21 UNL     1      22.111   3.821  50.416  1.00  0.00     0.118 C 
HETATM   29  C22 UNL     1      23.473   3.706  49.810  1.00  0.00     0.029 C 
BRANCH  27  30
HETATM   30  C18 UNL     1      20.772   3.498  52.383  1.00  0.00     0.126 C 
HETATM   31  C19 UNL     1      19.616   3.870  51.509  1.00  0.00     0.194 C 
HETATM   32  O2  UNL     1      18.863   2.769  51.942  1.00  0.00    -0.387 OA
HETATM   33  C20 UNL     1      20.048   2.156  52.384  1.00  0.00     0.194 C 
ENDBRANCH  27  30
ENDBRANCH  20  23
ENDBRANCH  15  17
ENDBRANCH  11  15
ENDBRANCH   9  10
ENDBRANCH   7   9
TORSDOF 7
ENDMDL
MODEL 7
REMARK VINA RESULT:      -7.5      3.542      6.153
REMARK  7 active torsions:
REMARK  status: ('A' for Active; 'I' for Inactive)
REMARK    1  A    between atoms: C5_7  and  C6_8 
REMARK    2  A    between atoms: C6_8  and  C7_9 
REMARK    3  A    between atoms: C7_9  and  N2_10 
REMARK    4  A    between atoms: C8_11  and  C9_12 
REMARK    5  A    between atoms: C9_12  and  C10_14 
REMARK    6  A    between atoms: C13_17  and  C14_18 
REMARK    7  A    between atoms: N3_22  and  C18_23 
ROOT
HETATM    1  N1  UNL     1      28.665  -3.300  53.171  1.00  0.00    -0.191 NA
HETATM    2  C1  UNL     1      28.402  -2.155  53.113  1.00  0.00     0.099 C 
HETATM    3  C2  UNL     1      28.071  -0.744  53.031  1.00  0.00     0.045 A 
HETATM    4  C3  UNL     1      29.006   0.173  53.482  1.00  0.00     0.024 A 
HETATM    5  C4  UNL     1      28.882   1.547  53.489  1.00  0.00     0.018 A 
HETATM    6  P1  UNL     1      27.362   2.140  52.848  1.00  0.00    -0.027 P 
HETATM    7  C5  UNL     1      26.330   0.820  52.336  1.00  0.00    -0.037 A 
HETATM    8  C25 UNL     1      26.841  -0.457  52.503  1.00  0.00     0.031 A 
ENDROOT
BRANCH   7   9
HETATM    9  C6  UNL     1      24.985   1.093  51.757  1.00  0.00     0.096 C 
BRANCH   9  10
HETATM   10  C7  UNL     1      24.513   2.447  52.034  1.00  0.00     0.011 C 
HETATM   11  C8  UNL     1      24.323   3.556  51.348  1.00  0.00     0.080 C 
BRANCH  10  12
HETATM   12  N2  UNL     1      24.225   2.404  53.447  1.00  0.00    -0.402 N 
HETATM   13  H5  UNL     1      24.809   2.484  54.301  1.00  0.00     0.156 HD
HETATM   14  H6  UNL     1      23.635   2.320  54.301  1.00  0.00     0.156 HD
ENDBRANCH  10  12
BRANCH  11  15
HETATM   15  C9  UNL     1      24.589   3.688  49.935  1.00  0.00     0.183 C 
HETATM   16  O1  UNL     1      23.920   3.128  49.031  1.00  0.00    -0.288 OA
BRANCH  15  17
HETATM   17  C10 UNL     1      25.681   4.500  49.425  1.00  0.00     0.014 A 
HETATM   18  C11 UNL     1      25.534   5.858  49.254  1.00  0.00     0.016 A 
HETATM   19  C12 UNL     1      26.562   6.674  48.766  1.00  0.00     0.008 A 
HETATM   20  C13 UNL     1      27.781   6.126  48.435  1.00  0.00    -0.054 A 
HETATM   21  C23 UNL     1      27.967   4.779  48.590  1.00  0.00     0.008 A 
HETATM   22  C24 UNL     1      26.923   4.022  49.074  1.00  0.00     0.016 A 
BRANCH  20  23
HETATM   23  C14 UNL     1      28.892   6.959  47.916  1.00  0.00     0.020 C 
HETATM   24  C15 UNL     1      30.175   6.196  47.962  1.00  0.00     0.011 C 
HETATM   25  C16 UNL     1      31.204   6.806  47.054  1.00  0.00     0.020 C 
HETATM   26  C17 UNL     1      31.420   8.239  47.449  1.00  0.00     0.117 C 
HETATM   27  N3  UNL     1      30.427   9.138  47.010  1.00  0.00    -0.404 N 
HETATM   28  C21 UNL     1      29.370   9.407  47.938  1.00  0.00     0.118 C 
HETATM   29  C22 UNL     1      28.962   8.219  48.750  1.00  0.00     0.029 C 
BRANCH  27  30
HETATM   30  C18 UNL     1      30.821  10.238  46.215  1.00  0.00     0.126 C 
HETATM   31  C19 UNL     1      29.759  11.198  45.778  1.00  0.00     0.194 C 
HETATM   32  O2  UNL     1      30.469  12.298  46.279  1.00  0.00    -0.387 OA
HETATM   33  C20 UNL     1      31.215  11.425  47.087  1.00  0.00     0.194 C 
ENDBRANCH  27  30
ENDBRANCH  20  23
ENDBRANCH  15  17
ENDBRANCH  11  15
ENDBRANCH   9  10
ENDBRANCH   7   9
TORSDOF 7
ENDMDL
MODEL 8
REMARK VINA RESULT:      -7.4      2.250      2.657
REMARK  7 active torsions:
REMARK  status: ('A' for Active; 'I' for Inactive)
REMARK    1  A    between atoms: C5_7  and  C6_8 
REMARK    2  A    between atoms: C6_8  and  C7_9 
REMARK    3  A    between atoms: C7_9  and  N2_10 
REMARK    4  A    between atoms: C8_11  and  C9_12 
REMARK    5  A    between atoms: C9_12  and  C10_14 
REMARK    6  A    between atoms: C13_17  and  C14_18 
REMARK    7  A    between atoms: N3_22  and  C18_23 
ROOT
HETATM    1  N1  UNL     1      21.909   1.521  47.863  1.00  0.00    -0.191 NA
HETATM    2  C1  UNL     1      21.654   1.435  49.008  1.00  0.00     0.099 C 
HETATM    3  C2  UNL     1      21.340   1.314  50.420  1.00  0.00     0.045 A 
HETATM    4  C3  UNL     1      20.504   2.263  50.986  1.00  0.00     0.024 A 
HETATM    5  C4  UNL     1      20.089   2.324  52.300  1.00  0.00     0.018 A 
HETATM    6  P1  UNL     1      20.715   1.040  53.316  1.00  0.00    -0.027 P 
HETATM    7  C5  UNL     1      21.745  -0.046  52.407  1.00  0.00    -0.037 A 
HETATM    8  C25 UNL     1      21.914   0.252  51.064  1.00  0.00     0.031 A 
ENDROOT
BRANCH   7   9
HETATM    9  C6  UNL     1      22.387  -1.213  53.073  1.00  0.00     0.096 C 
BRANCH   9  10
HETATM   10  C7  UNL     1      23.307  -0.824  54.138  1.00  0.00     0.011 C 
HETATM   11  C8  UNL     1      24.475  -0.222  54.224  1.00  0.00     0.080 C 
BRANCH  10  12
HETATM   12  N2  UNL     1      22.632  -1.282  55.328  1.00  0.00    -0.402 N 
HETATM   13  H5  UNL     1      22.955  -1.709  56.217  1.00  0.00     0.156 HD
HETATM   14  H6  UNL     1      21.823  -1.478  55.954  1.00  0.00     0.156 HD
ENDBRANCH  10  12
BRANCH  11  15
HETATM   15  C9  UNL     1      25.221   0.262  53.086  1.00  0.00     0.183 C 
HETATM   16  O1  UNL     1      26.191  -0.341  52.564  1.00  0.00    -0.288 OA
BRANCH  15  17
HETATM   17  C10 UNL     1      24.903   1.520  52.430  1.00  0.00     0.014 A 
HETATM   18  C11 UNL     1      25.293   1.761  51.132  1.00  0.00     0.016 A 
HETATM   19  C12 UNL     1      25.006   2.958  50.467  1.00  0.00     0.008 A 
HETATM   20  C13 UNL     1      24.305   3.955  51.109  1.00  0.00    -0.054 A 
HETATM   21  C23 UNL     1      23.900   3.754  52.401  1.00  0.00     0.008 A 
HETATM   22  C24 UNL     1      24.209   2.557  53.009  1.00  0.00     0.016 A 
BRANCH  20  23
HETATM   23  C14 UNL     1      23.983   5.236  50.435  1.00  0.00     0.020 C 
HETATM   24  C15 UNL     1      23.771   6.313  51.448  1.00  0.00     0.011 C 
HETATM   25  C16 UNL     1      23.893   7.675  50.828  1.00  0.00     0.020 C 
HETATM   26  C17 UNL     1      22.902   7.795  49.705  1.00  0.00     0.117 C 
HETATM   27  N3  UNL     1      23.278   7.159  48.504  1.00  0.00    -0.404 N 
HETATM   28  C21 UNL     1      22.793   5.823  48.323  1.00  0.00     0.118 C 
HETATM   29  C22 UNL     1      22.751   5.020  49.584  1.00  0.00     0.029 C 
BRANCH  27  30
HETATM   30  C18 UNL     1      23.347   7.936  47.325  1.00  0.00     0.126 C 
HETATM   31  C19 UNL     1      22.708   7.385  46.089  1.00  0.00     0.194 C 
HETATM   32  O2  UNL     1      21.959   8.553  45.888  1.00  0.00    -0.387 OA
HETATM   33  C20 UNL     1      22.163   8.893  47.236  1.00  0.00     0.194 C 
ENDBRANCH  27  30
ENDBRANCH  20  23
ENDBRANCH  15  17
ENDBRANCH  11  15
ENDBRANCH   9  10
ENDBRANCH   7   9
TORSDOF 7
ENDMDL
MODEL 9
REMARK VINA RESULT:      -7.3      3.721      6.758
REMARK  7 active torsions:
REMARK  status: ('A' for Active; 'I' for Inactive)
REMARK    1  A    between atoms: C5_7  and  C6_8 
REMARK    2  A    between atoms: C6_8  and  C7_9 
REMARK    3  A    between atoms: C7_9  and  N2_10 
REMARK    4  A    between atoms: C8_11  and  C9_12 
REMARK    5  A    between atoms: C9_12  and  C10_14 
REMARK    6  A    between atoms: C13_17  and  C14_18 
REMARK    7  A    between atoms: N3_22  and  C18_23 
ROOT
HETATM    1  N1  UNL     1      21.789   3.868  45.294  1.00  0.00    -0.191 NA
HETATM    2  C1  UNL     1      21.979   3.446  46.375  1.00  0.00     0.099 C 
HETATM    3  C2  UNL     1      22.228   2.928  47.708  1.00  0.00     0.045 A 
HETATM    4  C3  UNL     1      21.433   1.888  48.163  1.00  0.00     0.024 A 
HETATM    5  C4  UNL     1      21.510   1.262  49.390  1.00  0.00     0.018 A 
HETATM    6  P1  UNL     1      22.763   1.888  50.444  1.00  0.00    -0.027 P 
HETATM    7  C5  UNL     1      23.646   3.193  49.678  1.00  0.00    -0.037 A 
HETATM    8  C25 UNL     1      23.245   3.533  48.396  1.00  0.00     0.031 A 
ENDROOT
BRANCH   7   9
HETATM    9  C6  UNL     1      24.759   3.875  50.395  1.00  0.00     0.096 C 
BRANCH   9  10
HETATM   10  C7  UNL     1      24.469   5.275  50.692  1.00  0.00     0.011 C 
HETATM   11  C8  UNL     1      24.647   6.438  50.100  1.00  0.00     0.080 C 
BRANCH  10  12
HETATM   12  N2  UNL     1      23.837   5.204  51.987  1.00  0.00    -0.402 N 
HETATM   13  H5  UNL     1      23.249   5.859  52.536  1.00  0.00     0.156 HD
HETATM   14  H6  UNL     1      23.568   4.778  52.899  1.00  0.00     0.156 HD
ENDBRANCH  10  12
BRANCH  11  15
HETATM   15  C9  UNL     1      25.274   6.600  48.810  1.00  0.00     0.183 C 
HETATM   16  O1  UNL     1      24.650   6.756  47.730  1.00  0.00    -0.288 OA
BRANCH  15  17
HETATM   17  C10 UNL     1      26.718   6.598  48.645  1.00  0.00     0.014 A 
HETATM   18  C11 UNL     1      27.419   5.418  48.543  1.00  0.00     0.016 A 
HETATM   19  C12 UNL     1      28.809   5.376  48.383  1.00  0.00     0.008 A 
HETATM   20  C13 UNL     1      29.534   6.545  48.322  1.00  0.00    -0.054 A 
HETATM   21  C23 UNL     1      28.874   7.740  48.421  1.00  0.00     0.008 A 
HETATM   22  C24 UNL     1      27.505   7.725  48.577  1.00  0.00     0.016 A 
BRANCH  20  23
HETATM   23  C14 UNL     1      31.007   6.538  48.154  1.00  0.00     0.020 C 
HETATM   24  C15 UNL     1      31.574   7.871  48.516  1.00  0.00     0.011 C 
HETATM   25  C16 UNL     1      33.046   7.779  48.794  1.00  0.00     0.020 C 
HETATM   26  C17 UNL     1      33.741   7.213  47.588  1.00  0.00     0.117 C 
HETATM   27  N3  UNL     1      33.631   5.815  47.435  1.00  0.00    -0.404 N 
HETATM   28  C21 UNL     1      32.561   5.358  46.600  1.00  0.00     0.118 C 
HETATM   29  C22 UNL     1      31.312   6.173  46.718  1.00  0.00     0.029 C 
BRANCH  27  30
HETATM   30  C18 UNL     1      34.818   5.053  47.359  1.00  0.00     0.126 C 
HETATM   31  C19 UNL     1      34.844   3.730  48.060  1.00  0.00     0.194 C 
HETATM   32  O2  UNL     1      35.259   3.061  46.900  1.00  0.00    -0.387 OA
HETATM   33  C20 UNL     1      34.804   4.146  46.133  1.00  0.00     0.194 C 
ENDBRANCH  27  30
ENDBRANCH  20  23
ENDBRANCH  15  17
ENDBRANCH  11  15
ENDBRANCH   9  10
ENDBRANCH   7   9
TORSDOF 7
ENDMDL
