MODEL 1
REMARK VINA RESULT:      -6.6      0.000      0.000
REMARK  5 active torsions:
REMARK  status: ('A' for Active; 'I' for Inactive)
REMARK    1  A    between atoms: C2_2  and  S1_3 
REMARK    2  A    between atoms: S1_3  and  C3_4 
REMARK    3  A    between atoms: C4_5  and  N1_6 
REMARK    4  A    between atoms: C5_7  and  C6_8 
REMARK    5  A    between atoms: C12_16  and  N3_17 
ROOT
HETATM    1  C3  UNL     1      26.162   2.355  51.642  1.00  0.00     0.027 C 
HETATM    2  C4  UNL     1      25.023   2.907  52.077  1.00  0.00     0.074 C 
HETATM    3  C5  UNL     1      24.589   3.689  50.925  1.00  0.00     0.219 C 
HETATM    4  N2  UNL     1      23.892   4.892  51.441  1.00  0.00    -0.062 NA
HETATM    5  C12 UNL     1      24.206   6.053  50.944  1.00  0.00     0.719 C 
HETATM    6  N4  UNL     1      25.256   6.330  50.043  1.00  0.00    -0.059 NA
HETATM    7  C13 UNL     1      26.046   5.365  49.634  1.00  0.00     0.227 C 
HETATM    8  N5  UNL     1      25.750   4.090  50.185  1.00  0.00    -0.332 N 
HETATM    9  C14 UNL     1      26.459   2.830  50.259  1.00  0.00     0.175 C 
ENDROOT
BRANCH   3  10
HETATM   10  C6  UNL     1      23.573   2.944  50.097  1.00  0.00     0.001 A 
HETATM   11  C7  UNL     1      23.398   2.949  48.734  1.00  0.00     0.012 A 
HETATM   12  C8  UNL     1      22.404   2.231  48.115  1.00  0.00     0.002 A 
HETATM   13  C9  UNL     1      21.524   1.458  48.843  1.00  0.00     0.019 A 
HETATM   14  C10 UNL     1      21.629   1.394  50.217  1.00  0.00     0.011 A 
HETATM   15 BR1  UNL     1      20.468   0.361  51.305  1.00  0.00    -0.051 Br
HETATM   16  C11 UNL     1      22.647   2.139  50.775  1.00  0.00     0.031 A 
ENDBRANCH   3  10
BRANCH   2  17
HETATM   17  N1  UNL     1      24.389   2.746  53.341  1.00  0.00    -0.398 N 
HETATM   18  H4  UNL     1      23.796   3.595  53.523  1.00  0.00     0.156 HD
HETATM   19  H5  UNL     1      24.425   1.986  54.036  1.00  0.00     0.156 HD
ENDBRANCH   2  17
BRANCH   1  20
HETATM   20  S1  UNL     1      27.160   1.232  52.641  1.00  0.00    -0.103 SA
BRANCH  20  21
HETATM   21  C2  UNL     1      26.814  -0.459  52.171  1.00  0.00     0.040 C 
HETATM   22  C1  UNL     1      25.906  -0.588  53.160  1.00  0.00     0.019 C 
ENDBRANCH  20  21
ENDBRANCH   1  20
BRANCH   5  23
HETATM   23  N3  UNL     1      23.613   7.295  51.332  1.00  0.00    -0.231 N 
HETATM   24  H10 UNL     1      22.588   7.499  51.210  1.00  0.00     0.174 HD
HETATM   25  H11 UNL     1      24.051   8.126  51.759  1.00  0.00     0.174 HD
ENDBRANCH   5  23
TORSDOF 5
ENDMDL
MODEL 2
REMARK VINA RESULT:      -6.5      1.429      1.730
REMARK  5 active torsions:
REMARK  status: ('A' for Active; 'I' for Inactive)
REMARK    1  A    between atoms: C2_2  and  S1_3 
REMARK    2  A    between atoms: S1_3  and  C3_4 
REMARK    3  A    between atoms: C4_5  and  N1_6 
REMARK    4  A    between atoms: C5_7  and  C6_8 
REMARK    5  A    between atoms: C12_16  and  N3_17 
ROOT
HETATM    1  C3  UNL     1      26.220   2.494  51.541  1.00  0.00     0.027 C 
HETATM    2  C4  UNL     1      25.126   3.095  52.025  1.00  0.00     0.074 C 
HETATM    3  C5  UNL     1      24.658   3.872  50.884  1.00  0.00     0.219 C 
HETATM    4  N2  UNL     1      24.032   5.108  51.413  1.00  0.00    -0.062 NA
HETATM    5  C12 UNL     1      24.360   6.248  50.877  1.00  0.00     0.719 C 
HETATM    6  N4  UNL     1      25.368   6.471  49.916  1.00  0.00    -0.059 NA
HETATM    7  C13 UNL     1      26.101   5.471  49.485  1.00  0.00     0.227 C 
HETATM    8  N5  UNL     1      25.790   4.217  50.075  1.00  0.00    -0.332 N 
HETATM    9  C14 UNL     1      26.457   2.934  50.135  1.00  0.00     0.175 C 
ENDROOT
BRANCH   3  10
HETATM   10  C6  UNL     1      23.573   3.149  50.126  1.00  0.00     0.001 A 
HETATM   11  C7  UNL     1      22.886   2.011  50.475  1.00  0.00     0.012 A 
HETATM   12  C8  UNL     1      21.931   1.449  49.664  1.00  0.00     0.002 A 
HETATM   13  C9  UNL     1      21.610   2.008  48.445  1.00  0.00     0.019 A 
HETATM   14  C10 UNL     1      22.251   3.152  48.016  1.00  0.00     0.011 A 
HETATM   15 BR1  UNL     1      21.880   3.996  46.359  1.00  0.00    -0.051 Br
HETATM   16  C11 UNL     1      23.199   3.665  48.877  1.00  0.00     0.031 A 
ENDBRANCH   3  10
BRANCH   2  17
HETATM   17  N1  UNL     1      24.556   2.979  53.324  1.00  0.00    -0.398 N 
HETATM   18  H4  UNL     1      25.274   3.284  54.028  1.00  0.00     0.156 HD
HETATM   19  H5  UNL     1      23.626   2.668  53.642  1.00  0.00     0.156 HD
ENDBRANCH   2  17
BRANCH   1  20
HETATM   20  S1  UNL     1      27.230   1.354  52.508  1.00  0.00    -0.103 SA
BRANCH  20  21
HETATM   21  C2  UNL     1      26.800  -0.331  52.090  1.00  0.00     0.040 C 
HETATM   22  C1  UNL     1      25.869  -0.375  53.066  1.00  0.00     0.019 C 
ENDBRANCH  20  21
ENDBRANCH   1  20
BRANCH   5  23
HETATM   23  N3  UNL     1      23.832   7.517  51.272  1.00  0.00    -0.231 N 
HETATM   24  H10 UNL     1      23.349   7.671  52.193  1.00  0.00     0.174 HD
HETATM   25  H11 UNL     1      23.836   8.416  50.763  1.00  0.00     0.174 HD
ENDBRANCH   5  23
TORSDOF 5
ENDMDL
MODEL 3
REMARK VINA RESULT:      -6.2      2.607      4.471
REMARK  5 active torsions:
REMARK  status: ('A' for Active; 'I' for Inactive)
REMARK    1  A    between atoms: C2_2  and  S1_3 
REMARK    2  A    between atoms: S1_3  and  C3_4 
REMARK    3  A    between atoms: C4_5  and  N1_6 
REMARK    4  A    between atoms: C5_7  and  C6_8 
REMARK    5  A    between atoms: C12_16  and  N3_17 
ROOT
HETATM    1  C3  UNL     1      24.397   4.123  50.254  1.00  0.00     0.027 C 
HETATM    2  C4  UNL     1      23.710   4.283  51.392  1.00  0.00     0.074 C 
HETATM    3  C5  UNL     1      22.817   3.131  51.388  1.00  0.00     0.219 C 
HETATM    4  N2  UNL     1      21.554   3.544  52.047  1.00  0.00    -0.062 NA
HETATM    5  C12 UNL     1      20.427   3.254  51.465  1.00  0.00     0.719 C 
HETATM    6  N4  UNL     1      20.257   2.697  50.180  1.00  0.00    -0.059 NA
HETATM    7  C13 UNL     1      21.304   2.432  49.433  1.00  0.00     0.227 C 
HETATM    8  N5  UNL     1      22.549   2.768  50.027  1.00  0.00    -0.332 N 
HETATM    9  C14 UNL     1      23.900   2.918  49.528  1.00  0.00     0.175 C 
ENDROOT
BRANCH   3  10
HETATM   10  C6  UNL     1      23.366   1.997  52.217  1.00  0.00     0.001 A 
HETATM   11  C7  UNL     1      24.671   1.722  52.548  1.00  0.00     0.012 A 
HETATM   12  C8  UNL     1      25.026   0.629  53.299  1.00  0.00     0.002 A 
HETATM   13  C9  UNL     1      24.077  -0.256  53.766  1.00  0.00     0.019 A 
HETATM   14  C10 UNL     1      22.742  -0.055  53.481  1.00  0.00     0.011 A 
HETATM   15 BR1  UNL     1      21.363  -1.213  54.076  1.00  0.00    -0.051 Br
HETATM   16  C11 UNL     1      22.453   1.061  52.723  1.00  0.00     0.031 A 
ENDBRANCH   3  10
BRANCH   2  17
HETATM   17  N1  UNL     1      23.843   5.310  52.367  1.00  0.00    -0.398 N 
HETATM   18  H4  UNL     1      24.112   4.865  53.281  1.00  0.00     0.156 HD
HETATM   19  H5  UNL     1      23.725   6.332  52.310  1.00  0.00     0.156 HD
ENDBRANCH   2  17
BRANCH   1  20
HETATM   20  S1  UNL     1      25.700   5.251  49.721  1.00  0.00    -0.103 SA
BRANCH  20  21
HETATM   21  C2  UNL     1      27.050   4.316  49.011  1.00  0.00     0.040 C 
HETATM   22  C1  UNL     1      27.637   5.441  48.550  1.00  0.00     0.019 C 
ENDBRANCH  20  21
ENDBRANCH   1  20
BRANCH   5  23
HETATM   23  N3  UNL     1      19.133   3.576  51.985  1.00  0.00    -0.231 N 
HETATM   24  H10 UNL     1      18.242   3.237  51.543  1.00  0.00     0.174 HD
HETATM   25  H11 UNL     1      18.881   4.145  52.809  1.00  0.00     0.174 HD
ENDBRANCH   5  23
TORSDOF 5
ENDMDL
MODEL 4
REMARK VINA RESULT:      -6.2      6.351      7.944
REMARK  5 active torsions:
REMARK  status: ('A' for Active; 'I' for Inactive)
REMARK    1  A    between atoms: C2_2  and  S1_3 
REMARK    2  A    between atoms: S1_3  and  C3_4 
REMARK    3  A    between atoms: C4_5  and  N1_6 
REMARK    4  A    between atoms: C5_7  and  C6_8 
REMARK    5  A    between atoms: C12_16  and  N3_17 
ROOT
HETATM    1  C3  UNL     1      32.162   6.007  47.327  1.00  0.00     0.027 C 
HETATM    2  C4  UNL     1      31.789   6.381  48.557  1.00  0.00     0.074 C 
HETATM    3  C5  UNL     1      30.725   7.341  48.288  1.00  0.00     0.219 C 
HETATM    4  N2  UNL     1      30.770   8.367  49.358  1.00  0.00    -0.062 NA
HETATM    5  C12 UNL     1      30.725   9.622  49.017  1.00  0.00     0.719 C 
HETATM    6  N4  UNL     1      30.776  10.144  47.707  1.00  0.00    -0.059 NA
HETATM    7  C13 UNL     1      30.896   9.336  46.679  1.00  0.00     0.227 C 
HETATM    8  N5  UNL     1      30.981   7.960  47.021  1.00  0.00    -0.332 N 
HETATM    9  C14 UNL     1      31.376   6.763  46.308  1.00  0.00     0.175 C 
ENDROOT
BRANCH   3  10
HETATM   10  C6  UNL     1      29.363   6.702  48.384  1.00  0.00     0.001 A 
HETATM   11  C7  UNL     1      29.036   5.368  48.454  1.00  0.00     0.012 A 
HETATM   12  C8  UNL     1      27.737   4.930  48.514  1.00  0.00     0.002 A 
HETATM   13  C9  UNL     1      26.682   5.818  48.507  1.00  0.00     0.019 A 
HETATM   14  C10 UNL     1      26.919   7.176  48.439  1.00  0.00     0.011 A 
HETATM   15 BR1  UNL     1      25.539   8.476  48.425  1.00  0.00    -0.051 Br
HETATM   16  C11 UNL     1      28.246   7.549  48.382  1.00  0.00     0.031 A 
ENDBRANCH   3  10
BRANCH   2  17
HETATM   17  N1  UNL     1      32.295   5.931  49.809  1.00  0.00    -0.398 N 
HETATM   18  H4  UNL     1      31.479   5.730  50.441  1.00  0.00     0.156 HD
HETATM   19  H5  UNL     1      33.257   5.787  50.150  1.00  0.00     0.156 HD
ENDBRANCH   2  17
BRANCH   1  20
HETATM   20  S1  UNL     1      33.451   4.784  47.015  1.00  0.00    -0.103 SA
BRANCH  20  21
HETATM   21  C2  UNL     1      32.896   3.174  47.562  1.00  0.00     0.040 C 
HETATM   22  C1  UNL     1      32.013   3.091  46.546  1.00  0.00     0.019 C 
ENDBRANCH  20  21
ENDBRANCH   1  20
BRANCH   5  23
HETATM   23  N3  UNL     1      30.748  10.719  49.935  1.00  0.00    -0.231 N 
HETATM   24  H10 UNL     1      31.603  11.309  50.095  1.00  0.00     0.174 HD
HETATM   25  H11 UNL     1      29.994  11.083  50.540  1.00  0.00     0.174 HD
ENDBRANCH   5  23
TORSDOF 5
ENDMDL
MODEL 5
REMARK VINA RESULT:      -6.1      6.320      8.769
REMARK  5 active torsions:
REMARK  status: ('A' for Active; 'I' for Inactive)
REMARK    1  A    between atoms: C2_2  and  S1_3 
REMARK    2  A    between atoms: S1_3  and  C3_4 
REMARK    3  A    between atoms: C4_5  and  N1_6 
REMARK    4  A    between atoms: C5_7  and  C6_8 
REMARK    5  A    between atoms: C12_16  and  N3_17 
ROOT
HETATM    1  C3  UNL     1      31.036   9.013  47.915  1.00  0.00     0.027 C 
HETATM    2  C4  UNL     1      30.749   8.125  46.956  1.00  0.00     0.074 C 
HETATM    3  C5  UNL     1      30.391   6.936  47.721  1.00  0.00     0.219 C 
HETATM    4  N2  UNL     1      30.818   5.754  46.933  1.00  0.00    -0.062 NA
HETATM    5  C12 UNL     1      31.483   4.813  47.538  1.00  0.00     0.719 C 
HETATM    6  N4  UNL     1      31.977   4.842  48.859  1.00  0.00    -0.059 NA
HETATM    7  C13 UNL     1      31.797   5.905  49.607  1.00  0.00     0.227 C 
HETATM    8  N5  UNL     1      31.103   6.965  48.965  1.00  0.00    -0.332 N 
HETATM    9  C14 UNL     1      30.908   8.370  49.255  1.00  0.00     0.175 C 
ENDROOT
BRANCH   3  10
HETATM   10  C6  UNL     1      28.898   6.808  47.883  1.00  0.00     0.001 A 
HETATM   11  C7  UNL     1      27.912   7.705  47.547  1.00  0.00     0.012 A 
HETATM   12  C8  UNL     1      26.581   7.458  47.778  1.00  0.00     0.002 A 
HETATM   13  C9  UNL     1      26.164   6.282  48.366  1.00  0.00     0.019 A 
HETATM   14  C10 UNL     1      27.088   5.326  48.735  1.00  0.00     0.011 A 
HETATM   15 BR1  UNL     1      26.615   3.678  49.548  1.00  0.00    -0.051 Br
HETATM   16  C11 UNL     1      28.407   5.636  48.475  1.00  0.00     0.031 A 
ENDBRANCH   3  10
BRANCH   2  17
HETATM   17  N1  UNL     1      30.769   8.310  45.545  1.00  0.00    -0.398 N 
HETATM   18  H4  UNL     1      30.861   7.367  45.090  1.00  0.00     0.156 HD
HETATM   19  H5  UNL     1      30.710   9.158  44.962  1.00  0.00     0.156 HD
ENDBRANCH   2  17
BRANCH   1  20
HETATM   20  S1  UNL     1      31.525  10.715  47.570  1.00  0.00    -0.103 SA
BRANCH  20  21
HETATM   21  C2  UNL     1      30.134  11.806  47.841  1.00  0.00     0.040 C 
HETATM   22  C1  UNL     1      30.623  12.195  49.037  1.00  0.00     0.019 C 
ENDBRANCH  20  21
ENDBRANCH   1  20
BRANCH   5  23
HETATM   23  N3  UNL     1      31.949   3.613  46.914  1.00  0.00    -0.231 N 
HETATM   24  H10 UNL     1      31.299   2.895  46.503  1.00  0.00     0.174 HD
HETATM   25  H11 UNL     1      32.916   3.279  46.775  1.00  0.00     0.174 HD
ENDBRANCH   5  23
TORSDOF 5
ENDMDL
MODEL 6
REMARK VINA RESULT:      -5.8      7.010      8.578
REMARK  5 active torsions:
REMARK  status: ('A' for Active; 'I' for Inactive)
REMARK    1  A    between atoms: C2_2  and  S1_3 
REMARK    2  A    between atoms: S1_3  and  C3_4 
REMARK    3  A    between atoms: C4_5  and  N1_6 
REMARK    4  A    between atoms: C5_7  and  C6_8 
REMARK    5  A    between atoms: C12_16  and  N3_17 
ROOT
HETATM    1  C3  UNL     1      31.997   7.612  47.574  1.00  0.00     0.027 C 
HETATM    2  C4  UNL     1      31.373   8.082  48.662  1.00  0.00     0.074 C 
HETATM    3  C5  UNL     1      30.501   9.110  48.108  1.00  0.00     0.219 C 
HETATM    4  N2  UNL     1      30.380  10.185  49.123  1.00  0.00    -0.062 NA
HETATM    5  C12 UNL     1      30.536  11.419  48.741  1.00  0.00     0.719 C 
HETATM    6  N4  UNL     1      30.952  11.864  47.468  1.00  0.00    -0.059 NA
HETATM    7  C13 UNL     1      31.242  10.994  46.528  1.00  0.00     0.227 C 
HETATM    8  N5  UNL     1      31.112   9.637  46.924  1.00  0.00    -0.332 N 
HETATM    9  C14 UNL     1      31.556   8.375  46.370  1.00  0.00     0.175 C 
ENDROOT
BRANCH   3  10
HETATM   10  C6  UNL     1      29.102   8.592  47.885  1.00  0.00     0.001 A 
HETATM   11  C7  UNL     1      28.017   9.238  47.342  1.00  0.00     0.012 A 
HETATM   12  C8  UNL     1      26.787   8.640  47.222  1.00  0.00     0.002 A 
HETATM   13  C9  UNL     1      26.579   7.345  47.645  1.00  0.00     0.019 A 
HETATM   14  C10 UNL     1      27.614   6.622  48.202  1.00  0.00     0.011 A 
HETATM   15 BR1  UNL     1      27.428   4.836  48.814  1.00  0.00    -0.051 Br
HETATM   16  C11 UNL     1      28.822   7.281  48.294  1.00  0.00     0.031 A 
ENDBRANCH   3  10
BRANCH   2  17
HETATM   17  N1  UNL     1      31.516   7.660  50.014  1.00  0.00    -0.398 N 
HETATM   18  H4  UNL     1      30.623   7.879  50.523  1.00  0.00     0.156 HD
HETATM   19  H5  UNL     1      32.297   7.212  50.515  1.00  0.00     0.156 HD
ENDBRANCH   2  17
BRANCH   1  20
HETATM   20  S1  UNL     1      33.203   6.272  47.629  1.00  0.00    -0.103 SA
BRANCH  20  21
HETATM   21  C2  UNL     1      32.430   4.794  48.276  1.00  0.00     0.040 C 
HETATM   22  C1  UNL     1      31.666   4.665  47.171  1.00  0.00     0.019 C 
ENDBRANCH  20  21
ENDBRANCH   1  20
BRANCH   5  23
HETATM   23  N3  UNL     1      30.437  12.559  49.600  1.00  0.00    -0.231 N 
HETATM   24  H10 UNL     1      30.350  12.478  50.645  1.00  0.00     0.174 HD
HETATM   25  H11 UNL     1      30.436  13.563  49.360  1.00  0.00     0.174 HD
ENDBRANCH   5  23
TORSDOF 5
ENDMDL
MODEL 7
REMARK VINA RESULT:      -5.8      3.333      5.290
REMARK  5 active torsions:
REMARK  status: ('A' for Active; 'I' for Inactive)
REMARK    1  A    between atoms: C2_2  and  S1_3 
REMARK    2  A    between atoms: S1_3  and  C3_4 
REMARK    3  A    between atoms: C4_5  and  N1_6 
REMARK    4  A    between atoms: C5_7  and  C6_8 
REMARK    5  A    between atoms: C12_16  and  N3_17 
ROOT
HETATM    1  C3  UNL     1      20.390   2.411  50.793  1.00  0.00     0.027 C 
HETATM    2  C4  UNL     1      21.470   1.918  50.175  1.00  0.00     0.074 C 
HETATM    3  C5  UNL     1      22.555   2.322  51.061  1.00  0.00     0.219 C 
HETATM    4  N2  UNL     1      23.748   2.578  50.217  1.00  0.00    -0.062 NA
HETATM    5  C12 UNL     1      24.420   3.675  50.410  1.00  0.00     0.719 C 
HETATM    6  N4  UNL     1      24.066   4.745  51.258  1.00  0.00    -0.059 NA
HETATM    7  C13 UNL     1      22.946   4.703  51.942  1.00  0.00     0.227 C 
HETATM    8  N5  UNL     1      22.172   3.531  51.728  1.00  0.00    -0.332 N 
HETATM    9  C14 UNL     1      20.804   3.155  52.018  1.00  0.00     0.175 C 
ENDROOT
BRANCH   3  10
HETATM   10  C6  UNL     1      22.946   1.212  52.004  1.00  0.00     0.001 A 
HETATM   11  C7  UNL     1      22.236   0.089  52.359  1.00  0.00     0.012 A 
HETATM   12  C8  UNL     1      22.715  -0.832  53.257  1.00  0.00     0.002 A 
HETATM   13  C9  UNL     1      23.948  -0.675  53.854  1.00  0.00     0.019 A 
HETATM   14  C10 UNL     1      24.728   0.424  53.554  1.00  0.00     0.011 A 
HETATM   15 BR1  UNL     1      26.436   0.730  54.320  1.00  0.00    -0.051 Br
HETATM   16  C11 UNL     1      24.189   1.310  52.645  1.00  0.00     0.031 A 
ENDBRANCH   3  10
BRANCH   2  17
HETATM   17  N1  UNL     1      21.531   1.168  48.967  1.00  0.00    -0.398 N 
HETATM   18  H4  UNL     1      22.304   1.562  48.373  1.00  0.00     0.156 HD
HETATM   19  H5  UNL     1      20.979   0.368  48.626  1.00  0.00     0.156 HD
ENDBRANCH   2  17
BRANCH   1  20
HETATM   20  S1  UNL     1      18.711   2.196  50.169  1.00  0.00    -0.103 SA
BRANCH  20  21
HETATM   21  C2  UNL     1      17.732   1.307  51.375  1.00  0.00     0.040 C 
HETATM   22  C1  UNL     1      18.440   0.177  51.173  1.00  0.00     0.019 C 
ENDBRANCH  20  21
ENDBRANCH   1  20
BRANCH   5  23
HETATM   23  N3  UNL     1      25.594   4.051  49.684  1.00  0.00    -0.231 N 
HETATM   24  H10 UNL     1      25.790   5.043  49.394  1.00  0.00     0.174 HD
HETATM   25  H11 UNL     1      26.377   3.465  49.354  1.00  0.00     0.174 HD
ENDBRANCH   5  23
TORSDOF 5
ENDMDL
MODEL 8
REMARK VINA RESULT:      -5.7      5.230      7.363
REMARK  5 active torsions:
REMARK  status: ('A' for Active; 'I' for Inactive)
REMARK    1  A    between atoms: C2_2  and  S1_3 
REMARK    2  A    between atoms: S1_3  and  C3_4 
REMARK    3  A    between atoms: C4_5  and  N1_6 
REMARK    4  A    between atoms: C5_7  and  C6_8 
REMARK    5  A    between atoms: C12_16  and  N3_17 
ROOT
HETATM    1  C3  UNL     1      30.435   7.966  48.306  1.00  0.00     0.027 C 
HETATM    2  C4  UNL     1      29.344   8.531  48.836  1.00  0.00     0.074 C 
HETATM    3  C5  UNL     1      28.283   8.065  47.950  1.00  0.00     0.219 C 
HETATM    4  N2  UNL     1      27.261   9.137  47.878  1.00  0.00    -0.062 NA
HETATM    5  C12 UNL     1      26.815   9.491  46.707  1.00  0.00     0.719 C 
HETATM    6  N4  UNL     1      27.298   9.061  45.454  1.00  0.00    -0.059 NA
HETATM    7  C13 UNL     1      28.310   8.228  45.387  1.00  0.00     0.227 C 
HETATM    8  N5  UNL     1      28.841   7.847  46.648  1.00  0.00    -0.332 N 
HETATM    9  C14 UNL     1      30.065   7.204  47.078  1.00  0.00     0.175 C 
ENDROOT
BRANCH   3  10
HETATM   10  C6  UNL     1      27.578   6.857  48.514  1.00  0.00     0.001 A 
HETATM   11  C7  UNL     1      27.887   5.527  48.361  1.00  0.00     0.012 A 
HETATM   12  C8  UNL     1      27.132   4.525  48.920  1.00  0.00     0.002 A 
HETATM   13  C9  UNL     1      26.013   4.811  49.674  1.00  0.00     0.019 A 
HETATM   14  C10 UNL     1      25.631   6.121  49.879  1.00  0.00     0.011 A 
HETATM   15 BR1  UNL     1      24.110   6.616  50.898  1.00  0.00    -0.051 Br
HETATM   16  C11 UNL     1      26.432   7.077  49.290  1.00  0.00     0.031 A 
ENDBRANCH   3  10
BRANCH   2  17
HETATM   17  N1  UNL     1      29.249   9.359  49.990  1.00  0.00    -0.398 N 
HETATM   18  H4  UNL     1      29.949   9.020  50.697  1.00  0.00     0.156 HD
HETATM   19  H5  UNL     1      28.647  10.167  50.209  1.00  0.00     0.156 HD
ENDBRANCH   2  17
BRANCH   1  20
HETATM   20  S1  UNL     1      32.087   8.161  49.006  1.00  0.00    -0.103 SA
BRANCH  20  21
HETATM   21  C2  UNL     1      33.303   8.119  47.695  1.00  0.00     0.040 C 
HETATM   22  C1  UNL     1      34.291   7.835  48.569  1.00  0.00     0.019 C 
ENDBRANCH  20  21
ENDBRANCH   1  20
BRANCH   5  23
HETATM   23  N3  UNL     1      25.823  10.497  46.481  1.00  0.00    -0.231 N 
HETATM   24  H10 UNL     1      25.328  10.611  45.561  1.00  0.00     0.174 HD
HETATM   25  H11 UNL     1      25.460  11.217  47.127  1.00  0.00     0.174 HD
ENDBRANCH   5  23
TORSDOF 5
ENDMDL
MODEL 9
REMARK VINA RESULT:      -5.7      8.457     10.943
REMARK  5 active torsions:
REMARK  status: ('A' for Active; 'I' for Inactive)
REMARK    1  A    between atoms: C2_2  and  S1_3 
REMARK    2  A    between atoms: S1_3  and  C3_4 
REMARK    3  A    between atoms: C4_5  and  N1_6 
REMARK    4  A    between atoms: C5_7  and  C6_8 
REMARK    5  A    between atoms: C12_16  and  N3_17 
ROOT
HETATM    1  C3  UNL     1      31.036   6.023  47.869  1.00  0.00     0.027 C 
HETATM    2  C4  UNL     1      31.803   6.687  48.743  1.00  0.00     0.074 C 
HETATM    3  C5  UNL     1      33.075   6.787  48.036  1.00  0.00     0.219 C 
HETATM    4  N2  UNL     1      34.154   6.740  49.053  1.00  0.00    -0.062 NA
HETATM    5  C12 UNL     1      35.162   5.941  48.850  1.00  0.00     0.719 C 
HETATM    6  N4  UNL     1      35.291   4.989  47.817  1.00  0.00    -0.059 NA
HETATM    7  C13 UNL     1      34.325   4.828  46.943  1.00  0.00     0.227 C 
HETATM    8  N5  UNL     1      33.196   5.663  47.156  1.00  0.00    -0.332 N 
HETATM    9  C14 UNL     1      31.836   5.670  46.660  1.00  0.00     0.175 C 
ENDROOT
BRANCH   3  10
HETATM   10  C6  UNL     1      33.220   8.117  47.340  1.00  0.00     0.001 A 
HETATM   11  C7  UNL     1      34.082   8.473  46.330  1.00  0.00     0.012 A 
HETATM   12  C8  UNL     1      34.117   9.742  45.804  1.00  0.00     0.002 A 
HETATM   13  C9  UNL     1      33.277  10.731  46.270  1.00  0.00     0.019 A 
HETATM   14  C10 UNL     1      32.380  10.459  47.282  1.00  0.00     0.011 A 
HETATM   15 BR1  UNL     1      31.184  11.751  47.990  1.00  0.00    -0.051 Br
HETATM   16  C11 UNL     1      32.396   9.168  47.765  1.00  0.00     0.031 A 
ENDBRANCH   3  10
BRANCH   2  17
HETATM   17  N1  UNL     1      31.450   7.187  50.028  1.00  0.00    -0.398 N 
HETATM   18  H4  UNL     1      30.601   6.665  50.362  1.00  0.00     0.156 HD
HETATM   19  H5  UNL     1      31.869   7.918  50.620  1.00  0.00     0.156 HD
ENDBRANCH   2  17
BRANCH   1  20
HETATM   20  S1  UNL     1      29.306   5.620  48.182  1.00  0.00    -0.103 SA
BRANCH  20  21
HETATM   21  C2  UNL     1      28.312   7.102  48.050  1.00  0.00     0.040 C 
HETATM   22  C1  UNL     1      27.194   6.428  48.394  1.00  0.00     0.019 C 
ENDBRANCH  20  21
ENDBRANCH   1  20
BRANCH   5  23
HETATM   23  N3  UNL     1      36.279   5.797  49.732  1.00  0.00    -0.231 N 
HETATM   24  H10 UNL     1      36.370   4.996  50.408  1.00  0.00     0.174 HD
HETATM   25  H11 UNL     1      37.109   6.401  49.843  1.00  0.00     0.174 HD
ENDBRANCH   5  23
TORSDOF 5
ENDMDL
