MODEL 1
REMARK VINA RESULT:      -8.8      0.000      0.000
REMARK  1 active torsions:
REMARK  status: ('A' for Active; 'I' for Inactive)
REMARK    1  A    between atoms: O1_2  and  C2_3 
ROOT
HETATM    1  C2  UNL     1      22.320   3.465  48.765  1.00  0.00     0.080 C 
HETATM    2  C3  UNL     1      22.351   4.070  47.560  1.00  0.00     0.040 C 
HETATM    3  C4  UNL     1      22.595   5.489  47.488  1.00  0.00     0.061 C 
HETATM    4  C5  UNL     1      22.582   6.619  48.183  1.00  0.00     0.170 C 
HETATM    5  N1  UNL     1      22.422   7.530  49.208  1.00  0.00    -0.218 NA
HETATM    6  C6  UNL     1      22.067   7.096  50.433  1.00  0.00     0.235 C 
HETATM    7  N2  UNL     1      22.796   6.152  51.070  1.00  0.00    -0.247 NA
HETATM    8  C7  UNL     1      23.225   5.105  50.277  1.00  0.00     0.063 C 
HETATM    9  C8  UNL     1      24.373   5.586  49.648  1.00  0.00     0.053 A 
HETATM   10  C9  UNL     1      24.414   6.570  48.637  1.00  0.00     0.078 A 
HETATM   11  C10 UNL     1      24.516   7.512  47.664  1.00  0.00     0.075 A 
HETATM   12  C11 UNL     1      25.918   7.327  47.749  1.00  0.00     0.038 A 
HETATM   13  C12 UNL     1      26.461   6.415  48.630  1.00  0.00     0.023 A 
HETATM   14  C13 UNL     1      25.810   5.623  49.486  1.00  0.00     0.008 A 
HETATM   15  N3  UNL     1      25.853   4.608  50.368  1.00  0.00    -0.213 NA
HETATM   16  C14 UNL     1      26.344   3.351  50.792  1.00  0.00     0.298 C 
HETATM   17  O2  UNL     1      27.204   2.622  50.254  1.00  0.00    -0.254 OA
HETATM   18  N4  UNL     1      25.841   2.775  51.972  1.00  0.00    -0.343 N 
HETATM   19  C15 UNL     1      25.329   2.180  53.178  1.00  0.00     0.088 C 
HETATM   20  C16 UNL     1      24.989   0.714  53.135  1.00  0.00     0.025 C 
HETATM   21  C17 UNL     1      23.566   0.315  53.264  1.00  0.00     0.004 C 
HETATM   22  C18 UNL     1      22.624   0.947  52.224  1.00  0.00     0.032 C 
HETATM   23  C19 UNL     1      23.427   2.080  51.706  1.00  0.00     0.125 C 
HETATM   24  C20 UNL     1      23.878   2.736  53.033  1.00  0.00     0.057 C 
HETATM   25  O3  UNL     1      23.277   2.825  50.698  1.00  0.00    -0.368 OA
HETATM   26  C21 UNL     1      22.499   3.754  50.190  1.00  0.00     0.227 C 
HETATM   27  O4  UNL     1      23.152   7.745  47.530  1.00  0.00    -0.292 OA
HETATM   28  H10 UNL     1      26.521   4.271  49.649  1.00  0.00     0.138 HD
HETATM   29  H11 UNL     1      26.472   1.906  52.063  1.00  0.00     0.164 HD
ENDROOT
BRANCH   1  30
HETATM   30  O1  UNL     1      22.043   2.084  48.641  1.00  0.00    -0.357 OA
HETATM   31  C1  UNL     1      20.793   1.501  48.824  1.00  0.00     0.209 C 
ENDBRANCH   1  30
TORSDOF 1
ENDMDL
MODEL 2
REMARK VINA RESULT:      -8.7      5.164      8.642
REMARK  1 active torsions:
REMARK  status: ('A' for Active; 'I' for Inactive)
REMARK    1  A    between atoms: O1_2  and  C2_3 
ROOT
HETATM    1  C2  UNL     1      29.311   9.616  48.905  1.00  0.00     0.080 C 
HETATM    2  C3  UNL     1      28.216   9.553  49.688  1.00  0.00     0.040 C 
HETATM    3  C4  UNL     1      27.030   8.900  49.194  1.00  0.00     0.061 C 
HETATM    4  C5  UNL     1      26.411   8.481  48.098  1.00  0.00     0.170 C 
HETATM    5  N1  UNL     1      26.107   8.227  46.775  1.00  0.00    -0.218 NA
HETATM    6  C6  UNL     1      27.001   8.541  45.816  1.00  0.00     0.235 C 
HETATM    7  N2  UNL     1      28.263   8.060  45.864  1.00  0.00    -0.247 NA
HETATM    8  C7  UNL     1      28.851   8.074  47.115  1.00  0.00     0.063 C 
HETATM    9  C8  UNL     1      28.375   6.922  47.740  1.00  0.00     0.053 A 
HETATM   10  C9  UNL     1      27.055   6.710  48.194  1.00  0.00     0.078 A 
HETATM   11  C10 UNL     1      25.803   6.448  48.648  1.00  0.00     0.075 A 
HETATM   12  C11 UNL     1      26.293   5.170  49.013  1.00  0.00     0.038 A 
HETATM   13  C12 UNL     1      27.609   4.825  48.789  1.00  0.00     0.023 A 
HETATM   14  C13 UNL     1      28.564   5.573  48.231  1.00  0.00     0.008 A 
HETATM   15  N3  UNL     1      29.864   5.732  47.923  1.00  0.00    -0.213 NA
HETATM   16  C14 UNL     1      31.238   5.597  48.230  1.00  0.00     0.298 C 
HETATM   17  O2  UNL     1      31.771   5.075  49.232  1.00  0.00    -0.254 OA
HETATM   18  N4  UNL     1      32.198   6.101  47.335  1.00  0.00    -0.343 N 
HETATM   19  C15 UNL     1      33.186   6.614  46.424  1.00  0.00     0.088 C 
HETATM   20  C16 UNL     1      34.335   7.387  47.014  1.00  0.00     0.025 C 
HETATM   21  C17 UNL     1      34.441   8.836  46.714  1.00  0.00     0.004 C 
HETATM   22  C18 UNL     1      33.200   9.663  47.096  1.00  0.00     0.032 C 
HETATM   23  C19 UNL     1      32.155   8.625  47.253  1.00  0.00     0.125 C 
HETATM   24  C20 UNL     1      32.343   7.833  45.936  1.00  0.00     0.057 C 
HETATM   25  O3  UNL     1      30.999   8.665  47.760  1.00  0.00    -0.368 OA
HETATM   26  C21 UNL     1      29.801   9.181  47.594  1.00  0.00     0.227 C 
HETATM   27  O4  UNL     1      25.256   7.682  48.316  1.00  0.00    -0.292 OA
HETATM   28  H10 UNL     1      29.936   5.293  48.861  1.00  0.00     0.138 HD
HETATM   29  H11 UNL     1      33.110   5.758  47.797  1.00  0.00     0.164 HD
ENDROOT
BRANCH   1  30
HETATM   30  O1  UNL     1      30.363  10.314  49.544  1.00  0.00    -0.357 OA
HETATM   31  C1  UNL     1      30.715  11.635  49.288  1.00  0.00     0.209 C 
ENDBRANCH   1  30
TORSDOF 1
ENDMDL
MODEL 3
REMARK VINA RESULT:      -8.0      1.748      6.305
REMARK  1 active torsions:
REMARK  status: ('A' for Active; 'I' for Inactive)
REMARK    1  A    between atoms: O1_2  and  C2_3 
ROOT
HETATM    1  C2  UNL     1      26.039   4.210  49.642  1.00  0.00     0.080 C 
HETATM    2  C3  UNL     1      26.415   3.022  50.158  1.00  0.00     0.040 C 
HETATM    3  C4  UNL     1      25.680   2.469  51.268  1.00  0.00     0.061 C 
HETATM    4  C5  UNL     1      24.838   2.759  52.251  1.00  0.00     0.170 C 
HETATM    5  N1  UNL     1      24.016   3.454  53.116  1.00  0.00    -0.218 NA
HETATM    6  C6  UNL     1      23.793   4.767  52.910  1.00  0.00     0.235 C 
HETATM    7  N2  UNL     1      23.314   5.208  51.725  1.00  0.00    -0.247 NA
HETATM    8  C7  UNL     1      23.872   4.618  50.607  1.00  0.00     0.063 C 
HETATM    9  C8  UNL     1      23.175   3.419  50.457  1.00  0.00     0.053 A 
HETATM   10  C9  UNL     1      23.279   2.289  51.295  1.00  0.00     0.078 A 
HETATM   11  C10 UNL     1      23.336   1.172  52.066  1.00  0.00     0.075 A 
HETATM   12  C11 UNL     1      22.347   0.631  51.207  1.00  0.00     0.038 A 
HETATM   13  C12 UNL     1      21.859   1.357  50.142  1.00  0.00     0.023 A 
HETATM   14  C13 UNL     1      22.202   2.594  49.774  1.00  0.00     0.008 A 
HETATM   15  N3  UNL     1      22.119   3.585  48.868  1.00  0.00    -0.213 NA
HETATM   16  C14 UNL     1      22.060   4.044  47.531  1.00  0.00     0.298 C 
HETATM   17  O2  UNL     1      22.034   3.380  46.474  1.00  0.00    -0.254 OA
HETATM   18  N4  UNL     1      22.030   5.427  47.276  1.00  0.00    -0.343 N 
HETATM   19  C15 UNL     1      21.999   6.840  47.008  1.00  0.00     0.088 C 
HETATM   20  C16 UNL     1      22.886   7.354  45.906  1.00  0.00     0.025 C 
HETATM   21  C17 UNL     1      24.019   8.241  46.267  1.00  0.00     0.004 C 
HETATM   22  C18 UNL     1      25.003   7.643  47.289  1.00  0.00     0.032 C 
HETATM   23  C19 UNL     1      24.223   6.528  47.875  1.00  0.00     0.125 C 
HETATM   24  C20 UNL     1      22.899   7.256  48.213  1.00  0.00     0.057 C 
HETATM   25  O3  UNL     1      24.565   5.553  48.601  1.00  0.00    -0.368 OA
HETATM   26  C21 UNL     1      25.015   5.247  49.797  1.00  0.00     0.227 C 
HETATM   27  O4  UNL     1      24.304   1.641  52.947  1.00  0.00    -0.292 OA
HETATM   28  H10 UNL     1      22.165   2.755  48.247  1.00  0.00     0.138 HD
HETATM   29  H11 UNL     1      21.887   5.436  46.208  1.00  0.00     0.164 HD
ENDROOT
BRANCH   1  30
HETATM   30  O1  UNL     1      26.890   4.604  48.583  1.00  0.00    -0.357 OA
HETATM   31  C1  UNL     1      27.959   5.486  48.703  1.00  0.00     0.209 C 
ENDBRANCH   1  30
TORSDOF 1
ENDMDL
MODEL 4
REMARK VINA RESULT:      -7.8      5.592      8.859
REMARK  1 active torsions:
REMARK  status: ('A' for Active; 'I' for Inactive)
REMARK    1  A    between atoms: O1_2  and  C2_3 
ROOT
HETATM    1  C2  UNL     1      30.022   6.073  48.487  1.00  0.00     0.080 C 
HETATM    2  C3  UNL     1      28.846   5.437  48.311  1.00  0.00     0.040 C 
HETATM    3  C4  UNL     1      27.620   6.195  48.349  1.00  0.00     0.061 C 
HETATM    4  C5  UNL     1      27.075   7.337  48.745  1.00  0.00     0.170 C 
HETATM    5  N1  UNL     1      26.901   8.584  49.311  1.00  0.00    -0.218 NA
HETATM    6  C6  UNL     1      27.961   9.230  49.836  1.00  0.00     0.235 C 
HETATM    7  N2  UNL     1      29.066   9.461  49.091  1.00  0.00    -0.247 NA
HETATM    8  C7  UNL     1      29.470   8.407  48.294  1.00  0.00     0.063 C 
HETATM    9  C8  UNL     1      28.669   8.499  47.156  1.00  0.00     0.053 A 
HETATM   10  C9  UNL     1      27.288   8.220  47.090  1.00  0.00     0.078 A 
HETATM   11  C10 UNL     1      25.960   7.967  46.965  1.00  0.00     0.075 A 
HETATM   12  C11 UNL     1      26.098   8.355  45.610  1.00  0.00     0.038 A 
HETATM   13  C12 UNL     1      27.321   8.743  45.105  1.00  0.00     0.023 A 
HETATM   14  C13 UNL     1      28.485   8.817  45.756  1.00  0.00     0.008 A 
HETATM   15  N3  UNL     1      29.816   9.002  45.708  1.00  0.00    -0.213 NA
HETATM   16  C14 UNL     1      31.072   8.830  45.080  1.00  0.00     0.298 C 
HETATM   17  O2  UNL     1      31.336   8.274  43.993  1.00  0.00    -0.254 OA
HETATM   18  N4  UNL     1      32.231   9.320  45.708  1.00  0.00    -0.343 N 
HETATM   19  C15 UNL     1      33.421   9.819  46.344  1.00  0.00     0.088 C 
HETATM   20  C16 UNL     1      34.625   8.915  46.363  1.00  0.00     0.025 C 
HETATM   21  C17 UNL     1      35.091   8.386  47.668  1.00  0.00     0.004 C 
HETATM   22  C18 UNL     1      34.028   7.606  48.462  1.00  0.00     0.032 C 
HETATM   23  C19 UNL     1      32.765   8.025  47.809  1.00  0.00     0.125 C 
HETATM   24  C20 UNL     1      32.944   9.562  47.808  1.00  0.00     0.057 C 
HETATM   25  O3  UNL     1      31.591   7.565  47.877  1.00  0.00    -0.368 OA
HETATM   26  C21 UNL     1      30.572   7.415  48.694  1.00  0.00     0.227 C 
HETATM   27  O4  UNL     1      25.752   7.574  48.283  1.00  0.00    -0.292 OA
HETATM   28  H10 UNL     1      29.663   8.451  44.842  1.00  0.00     0.138 HD
HETATM   29  H11 UNL     1      32.973   9.125  44.951  1.00  0.00     0.164 HD
ENDROOT
BRANCH   1  30
HETATM   30  O1  UNL     1      31.108   5.167  48.445  1.00  0.00    -0.357 OA
HETATM   31  C1  UNL     1      31.441   4.369  47.355  1.00  0.00     0.209 C 
ENDBRANCH   1  30
TORSDOF 1
ENDMDL
MODEL 5
REMARK VINA RESULT:      -7.7      3.210      6.307
REMARK  1 active torsions:
REMARK  status: ('A' for Active; 'I' for Inactive)
REMARK    1  A    between atoms: O1_2  and  C2_3 
ROOT
HETATM    1  C2  UNL     1      21.695   3.121  49.046  1.00  0.00     0.080 C 
HETATM    2  C3  UNL     1      22.914   2.551  48.965  1.00  0.00     0.040 C 
HETATM    3  C4  UNL     1      23.770   2.543  50.126  1.00  0.00     0.061 C 
HETATM    4  C5  UNL     1      23.987   3.110  51.304  1.00  0.00     0.170 C 
HETATM    5  N1  UNL     1      23.884   3.941  52.403  1.00  0.00    -0.218 NA
HETATM    6  C6  UNL     1      22.865   4.819  52.479  1.00  0.00     0.235 C 
HETATM    7  N2  UNL     1      21.583   4.400  52.380  1.00  0.00    -0.247 NA
HETATM    8  C7  UNL     1      21.348   3.449  51.405  1.00  0.00     0.063 C 
HETATM    9  C8  UNL     1      21.711   2.240  51.998  1.00  0.00     0.053 A 
HETATM   10  C9  UNL     1      23.026   1.827  52.301  1.00  0.00     0.078 A 
HETATM   11  C10 UNL     1      24.268   1.377  52.616  1.00  0.00     0.075 A 
HETATM   12  C11 UNL     1      23.626   0.229  53.145  1.00  0.00     0.038 A 
HETATM   13  C12 UNL     1      22.254   0.101  53.100  1.00  0.00     0.023 A 
HETATM   14  C13 UNL     1      21.371   0.967  52.597  1.00  0.00     0.008 A 
HETATM   15  N3  UNL     1      20.100   1.237  52.249  1.00  0.00    -0.213 NA
HETATM   16  C14 UNL     1      18.852   0.850  51.706  1.00  0.00     0.298 C 
HETATM   17  O2  UNL     1      18.492  -0.269  51.286  1.00  0.00    -0.254 OA
HETATM   18  N4  UNL     1      17.826   1.804  51.585  1.00  0.00    -0.343 N 
HETATM   19  C15 UNL     1      16.772   2.775  51.459  1.00  0.00     0.088 C 
HETATM   20  C16 UNL     1      16.001   2.793  50.166  1.00  0.00     0.025 C 
HETATM   21  C17 UNL     1      16.133   3.977  49.281  1.00  0.00     0.004 C 
HETATM   22  C18 UNL     1      17.577   4.305  48.859  1.00  0.00     0.032 C 
HETATM   23  C19 UNL     1      18.383   3.549  49.846  1.00  0.00     0.125 C 
HETATM   24  C20 UNL     1      17.704   3.992  51.164  1.00  0.00     0.057 C 
HETATM   25  O3  UNL     1      19.610   3.256  49.881  1.00  0.00    -0.368 OA
HETATM   26  C21 UNL     1      20.808   3.783  50.007  1.00  0.00     0.227 C 
HETATM   27  O4  UNL     1      24.962   2.474  52.118  1.00  0.00    -0.292 OA
HETATM   28  H10 UNL     1      20.176   0.244  51.959  1.00  0.00     0.138 HD
HETATM   29  H11 UNL     1      17.010   1.187  51.247  1.00  0.00     0.164 HD
ENDROOT
BRANCH   1  30
HETATM   30  O1  UNL     1      21.014   3.058  47.808  1.00  0.00    -0.357 OA
HETATM   31  C1  UNL     1      21.455   3.639  46.623  1.00  0.00     0.209 C 
ENDBRANCH   1  30
TORSDOF 1
ENDMDL
MODEL 6
REMARK VINA RESULT:      -7.7      3.965      6.344
REMARK  1 active torsions:
REMARK  status: ('A' for Active; 'I' for Inactive)
REMARK    1  A    between atoms: O1_2  and  C2_3 
ROOT
HETATM    1  C2  UNL     1      21.363   1.224  52.424  1.00  0.00     0.080 C 
HETATM    2  C3  UNL     1      22.393   2.084  52.556  1.00  0.00     0.040 C 
HETATM    3  C4  UNL     1      22.882   2.785  51.395  1.00  0.00     0.061 C 
HETATM    4  C5  UNL     1      22.903   2.783  50.068  1.00  0.00     0.170 C 
HETATM    5  N1  UNL     1      22.707   2.419  48.751  1.00  0.00    -0.218 NA
HETATM    6  C6  UNL     1      21.938   1.351  48.463  1.00  0.00     0.235 C 
HETATM    7  N2  UNL     1      20.667   1.272  48.920  1.00  0.00    -0.247 NA
HETATM    8  C7  UNL     1      20.486   1.678  50.228  1.00  0.00     0.063 C 
HETATM    9  C8  UNL     1      20.387   3.067  50.156  1.00  0.00     0.053 A 
HETATM   10  C9  UNL     1      21.441   3.959  49.864  1.00  0.00     0.078 A 
HETATM   11  C10 UNL     1      22.414   4.865  49.588  1.00  0.00     0.075 A 
HETATM   12  C11 UNL     1      21.407   5.855  49.697  1.00  0.00     0.038 A 
HETATM   13  C12 UNL     1      20.105   5.512  49.996  1.00  0.00     0.023 A 
HETATM   14  C13 UNL     1      19.614   4.289  50.210  1.00  0.00     0.008 A 
HETATM   15  N3  UNL     1      18.580   3.520  50.597  1.00  0.00    -0.213 NA
HETATM   16  C14 UNL     1      17.468   3.263  51.432  1.00  0.00     0.298 C 
HETATM   17  O2  UNL     1      16.982   3.977  52.335  1.00  0.00    -0.254 OA
HETATM   18  N4  UNL     1      16.761   2.056  51.289  1.00  0.00    -0.343 N 
HETATM   19  C15 UNL     1      16.034   0.822  51.149  1.00  0.00     0.088 C 
HETATM   20  C16 UNL     1      15.661   0.092  52.412  1.00  0.00     0.025 C 
HETATM   21  C17 UNL     1      16.295  -1.221  52.682  1.00  0.00     0.004 C 
HETATM   22  C18 UNL     1      17.835  -1.199  52.705  1.00  0.00     0.032 C 
HETATM   23  C19 UNL     1      18.150   0.078  52.023  1.00  0.00     0.125 C 
HETATM   24  C20 UNL     1      17.267  -0.052  50.758  1.00  0.00     0.057 C 
HETATM   25  O3  UNL     1      19.221   0.740  51.932  1.00  0.00    -0.368 OA
HETATM   26  C21 UNL     1      20.431   0.708  51.418  1.00  0.00     0.227 C 
HETATM   27  O4  UNL     1      23.451   3.947  49.465  1.00  0.00    -0.292 OA
HETATM   28  H10 UNL     1      18.498   4.310  51.265  1.00  0.00     0.138 HD
HETATM   29  H11 UNL     1      15.944   2.213  51.975  1.00  0.00     0.164 HD
ENDROOT
BRANCH   1  30
HETATM   30  O1  UNL     1      21.040   0.614  53.659  1.00  0.00    -0.357 OA
HETATM   31  C1  UNL     1      21.709  -0.474  54.211  1.00  0.00     0.209 C 
ENDBRANCH   1  30
TORSDOF 1
ENDMDL
MODEL 7
REMARK VINA RESULT:      -7.6      5.132      8.797
REMARK  1 active torsions:
REMARK  status: ('A' for Active; 'I' for Inactive)
REMARK    1  A    between atoms: O1_2  and  C2_3 
ROOT
HETATM    1  C2  UNL     1      29.683   6.641  48.199  1.00  0.00     0.080 C 
HETATM    2  C3  UNL     1      28.700   5.721  48.133  1.00  0.00     0.040 C 
HETATM    3  C4  UNL     1      27.353   6.099  48.483  1.00  0.00     0.061 C 
HETATM    4  C5  UNL     1      26.623   7.002  49.124  1.00  0.00     0.170 C 
HETATM    5  N1  UNL     1      26.251   8.093  49.884  1.00  0.00    -0.218 NA
HETATM    6  C6  UNL     1      27.193   8.958  50.311  1.00  0.00     0.235 C 
HETATM    7  N2  UNL     1      28.029   9.557  49.433  1.00  0.00    -0.247 NA
HETATM    8  C7  UNL     1      28.522   8.736  48.437  1.00  0.00     0.063 C 
HETATM    9  C8  UNL     1      27.514   8.705  47.474  1.00  0.00     0.053 A 
HETATM   10  C9  UNL     1      26.266   8.058  47.601  1.00  0.00     0.078 A 
HETATM   11  C10 UNL     1      25.051   7.456  47.666  1.00  0.00     0.075 A 
HETATM   12  C11 UNL     1      24.811   7.991  46.376  1.00  0.00     0.038 A 
HETATM   13  C12 UNL     1      25.767   8.750  45.734  1.00  0.00     0.023 A 
HETATM   14  C13 UNL     1      26.978   9.086  46.185  1.00  0.00     0.008 A 
HETATM   15  N3  UNL     1      28.179   9.640  45.941  1.00  0.00    -0.213 NA
HETATM   16  C14 UNL     1      29.285   9.884  45.094  1.00  0.00     0.298 C 
HETATM   17  O2  UNL     1      29.461   9.527  43.910  1.00  0.00    -0.254 OA
HETATM   18  N4  UNL     1      30.380  10.618  45.582  1.00  0.00    -0.343 N 
HETATM   19  C15 UNL     1      31.504  11.369  46.075  1.00  0.00     0.088 C 
HETATM   20  C16 UNL     1      32.879  10.840  45.762  1.00  0.00     0.025 C 
HETATM   21  C17 UNL     1      33.717  10.344  46.881  1.00  0.00     0.004 C 
HETATM   22  C18 UNL     1      33.071   9.228  47.722  1.00  0.00     0.032 C 
HETATM   23  C19 UNL     1      31.639   9.336  47.357  1.00  0.00     0.125 C 
HETATM   24  C20 UNL     1      31.413  10.855  47.546  1.00  0.00     0.057 C 
HETATM   25  O3  UNL     1      30.661   8.562  47.554  1.00  0.00    -0.368 OA
HETATM   26  C21 UNL     1      29.900   8.058  48.500  1.00  0.00     0.227 C 
HETATM   27  O4  UNL     1      25.219   6.902  48.930  1.00  0.00    -0.292 OA
HETATM   28  H10 UNL     1      28.003   9.150  45.044  1.00  0.00     0.138 HD
HETATM   29  H11 UNL     1      30.981  10.709  44.691  1.00  0.00     0.164 HD
ENDROOT
BRANCH   1  30
HETATM   30  O1  UNL     1      30.935   6.083  47.846  1.00  0.00    -0.357 OA
HETATM   31  C1  UNL     1      31.819   5.481  48.735  1.00  0.00     0.209 C 
ENDBRANCH   1  30
TORSDOF 1
ENDMDL
MODEL 8
REMARK VINA RESULT:      -7.5      2.145      3.368
REMARK  1 active torsions:
REMARK  status: ('A' for Active; 'I' for Inactive)
REMARK    1  A    between atoms: O1_2  and  C2_3 
ROOT
HETATM    1  C2  UNL     1      22.441   0.949  51.765  1.00  0.00     0.080 C 
HETATM    2  C3  UNL     1      21.538   1.027  50.767  1.00  0.00     0.040 C 
HETATM    3  C4  UNL     1      21.033   2.318  50.370  1.00  0.00     0.061 C 
HETATM    4  C5  UNL     1      20.892   3.581  50.752  1.00  0.00     0.170 C 
HETATM    5  N1  UNL     1      20.923   4.738  51.504  1.00  0.00    -0.218 NA
HETATM    6  C6  UNL     1      21.530   4.732  52.707  1.00  0.00     0.235 C 
HETATM    7  N2  UNL     1      22.818   4.338  52.829  1.00  0.00    -0.247 NA
HETATM    8  C7  UNL     1      23.164   3.222  52.092  1.00  0.00     0.063 C 
HETATM    9  C8  UNL     1      23.421   3.710  50.811  1.00  0.00     0.053 A 
HETATM   10  C9  UNL     1      22.459   4.201  49.903  1.00  0.00     0.078 A 
HETATM   11  C10 UNL     1      21.581   4.685  48.988  1.00  0.00     0.075 A 
HETATM   12  C11 UNL     1      22.705   4.928  48.160  1.00  0.00     0.038 A 
HETATM   13  C12 UNL     1      23.978   4.606  48.582  1.00  0.00     0.023 A 
HETATM   14  C13 UNL     1      24.337   4.062  49.748  1.00  0.00     0.008 A 
HETATM   15  N3  UNL     1      25.302   3.517  50.509  1.00  0.00    -0.213 NA
HETATM   16  C14 UNL     1      26.447   2.701  50.668  1.00  0.00     0.298 C 
HETATM   17  O2  UNL     1      27.093   2.078  49.800  1.00  0.00    -0.254 OA
HETATM   18  N4  UNL     1      26.988   2.513  51.952  1.00  0.00    -0.343 N 
HETATM   19  C15 UNL     1      27.547   2.316  53.263  1.00  0.00     0.088 C 
HETATM   20  C16 UNL     1      27.942   0.913  53.642  1.00  0.00     0.025 C 
HETATM   21  C17 UNL     1      27.183   0.231  54.719  1.00  0.00     0.004 C 
HETATM   22  C18 UNL     1      25.665   0.138  54.475  1.00  0.00     0.032 C 
HETATM   23  C19 UNL     1      25.444   1.153  53.418  1.00  0.00     0.125 C 
HETATM   24  C20 UNL     1      26.188   2.364  54.030  1.00  0.00     0.057 C 
HETATM   25  O3  UNL     1      24.456   1.383  52.666  1.00  0.00    -0.368 OA
HETATM   26  C21 UNL     1      23.210   1.801  52.675  1.00  0.00     0.227 C 
HETATM   27  O4  UNL     1      20.435   4.475  49.747  1.00  0.00    -0.292 OA
HETATM   28  H10 UNL     1      25.538   3.120  49.580  1.00  0.00     0.138 HD
HETATM   29  H11 UNL     1      27.876   1.948  51.720  1.00  0.00     0.164 HD
ENDROOT
BRANCH   1  30
HETATM   30  O1  UNL     1      22.799  -0.394  52.031  1.00  0.00    -0.357 OA
HETATM   31  C1  UNL     1      22.304  -1.158  53.083  1.00  0.00     0.209 C 
ENDBRANCH   1  30
TORSDOF 1
ENDMDL
MODEL 9
REMARK VINA RESULT:      -7.5     24.493     27.152
REMARK  1 active torsions:
REMARK  status: ('A' for Active; 'I' for Inactive)
REMARK    1  A    between atoms: O1_2  and  C2_3 
ROOT
HETATM    1  C2  UNL     1      42.779   2.564  69.198  1.00  0.00     0.080 C 
HETATM    2  C3  UNL     1      43.534   1.810  68.373  1.00  0.00     0.040 C 
HETATM    3  C4  UNL     1      43.799   0.435  68.716  1.00  0.00     0.061 C 
HETATM    4  C5  UNL     1      43.805  -0.443  69.710  1.00  0.00     0.170 C 
HETATM    5  N1  UNL     1      43.702  -1.007  70.966  1.00  0.00    -0.218 NA
HETATM    6  C6  UNL     1      43.253  -0.262  71.995  1.00  0.00     0.235 C 
HETATM    7  N2  UNL     1      42.058   0.367  71.922  1.00  0.00    -0.247 NA
HETATM    8  C7  UNL     1      41.787   0.976  70.711  1.00  0.00     0.063 C 
HETATM    9  C8  UNL     1      41.309  -0.052  69.899  1.00  0.00     0.053 A 
HETATM   10  C9  UNL     1      42.074  -1.112  69.368  1.00  0.00     0.078 A 
HETATM   11  C10 UNL     1      42.757  -2.156  68.831  1.00  0.00     0.075 A 
HETATM   12  C11 UNL     1      41.518  -2.582  68.294  1.00  0.00     0.038 A 
HETATM   13  C12 UNL     1      40.364  -1.859  68.513  1.00  0.00     0.023 A 
HETATM   14  C13 UNL     1      40.230  -0.731  69.215  1.00  0.00     0.008 A 
HETATM   15  N3  UNL     1      39.452   0.299  69.593  1.00  0.00    -0.213 NA
HETATM   16  C14 UNL     1      38.463   1.273  69.321  1.00  0.00     0.298 C 
HETATM   17  O2  UNL     1      37.810   1.457  68.272  1.00  0.00    -0.254 OA
HETATM   18  N4  UNL     1      38.114   2.200  70.319  1.00  0.00    -0.343 N 
HETATM   19  C15 UNL     1      37.753   3.152  71.335  1.00  0.00     0.088 C 
HETATM   20  C16 UNL     1      37.609   4.591  70.915  1.00  0.00     0.025 C 
HETATM   21  C17 UNL     1      38.583   5.580  71.438  1.00  0.00     0.004 C 
HETATM   22  C18 UNL     1      40.057   5.250  71.140  1.00  0.00     0.032 C 
HETATM   23  C19 UNL     1      40.002   3.812  70.786  1.00  0.00     0.125 C 
HETATM   24  C20 UNL     1      39.174   3.261  71.971  1.00  0.00     0.057 C 
HETATM   25  O3  UNL     1      40.848   3.046  70.247  1.00  0.00    -0.368 OA
HETATM   26  C21 UNL     1      42.014   2.472  70.444  1.00  0.00     0.227 C 
HETATM   27  O4  UNL     1      44.005  -1.796  69.328  1.00  0.00    -0.292 OA
HETATM   28  H10 UNL     1      39.163   0.188  68.603  1.00  0.00     0.138 HD
HETATM   29  H11 UNL     1      37.293   2.714  69.845  1.00  0.00     0.164 HD
ENDROOT
BRANCH   1  30
HETATM   30  O1  UNL     1      42.650   3.887  68.714  1.00  0.00    -0.357 OA
HETATM   31  C1  UNL     1      43.536   4.926  68.985  1.00  0.00     0.209 C 
ENDBRANCH   1  30
TORSDOF 1
ENDMDL
