MODEL 1
REMARK VINA RESULT:      -8.0      0.000      0.000
REMARK  7 active torsions:
REMARK  status: ('A' for Active; 'I' for Inactive)
REMARK    1  A    between atoms: N1_2  and  C2_3 
REMARK    2  A    between atoms: C3_5  and  N3_6 
REMARK    3  A    between atoms: N4_7  and  O1_8 
REMARK    4  A    between atoms: O1_8  and  C4_9 
REMARK    5  A    between atoms: C7_12  and  O2_13 
REMARK    6  A    between atoms: C11_18  and  N6_19 
REMARK    7  A    between atoms: N6_19  and  C12_20 
ROOT
HETATM    1  C2  UNL     1      26.070   2.977  50.986  1.00  0.00     0.753 A 
HETATM    2  N2  UNL     1      24.846   3.563  51.140  1.00  0.00     0.134 NA
HETATM    3  C3  UNL     1      24.174   3.413  52.317  1.00  0.00     0.800 A 
HETATM    4  N5  UNL     1      24.746   2.679  53.314  1.00  0.00     0.135 NA
HETATM    5  C11 UNL     1      25.953   2.096  53.174  1.00  0.00     0.758 A 
HETATM    6  N7  UNL     1      26.614   2.248  52.005  1.00  0.00     0.131 NA
ENDROOT
BRANCH   3   7
HETATM    7  N3  UNL     1      22.913   3.916  52.701  1.00  0.00     0.071 NA
HETATM    8  N4  UNL     1      21.829   3.500  52.262  1.00  0.00    -0.006 NA
BRANCH   8   9
HETATM    9  O1  UNL     1      21.716   2.510  51.357  1.00  0.00    -0.229 OA
BRANCH   9  10
HETATM   10  C4  UNL     1      21.066   1.294  51.719  1.00  0.00     0.182 A 
HETATM   11  C5  UNL     1      22.082   0.246  51.825  1.00  0.00     0.010 A 
HETATM   12  C6  UNL     1      22.456  -0.536  52.848  1.00  0.00     0.035 A 
HETATM   13  C7  UNL     1      21.755  -0.352  54.112  1.00  0.00     0.064 A 
HETATM   14  C9  UNL     1      20.822   0.582  54.074  1.00  0.00     0.013 A 
HETATM   15  C10 UNL     1      20.322   1.498  53.024  1.00  0.00     0.068 A 
BRANCH  13  16
HETATM   16  O2  UNL     1      22.025  -1.072  55.244  1.00  0.00    -0.356 OA
HETATM   17  C8  UNL     1      23.347  -1.419  55.574  1.00  0.00     0.210 C 
ENDBRANCH  13  16
ENDBRANCH   9  10
ENDBRANCH   8   9
ENDBRANCH   3   7
BRANCH   1  18
HETATM   18  N1  UNL     1      26.720   3.171  49.738  1.00  0.00    -0.226 N 
HETATM   19  C1  UNL     1      26.821   4.455  49.077  1.00  0.00     0.165 C 
HETATM   20  H4  UNL     1      27.001   2.196  49.591  1.00  0.00     0.177 HD
ENDBRANCH   1  18
BRANCH   5  21
HETATM   21  N6  UNL     1      26.516   1.332  54.261  1.00  0.00    -0.187 N 
HETATM   22  H14 UNL     1      26.429   1.535  55.271  1.00  0.00     0.184 HD
BRANCH  21  23
HETATM   23  C12 UNL     1      27.260   0.189  53.847  1.00  0.00     0.049 A 
HETATM   24  C13 UNL     1      26.640  -0.876  53.220  1.00  0.00     0.030 A 
HETATM   25  C14 UNL     1      27.398  -1.974  52.837  1.00  0.00     0.002 A 
HETATM   26  C15 UNL     1      28.756  -2.051  53.056  1.00  0.00     0.000 A 
HETATM   27  C16 UNL     1      29.378  -0.972  53.689  1.00  0.00     0.002 A 
HETATM   28  C17 UNL     1      28.636   0.125  54.074  1.00  0.00     0.030 A 
ENDBRANCH  21  23
ENDBRANCH   5  21
TORSDOF 7
ENDMDL
MODEL 2
REMARK VINA RESULT:      -7.6      1.834      2.655
REMARK  7 active torsions:
REMARK  status: ('A' for Active; 'I' for Inactive)
REMARK    1  A    between atoms: N1_2  and  C2_3 
REMARK    2  A    between atoms: C3_5  and  N3_6 
REMARK    3  A    between atoms: N4_7  and  O1_8 
REMARK    4  A    between atoms: O1_8  and  C4_9 
REMARK    5  A    between atoms: C7_12  and  O2_13 
REMARK    6  A    between atoms: C11_18  and  N6_19 
REMARK    7  A    between atoms: N6_19  and  C12_20 
ROOT
HETATM    1  C2  UNL     1      23.107   4.485  50.204  1.00  0.00     0.753 A 
HETATM    2  N2  UNL     1      21.835   4.288  50.662  1.00  0.00     0.134 NA
HETATM    3  C3  UNL     1      21.644   3.751  51.900  1.00  0.00     0.800 A 
HETATM    4  N5  UNL     1      22.734   3.423  52.652  1.00  0.00     0.135 NA
HETATM    5  C11 UNL     1      23.993   3.612  52.213  1.00  0.00     0.758 A 
HETATM    6  N7  UNL     1      24.176   4.145  50.983  1.00  0.00     0.131 NA
ENDROOT
BRANCH   3   7
HETATM    7  N3  UNL     1      20.441   3.456  52.575  1.00  0.00     0.071 NA
HETATM    8  N4  UNL     1      19.638   2.575  52.226  1.00  0.00    -0.006 NA
BRANCH   8   9
HETATM    9  O1  UNL     1      19.814   1.783  51.152  1.00  0.00    -0.229 OA
BRANCH   9  10
HETATM   10  C4  UNL     1      19.985   0.379  51.331  1.00  0.00     0.182 A 
HETATM   11  C5  UNL     1      21.376   0.131  51.711  1.00  0.00     0.010 A 
HETATM   12  C6  UNL     1      21.918  -0.432  52.801  1.00  0.00     0.035 A 
HETATM   13  C7  UNL     1      21.000  -0.902  53.829  1.00  0.00     0.064 A 
HETATM   14  C9  UNL     1      19.727  -0.707  53.538  1.00  0.00     0.013 A 
HETATM   15  C10 UNL     1      19.013  -0.108  52.388  1.00  0.00     0.068 A 
BRANCH  13  16
HETATM   16  O2  UNL     1      21.402  -1.495  54.995  1.00  0.00    -0.356 OA
HETATM   17  C8  UNL     1      22.751  -1.453  55.392  1.00  0.00     0.210 C 
ENDBRANCH  13  16
ENDBRANCH   9  10
ENDBRANCH   8   9
ENDBRANCH   3   7
BRANCH   1  18
HETATM   18  N1  UNL     1      23.241   5.049  48.907  1.00  0.00    -0.226 N 
HETATM   19  C1  UNL     1      22.116   5.420  48.074  1.00  0.00     0.165 C 
HETATM   20  H4  UNL     1      24.266   5.053  48.879  1.00  0.00     0.177 HD
ENDBRANCH   1  18
BRANCH   5  21
HETATM   21  N6  UNL     1      25.111   3.252  53.049  1.00  0.00    -0.187 N 
HETATM   22  H14 UNL     1      25.586   3.855  53.741  1.00  0.00     0.184 HD
BRANCH  21  23
HETATM   23  C12 UNL     1      25.574   1.916  52.862  1.00  0.00     0.049 A 
HETATM   24  C13 UNL     1      26.387   1.588  51.794  1.00  0.00     0.030 A 
HETATM   25  C14 UNL     1      26.813   0.276  51.643  1.00  0.00     0.002 A 
HETATM   26  C15 UNL     1      26.457  -0.726  52.520  1.00  0.00     0.000 A 
HETATM   27  C16 UNL     1      25.636  -0.388  53.599  1.00  0.00     0.002 A 
HETATM   28  C17 UNL     1      25.206   0.913  53.760  1.00  0.00     0.030 A 
ENDBRANCH  21  23
ENDBRANCH   5  21
TORSDOF 7
ENDMDL
MODEL 3
REMARK VINA RESULT:      -7.5      3.293      6.943
REMARK  7 active torsions:
REMARK  status: ('A' for Active; 'I' for Inactive)
REMARK    1  A    between atoms: N1_2  and  C2_3 
REMARK    2  A    between atoms: C3_5  and  N3_6 
REMARK    3  A    between atoms: N4_7  and  O1_8 
REMARK    4  A    between atoms: O1_8  and  C4_9 
REMARK    5  A    between atoms: C7_12  and  O2_13 
REMARK    6  A    between atoms: C11_18  and  N6_19 
REMARK    7  A    between atoms: N6_19  and  C12_20 
ROOT
HETATM    1  C2  UNL     1      23.961   2.598  51.916  1.00  0.00     0.753 A 
HETATM    2  N2  UNL     1      24.579   2.951  50.750  1.00  0.00     0.134 NA
HETATM    3  C3  UNL     1      25.938   2.890  50.666  1.00  0.00     0.800 A 
HETATM    4  N5  UNL     1      26.648   2.477  51.755  1.00  0.00     0.135 NA
HETATM    5  C11 UNL     1      26.052   2.127  52.911  1.00  0.00     0.758 A 
HETATM    6  N7  UNL     1      24.703   2.189  52.988  1.00  0.00     0.131 NA
ENDROOT
BRANCH   3   7
HETATM    7  N3  UNL     1      26.785   3.203  49.582  1.00  0.00     0.071 NA
HETATM    8  N4  UNL     1      26.945   4.346  49.124  1.00  0.00    -0.006 NA
BRANCH   8   9
HETATM    9  O1  UNL     1      26.325   5.440  49.604  1.00  0.00    -0.229 OA
BRANCH   9  10
HETATM   10  C4  UNL     1      26.368   6.658  48.864  1.00  0.00     0.182 A 
HETATM   11  C5  UNL     1      26.249   7.772  49.805  1.00  0.00     0.010 A 
HETATM   12  C6  UNL     1      27.066   8.798  50.083  1.00  0.00     0.035 A 
HETATM   13  C7  UNL     1      28.318   8.868  49.341  1.00  0.00     0.064 A 
HETATM   14  C9  UNL     1      28.478   7.886  48.472  1.00  0.00     0.013 A 
HETATM   15  C10 UNL     1      27.664   6.715  48.078  1.00  0.00     0.068 A 
BRANCH  13  16
HETATM   16  O2  UNL     1      29.252   9.853  49.515  1.00  0.00    -0.356 OA
HETATM   17  C8  UNL     1      30.623   9.572  49.377  1.00  0.00     0.210 C 
ENDBRANCH  13  16
ENDBRANCH   9  10
ENDBRANCH   8   9
ENDBRANCH   3   7
BRANCH   1  18
HETATM   18  N1  UNL     1      22.543   2.680  51.940  1.00  0.00    -0.226 N 
HETATM   19  C1  UNL     1      21.815   3.916  52.138  1.00  0.00     0.165 C 
HETATM   20  H4  UNL     1      22.359   1.683  51.789  1.00  0.00     0.177 HD
ENDBRANCH   1  18
BRANCH   5  21
HETATM   21  N6  UNL     1      26.848   1.693  54.032  1.00  0.00    -0.187 N 
HETATM   22  H14 UNL     1      26.875   2.118  54.974  1.00  0.00     0.184 HD
BRANCH  21  23
HETATM   23  C12 UNL     1      27.667   0.557  53.763  1.00  0.00     0.049 A 
HETATM   24  C13 UNL     1      27.115  -0.630  53.319  1.00  0.00     0.030 A 
HETATM   25  C14 UNL     1      27.944  -1.715  53.073  1.00  0.00     0.002 A 
HETATM   26  C15 UNL     1      29.309  -1.662  53.253  1.00  0.00     0.000 A 
HETATM   27  C16 UNL     1      29.862  -0.460  53.701  1.00  0.00     0.002 A 
HETATM   28  C17 UNL     1      29.048   0.626  53.949  1.00  0.00     0.030 A 
ENDBRANCH  21  23
ENDBRANCH   5  21
TORSDOF 7
ENDMDL
MODEL 4
REMARK VINA RESULT:      -7.2      1.827      2.354
REMARK  7 active torsions:
REMARK  status: ('A' for Active; 'I' for Inactive)
REMARK    1  A    between atoms: N1_2  and  C2_3 
REMARK    2  A    between atoms: C3_5  and  N3_6 
REMARK    3  A    between atoms: N4_7  and  O1_8 
REMARK    4  A    between atoms: O1_8  and  C4_9 
REMARK    5  A    between atoms: C7_12  and  O2_13 
REMARK    6  A    between atoms: C11_18  and  N6_19 
REMARK    7  A    between atoms: N6_19  and  C12_20 
ROOT
HETATM    1  C2  UNL     1      24.848   3.521  50.782  1.00  0.00     0.753 A 
HETATM    2  N2  UNL     1      23.871   3.214  49.877  1.00  0.00     0.134 NA
HETATM    3  C3  UNL     1      23.080   2.124  50.090  1.00  0.00     0.800 A 
HETATM    4  N5  UNL     1      23.287   1.366  51.206  1.00  0.00     0.135 NA
HETATM    5  C11 UNL     1      24.246   1.659  52.104  1.00  0.00     0.758 A 
HETATM    6  N7  UNL     1      25.028   2.741  51.889  1.00  0.00     0.131 NA
ENDROOT
BRANCH   3   7
HETATM    7  N3  UNL     1      22.024   1.614  49.305  1.00  0.00     0.071 NA
HETATM    8  N4  UNL     1      20.838   1.965  49.412  1.00  0.00    -0.006 NA
BRANCH   8   9
HETATM    9  O1  UNL     1      20.403   2.882  50.297  1.00  0.00    -0.229 OA
BRANCH   9  10
HETATM   10  C4  UNL     1      19.575   2.475  51.384  1.00  0.00     0.182 A 
HETATM   11  C5  UNL     1      19.071   1.131  51.099  1.00  0.00     0.010 A 
HETATM   12  C6  UNL     1      19.202  -0.030  51.756  1.00  0.00     0.035 A 
HETATM   13  C7  UNL     1      19.978  -0.010  52.989  1.00  0.00     0.064 A 
HETATM   14  C9  UNL     1      20.457   1.182  53.298  1.00  0.00     0.013 A 
HETATM   15  C10 UNL     1      20.384   2.518  52.667  1.00  0.00     0.068 A 
BRANCH  13  16
HETATM   16  O2  UNL     1      20.201  -1.113  53.767  1.00  0.00    -0.356 OA
HETATM   17  C8  UNL     1      21.348  -1.200  54.576  1.00  0.00     0.210 C 
ENDBRANCH  13  16
ENDBRANCH   9  10
ENDBRANCH   8   9
ENDBRANCH   3   7
BRANCH   1  18
HETATM   18  N1  UNL     1      25.637   4.670  50.506  1.00  0.00    -0.226 N 
HETATM   19  C1  UNL     1      26.444   4.821  49.314  1.00  0.00     0.165 C 
HETATM   20  H4  UNL     1      25.402   5.190  51.359  1.00  0.00     0.177 HD
ENDBRANCH   1  18
BRANCH   5  21
HETATM   21  N6  UNL     1      24.421   0.828  53.270  1.00  0.00    -0.187 N 
HETATM   22  H14 UNL     1      23.694   0.560  53.954  1.00  0.00     0.184 HD
BRANCH  21  23
HETATM   23  C12 UNL     1      25.753   0.352  53.454  1.00  0.00     0.049 A 
HETATM   24  C13 UNL     1      26.537   0.815  54.494  1.00  0.00     0.030 A 
HETATM   25  C14 UNL     1      27.830   0.333  54.637  1.00  0.00     0.002 A 
HETATM   26  C15 UNL     1      28.375  -0.598  53.779  1.00  0.00     0.000 A 
HETATM   27  C16 UNL     1      27.578  -1.063  52.729  1.00  0.00     0.002 A 
HETATM   28  C17 UNL     1      26.290  -0.591  52.577  1.00  0.00     0.030 A 
ENDBRANCH  21  23
ENDBRANCH   5  21
TORSDOF 7
ENDMDL
MODEL 5
REMARK VINA RESULT:      -7.2      3.919      7.560
REMARK  7 active torsions:
REMARK  status: ('A' for Active; 'I' for Inactive)
REMARK    1  A    between atoms: N1_2  and  C2_3 
REMARK    2  A    between atoms: C3_5  and  N3_6 
REMARK    3  A    between atoms: N4_7  and  O1_8 
REMARK    4  A    between atoms: O1_8  and  C4_9 
REMARK    5  A    between atoms: C7_12  and  O2_13 
REMARK    6  A    between atoms: C11_18  and  N6_19 
REMARK    7  A    between atoms: N6_19  and  C12_20 
ROOT
HETATM    1  C2  UNL     1      25.725   6.884  50.079  1.00  0.00     0.753 A 
HETATM    2  N2  UNL     1      25.544   5.532  50.152  1.00  0.00     0.134 NA
HETATM    3  C3  UNL     1      26.312   4.711  49.381  1.00  0.00     0.800 A 
HETATM    4  N5  UNL     1      27.245   5.265  48.553  1.00  0.00     0.135 NA
HETATM    5  C11 UNL     1      27.432   6.596  48.473  1.00  0.00     0.758 A 
HETATM    6  N7  UNL     1      26.668   7.406  49.240  1.00  0.00     0.131 NA
ENDROOT
BRANCH   3   7
HETATM    7  N3  UNL     1      26.304   3.304  49.285  1.00  0.00     0.071 NA
HETATM    8  N4  UNL     1      26.717   2.537  50.171  1.00  0.00    -0.006 NA
BRANCH   8   9
HETATM    9  O1  UNL     1      27.231   2.954  51.343  1.00  0.00    -0.229 OA
BRANCH   9  10
HETATM   10  C4  UNL     1      26.934   2.235  52.538  1.00  0.00     0.182 A 
HETATM   11  C5  UNL     1      26.210   1.017  52.173  1.00  0.00     0.010 A 
HETATM   12  C6  UNL     1      26.489  -0.280  52.365  1.00  0.00     0.035 A 
HETATM   13  C7  UNL     1      27.730  -0.594  53.061  1.00  0.00     0.064 A 
HETATM   14  C9  UNL     1      28.426   0.471  53.418  1.00  0.00     0.013 A 
HETATM   15  C10 UNL     1      28.227   1.930  53.268  1.00  0.00     0.068 A 
BRANCH  13  16
HETATM   16  O2  UNL     1      28.151  -1.868  53.330  1.00  0.00    -0.356 OA
HETATM   17  C8  UNL     1      29.524  -2.175  53.372  1.00  0.00     0.210 C 
ENDBRANCH  13  16
ENDBRANCH   9  10
ENDBRANCH   8   9
ENDBRANCH   3   7
BRANCH   1  18
HETATM   18  N1  UNL     1      24.896   7.686  50.909  1.00  0.00    -0.226 N 
HETATM   19  C1  UNL     1      23.452   7.710  50.817  1.00  0.00     0.165 C 
HETATM   20  H4  UNL     1      25.649   8.121  51.454  1.00  0.00     0.177 HD
ENDBRANCH   1  18
BRANCH   5  21
HETATM   21  N6  UNL     1      28.435   7.131  47.585  1.00  0.00    -0.187 N 
HETATM   22  H14 UNL     1      28.650   6.807  46.627  1.00  0.00     0.184 HD
BRANCH  21  23
HETATM   23  C12 UNL     1      29.180   8.217  48.131  1.00  0.00     0.049 A 
HETATM   24  C13 UNL     1      28.814   9.527  47.885  1.00  0.00     0.030 A 
HETATM   25  C14 UNL     1      29.568  10.557  48.430  1.00  0.00     0.002 A 
HETATM   26  C15 UNL     1      30.678  10.330  49.214  1.00  0.00     0.000 A 
HETATM   27  C16 UNL     1      31.043   9.004  49.460  1.00  0.00     0.002 A 
HETATM   28  C17 UNL     1      30.302   7.971  48.924  1.00  0.00     0.030 A 
ENDBRANCH  21  23
ENDBRANCH   5  21
TORSDOF 7
ENDMDL
MODEL 6
REMARK VINA RESULT:      -7.1      2.755      5.644
REMARK  7 active torsions:
REMARK  status: ('A' for Active; 'I' for Inactive)
REMARK    1  A    between atoms: N1_2  and  C2_3 
REMARK    2  A    between atoms: C3_5  and  N3_6 
REMARK    3  A    between atoms: N4_7  and  O1_8 
REMARK    4  A    between atoms: O1_8  and  C4_9 
REMARK    5  A    between atoms: C7_12  and  O2_13 
REMARK    6  A    between atoms: C11_18  and  N6_19 
REMARK    7  A    between atoms: N6_19  and  C12_20 
ROOT
HETATM    1  C2  UNL     1      24.460   2.563  52.149  1.00  0.00     0.753 A 
HETATM    2  N2  UNL     1      24.860   2.930  50.895  1.00  0.00     0.134 NA
HETATM    3  C3  UNL     1      26.190   2.940  50.593  1.00  0.00     0.800 A 
HETATM    4  N5  UNL     1      27.088   2.583  51.555  1.00  0.00     0.135 NA
HETATM    5  C11 UNL     1      26.706   2.220  52.794  1.00  0.00     0.758 A 
HETATM    6  N7  UNL     1      25.386   2.211  53.089  1.00  0.00     0.131 NA
ENDROOT
BRANCH   3   7
HETATM    7  N3  UNL     1      26.832   3.280  49.384  1.00  0.00     0.071 NA
HETATM    8  N4  UNL     1      27.029   4.444  48.997  1.00  0.00    -0.006 NA
BRANCH   8   9
HETATM    9  O1  UNL     1      26.651   5.537  49.685  1.00  0.00    -0.229 OA
BRANCH   9  10
HETATM   10  C4  UNL     1      25.768   6.481  49.082  1.00  0.00     0.182 A 
HETATM   11  C5  UNL     1      24.478   5.827  48.862  1.00  0.00     0.010 A 
HETATM   12  C6  UNL     1      23.246   6.107  49.313  1.00  0.00     0.035 A 
HETATM   13  C7  UNL     1      23.108   7.266  50.185  1.00  0.00     0.064 A 
HETATM   14  C9  UNL     1      24.244   7.898  50.416  1.00  0.00     0.013 A 
HETATM   15  C10 UNL     1      25.645   7.693  49.985  1.00  0.00     0.068 A 
BRANCH  13  16
HETATM   16  O2  UNL     1      21.919   7.675  50.724  1.00  0.00    -0.356 OA
HETATM   17  C8  UNL     1      20.801   7.906  49.901  1.00  0.00     0.210 C 
ENDBRANCH  13  16
ENDBRANCH   9  10
ENDBRANCH   8   9
ENDBRANCH   3   7
BRANCH   1  18
HETATM   18  N1  UNL     1      23.062   2.570  52.402  1.00  0.00    -0.226 N 
HETATM   19  C1  UNL     1      22.269   1.370  52.560  1.00  0.00     0.165 C 
HETATM   20  H4  UNL     1      22.942   3.589  52.409  1.00  0.00     0.177 HD
ENDBRANCH   1  18
BRANCH   5  21
HETATM   21  N6  UNL     1      27.696   1.847  53.775  1.00  0.00    -0.187 N 
HETATM   22  H14 UNL     1      28.037   2.425  54.561  1.00  0.00     0.184 HD
BRANCH  21  23
HETATM   23  C12 UNL     1      28.229   0.537  53.598  1.00  0.00     0.049 A 
HETATM   24  C13 UNL     1      29.579   0.289  53.767  1.00  0.00     0.030 A 
HETATM   25  C14 UNL     1      30.062  -0.999  53.580  1.00  0.00     0.002 A 
HETATM   26  C15 UNL     1      29.247  -2.054  53.229  1.00  0.00     0.000 A 
HETATM   27  C16 UNL     1      27.884  -1.797  53.060  1.00  0.00     0.002 A 
HETATM   28  C17 UNL     1      27.392  -0.522  53.243  1.00  0.00     0.030 A 
ENDBRANCH  21  23
ENDBRANCH   5  21
TORSDOF 7
ENDMDL
MODEL 7
REMARK VINA RESULT:      -7.0      2.250      5.518
REMARK  7 active torsions:
REMARK  status: ('A' for Active; 'I' for Inactive)
REMARK    1  A    between atoms: N1_2  and  C2_3 
REMARK    2  A    between atoms: C3_5  and  N3_6 
REMARK    3  A    between atoms: N4_7  and  O1_8 
REMARK    4  A    between atoms: O1_8  and  C4_9 
REMARK    5  A    between atoms: C7_12  and  O2_13 
REMARK    6  A    between atoms: C11_18  and  N6_19 
REMARK    7  A    between atoms: N6_19  and  C12_20 
ROOT
HETATM    1  C2  UNL     1      23.583   0.438  53.360  1.00  0.00     0.753 A 
HETATM    2  N2  UNL     1      23.153   1.662  52.931  1.00  0.00     0.134 NA
HETATM    3  C3  UNL     1      24.014   2.719  52.953  1.00  0.00     0.800 A 
HETATM    4  N5  UNL     1      25.286   2.525  53.405  1.00  0.00     0.135 NA
HETATM    5  C11 UNL     1      25.721   1.324  53.830  1.00  0.00     0.758 A 
HETATM    6  N7  UNL     1      24.864   0.278  53.807  1.00  0.00     0.131 NA
ENDROOT
BRANCH   3   7
HETATM    7  N3  UNL     1      23.798   4.059  52.568  1.00  0.00     0.071 NA
HETATM    8  N4  UNL     1      23.503   4.420  51.417  1.00  0.00    -0.006 NA
BRANCH   8   9
HETATM    9  O1  UNL     1      23.350   3.573  50.382  1.00  0.00    -0.229 OA
BRANCH   9  10
HETATM   10  C4  UNL     1      24.144   3.742  49.209  1.00  0.00     0.182 A 
HETATM   11  C5  UNL     1      24.054   5.142  48.793  1.00  0.00     0.010 A 
HETATM   12  C6  UNL     1      24.989   6.091  48.643  1.00  0.00     0.035 A 
HETATM   13  C7  UNL     1      26.366   5.716  48.934  1.00  0.00     0.064 A 
HETATM   14  C9  UNL     1      26.508   4.459  49.313  1.00  0.00     0.013 A 
HETATM   15  C10 UNL     1      25.571   3.330  49.513  1.00  0.00     0.068 A 
BRANCH  13  16
HETATM   16  O2  UNL     1      27.428   6.573  48.828  1.00  0.00    -0.356 OA
HETATM   17  C8  UNL     1      27.556   7.420  47.712  1.00  0.00     0.210 C 
ENDBRANCH  13  16
ENDBRANCH   9  10
ENDBRANCH   8   9
ENDBRANCH   3   7
BRANCH   1  18
HETATM   18  N1  UNL     1      22.641  -0.625  53.311  1.00  0.00    -0.226 N 
HETATM   19  C1  UNL     1      22.081  -1.256  54.488  1.00  0.00     0.165 C 
HETATM   20  H4  UNL     1      22.583  -0.692  52.289  1.00  0.00     0.177 HD
ENDBRANCH   1  18
BRANCH   5  21
HETATM   21  N6  UNL     1      27.078   1.171  54.295  1.00  0.00    -0.187 N 
HETATM   22  H14 UNL     1      27.603   1.824  54.900  1.00  0.00     0.184 HD
BRANCH  21  23
HETATM   23  C12 UNL     1      27.719  -0.022  53.846  1.00  0.00     0.049 A 
HETATM   24  C13 UNL     1      27.031  -0.962  53.102  1.00  0.00     0.030 A 
HETATM   25  C14 UNL     1      27.687  -2.112  52.687  1.00  0.00     0.002 A 
HETATM   26  C15 UNL     1      29.009  -2.362  52.988  1.00  0.00     0.000 A 
HETATM   27  C16 UNL     1      29.699  -1.408  53.740  1.00  0.00     0.002 A 
HETATM   28  C17 UNL     1      29.058  -0.261  54.157  1.00  0.00     0.030 A 
ENDBRANCH  21  23
ENDBRANCH   5  21
TORSDOF 7
ENDMDL
MODEL 8
REMARK VINA RESULT:      -6.9      2.358      6.661
REMARK  7 active torsions:
REMARK  status: ('A' for Active; 'I' for Inactive)
REMARK    1  A    between atoms: N1_2  and  C2_3 
REMARK    2  A    between atoms: C3_5  and  N3_6 
REMARK    3  A    between atoms: N4_7  and  O1_8 
REMARK    4  A    between atoms: O1_8  and  C4_9 
REMARK    5  A    between atoms: C7_12  and  O2_13 
REMARK    6  A    between atoms: C11_18  and  N6_19 
REMARK    7  A    between atoms: N6_19  and  C12_20 
ROOT
HETATM    1  C2  UNL     1      26.218   0.243  54.301  1.00  0.00     0.753 A 
HETATM    2  N2  UNL     1      26.089   1.539  53.891  1.00  0.00     0.134 NA
HETATM    3  C3  UNL     1      24.886   1.976  53.419  1.00  0.00     0.800 A 
HETATM    4  N5  UNL     1      23.840   1.101  53.368  1.00  0.00     0.135 NA
HETATM    5  C11 UNL     1      23.956  -0.179  53.769  1.00  0.00     0.758 A 
HETATM    6  N7  UNL     1      25.151  -0.607  54.237  1.00  0.00     0.131 NA
ENDROOT
BRANCH   3   7
HETATM    7  N3  UNL     1      24.519   3.252  52.943  1.00  0.00     0.071 NA
HETATM    8  N4  UNL     1      24.435   3.555  51.741  1.00  0.00    -0.006 NA
BRANCH   8   9
HETATM    9  O1  UNL     1      24.686   2.700  50.732  1.00  0.00    -0.229 OA
BRANCH   9  10
HETATM   10  C4  UNL     1      25.060   3.208  49.454  1.00  0.00     0.182 A 
HETATM   11  C5  UNL     1      24.297   4.432  49.206  1.00  0.00     0.010 A 
HETATM   12  C6  UNL     1      24.685   5.695  48.977  1.00  0.00     0.035 A 
HETATM   13  C7  UNL     1      26.118   5.956  48.961  1.00  0.00     0.064 A 
HETATM   14  C9  UNL     1      26.858   4.883  49.177  1.00  0.00     0.013 A 
HETATM   15  C10 UNL     1      26.556   3.458  49.437  1.00  0.00     0.068 A 
BRANCH  13  16
HETATM   16  O2  UNL     1      26.665   7.191  48.743  1.00  0.00    -0.356 OA
HETATM   17  C8  UNL     1      26.646   8.171  49.752  1.00  0.00     0.210 C 
ENDBRANCH  13  16
ENDBRANCH   9  10
ENDBRANCH   8   9
ENDBRANCH   3   7
BRANCH   1  18
HETATM   18  N1  UNL     1      27.495  -0.151  54.785  1.00  0.00    -0.226 N 
HETATM   19  C1  UNL     1      28.725   0.536  54.454  1.00  0.00     0.165 C 
HETATM   20  H4  UNL     1      27.175  -0.955  55.336  1.00  0.00     0.177 HD
ENDBRANCH   1  18
BRANCH   5  21
HETATM   21  N6  UNL     1      22.818  -1.063  53.699  1.00  0.00    -0.187 N 
HETATM   22  H14 UNL     1      22.734  -2.000  54.128  1.00  0.00     0.184 HD
BRANCH  21  23
HETATM   23  C12 UNL     1      21.721  -0.545  52.949  1.00  0.00     0.049 A 
HETATM   24  C13 UNL     1      20.445  -0.522  53.478  1.00  0.00     0.030 A 
HETATM   25  C14 UNL     1      19.402  -0.015  52.715  1.00  0.00     0.002 A 
HETATM   26  C15 UNL     1      19.584   0.470  51.438  1.00  0.00     0.000 A 
HETATM   27  C16 UNL     1      20.877   0.443  50.908  1.00  0.00     0.002 A 
HETATM   28  C17 UNL     1      21.921  -0.057  51.657  1.00  0.00     0.030 A 
ENDBRANCH  21  23
ENDBRANCH   5  21
TORSDOF 7
ENDMDL
MODEL 9
REMARK VINA RESULT:      -6.9      1.895      5.322
REMARK  7 active torsions:
REMARK  status: ('A' for Active; 'I' for Inactive)
REMARK    1  A    between atoms: N1_2  and  C2_3 
REMARK    2  A    between atoms: C3_5  and  N3_6 
REMARK    3  A    between atoms: N4_7  and  O1_8 
REMARK    4  A    between atoms: O1_8  and  C4_9 
REMARK    5  A    between atoms: C7_12  and  O2_13 
REMARK    6  A    between atoms: C11_18  and  N6_19 
REMARK    7  A    between atoms: N6_19  and  C12_20 
ROOT
HETATM    1  C2  UNL     1      26.813   2.213  52.991  1.00  0.00     0.753 A 
HETATM    2  N2  UNL     1      25.517   2.416  53.370  1.00  0.00     0.134 NA
HETATM    3  C3  UNL     1      24.606   2.836  52.445  1.00  0.00     0.800 A 
HETATM    4  N5  UNL     1      25.017   3.042  51.161  1.00  0.00     0.135 NA
HETATM    5  C11 UNL     1      26.293   2.845  50.775  1.00  0.00     0.758 A 
HETATM    6  N7  UNL     1      27.191   2.429  51.696  1.00  0.00     0.131 NA
ENDROOT
BRANCH   3   7
HETATM    7  N3  UNL     1      23.232   3.112  52.601  1.00  0.00     0.071 NA
HETATM    8  N4  UNL     1      22.352   2.245  52.730  1.00  0.00    -0.006 NA
BRANCH   8   9
HETATM    9  O1  UNL     1      22.598   0.921  52.737  1.00  0.00    -0.229 OA
BRANCH   9  10
HETATM   10  C4  UNL     1      21.807   0.052  51.931  1.00  0.00     0.182 A 
HETATM   11  C5  UNL     1      20.531  -0.170  52.612  1.00  0.00     0.010 A 
HETATM   12  C6  UNL     1      19.266   0.081  52.245  1.00  0.00     0.035 A 
HETATM   13  C7  UNL     1      19.065   0.687  50.935  1.00  0.00     0.064 A 
HETATM   14  C9  UNL     1      20.186   0.908  50.272  1.00  0.00     0.013 A 
HETATM   15  C10 UNL     1      21.619   0.678  50.563  1.00  0.00     0.068 A 
BRANCH  13  16
HETATM   16  O2  UNL     1      17.837   1.003  50.423  1.00  0.00    -0.356 OA
HETATM   17  C8  UNL     1      16.842   0.018  50.286  1.00  0.00     0.210 C 
ENDBRANCH  13  16
ENDBRANCH   9  10
ENDBRANCH   8   9
ENDBRANCH   3   7
BRANCH   1  18
HETATM   18  N1  UNL     1      27.713   1.774  53.999  1.00  0.00    -0.226 N 
HETATM   19  C1  UNL     1      27.575   0.520  54.707  1.00  0.00     0.165 C 
HETATM   20  H4  UNL     1      28.338   2.588  53.970  1.00  0.00     0.177 HD
ENDBRANCH   1  18
BRANCH   5  21
HETATM   21  N6  UNL     1      26.676   3.074  49.404  1.00  0.00    -0.187 N 
HETATM   22  H14 UNL     1      26.821   2.357  48.673  1.00  0.00     0.184 HD
BRANCH  21  23
HETATM   23  C12 UNL     1      26.862   4.448  49.071  1.00  0.00     0.049 A 
HETATM   24  C13 UNL     1      25.834   5.361  49.214  1.00  0.00     0.030 A 
HETATM   25  C14 UNL     1      26.052   6.689  48.874  1.00  0.00     0.002 A 
HETATM   26  C15 UNL     1      27.261   7.143  48.394  1.00  0.00     0.000 A 
HETATM   27  C16 UNL     1      28.297   6.216  48.251  1.00  0.00     0.002 A 
HETATM   28  C17 UNL     1      28.093   4.894  48.586  1.00  0.00     0.030 A 
ENDBRANCH  21  23
ENDBRANCH   5  21
TORSDOF 7
ENDMDL
