MODEL 1
REMARK VINA RESULT:      -8.5      0.000      0.000
REMARK  1 active torsions:
REMARK  status: ('A' for Active; 'I' for Inactive)
REMARK    1  A    between atoms: C7_7  and  C8_8 
ROOT
HETATM    1  C1  UNL     1      21.110  -1.771  54.160  1.00  0.00     0.017 C 
HETATM    2  C2  UNL     1      22.210  -0.927  53.621  1.00  0.00    -0.018 C 
HETATM    3  C3  UNL     1      23.301  -0.843  54.343  1.00  0.00     0.042 A 
HETATM    4  C4  UNL     1      24.624  -0.592  54.966  1.00  0.00    -0.033 A 
HETATM    5  C5  UNL     1      25.776  -0.394  55.580  1.00  0.00     0.007 C 
HETATM    6  C6  UNL     1      27.043   0.185  55.066  1.00  0.00     0.015 C 
HETATM    7  C7  UNL     1      27.313   0.039  53.756  1.00  0.00     0.003 C 
HETATM    8  C9  UNL     1      26.547  -0.620  52.660  1.00  0.00     0.013 C 
HETATM    9  C10 UNL     1      25.188  -0.647  52.643  1.00  0.00     0.011 C 
HETATM   10  C11 UNL     1      24.311  -0.049  53.664  1.00  0.00     0.085 A 
HETATM   11  N1  UNL     1      23.725   1.220  53.367  1.00  0.00    -0.391 N 
HETATM   12  C12 UNL     1      24.547   2.327  53.213  1.00  0.00     0.119 C 
HETATM   13  C13 UNL     1      23.981   3.498  52.463  1.00  0.00     0.020 C 
HETATM   14  C14 UNL     1      23.406   3.095  51.127  1.00  0.00     0.004 C 
HETATM   15  C15 UNL     1      23.118   1.610  51.095  1.00  0.00     0.025 C 
HETATM   16  C16 UNL     1      22.626   1.169  52.481  1.00  0.00     0.081 C 
HETATM   17  C17 UNL     1      22.031  -0.222  52.334  1.00  0.00     0.036 C 
ENDROOT
BRANCH   7  18
HETATM   18  C8  UNL     1      28.590   0.652  53.386  1.00  0.00     0.154 A 
HETATM   19  O1  UNL     1      28.513   1.790  52.829  1.00  0.00    -0.188 OA
HETATM   20  O2  UNL     1      29.793   1.205  53.049  1.00  0.00     0.000 OA
HETATM   21  H6  UNL     1      30.660   0.708  53.312  1.00  0.00     0.000 HD
ENDBRANCH   7  18
TORSDOF 1
ENDMDL
MODEL 2
REMARK VINA RESULT:      -8.3      2.552      4.449
REMARK  1 active torsions:
REMARK  status: ('A' for Active; 'I' for Inactive)
REMARK    1  A    between atoms: C7_7  and  C8_8 
ROOT
HETATM    1  C1  UNL     1      26.867   4.244  49.332  1.00  0.00     0.017 C 
HETATM    2  C2  UNL     1      25.985   3.577  50.327  1.00  0.00    -0.018 C 
HETATM    3  C3  UNL     1      26.346   2.383  50.732  1.00  0.00     0.042 A 
HETATM    4  C4  UNL     1      26.536   1.044  51.341  1.00  0.00    -0.033 A 
HETATM    5  C5  UNL     1      26.753  -0.162  51.835  1.00  0.00     0.007 C 
HETATM    6  C6  UNL     1      26.134  -0.839  53.002  1.00  0.00     0.015 C 
HETATM    7  C7  UNL     1      25.698  -0.070  54.016  1.00  0.00     0.003 C 
HETATM    8  C9  UNL     1      25.711   1.409  54.206  1.00  0.00     0.013 C 
HETATM    9  C10 UNL     1      25.592   2.273  53.163  1.00  0.00     0.011 C 
HETATM   10  C11 UNL     1      25.436   1.887  51.751  1.00  0.00     0.085 A 
HETATM   11  N1  UNL     1      24.118   1.928  51.199  1.00  0.00    -0.391 N 
HETATM   12  C12 UNL     1      23.149   1.067  51.694  1.00  0.00     0.119 C 
HETATM   13  C13 UNL     1      21.716   1.439  51.447  1.00  0.00     0.020 C 
HETATM   14  C14 UNL     1      21.412   2.854  51.872  1.00  0.00     0.004 C 
HETATM   15  C15 UNL     1      22.685   3.664  51.984  1.00  0.00     0.025 C 
HETATM   16  C16 UNL     1      23.653   3.222  50.877  1.00  0.00     0.081 C 
HETATM   17  C17 UNL     1      24.761   4.260  50.796  1.00  0.00     0.036 C 
ENDROOT
BRANCH   7  18
HETATM   18  C8  UNL     1      25.116  -0.864  55.098  1.00  0.00     0.154 A 
HETATM   19  O1  UNL     1      25.780  -0.891  56.180  1.00  0.00    -0.188 OA
HETATM   20  O2  UNL     1      24.554  -1.612  56.095  1.00  0.00     0.000 OA
HETATM   21  H6  UNL     1      23.629  -2.043  55.932  1.00  0.00     0.000 HD
ENDBRANCH   7  18
TORSDOF 1
ENDMDL
MODEL 3
REMARK VINA RESULT:      -8.3      1.785      4.317
REMARK  1 active torsions:
REMARK  status: ('A' for Active; 'I' for Inactive)
REMARK    1  A    between atoms: C7_7  and  C8_8 
ROOT
HETATM    1  C1  UNL     1      21.399  -1.488  54.244  1.00  0.00     0.017 C 
HETATM    2  C2  UNL     1      22.572  -0.644  53.891  1.00  0.00    -0.018 C 
HETATM    3  C3  UNL     1      22.492   0.045  52.778  1.00  0.00     0.042 A 
HETATM    4  C4  UNL     1      22.645   0.911  51.583  1.00  0.00    -0.033 A 
HETATM    5  C5  UNL     1      22.726   1.650  50.491  1.00  0.00     0.007 C 
HETATM    6  C6  UNL     1      23.686   2.726  50.137  1.00  0.00     0.015 C 
HETATM    7  C7  UNL     1      24.221   3.444  51.141  1.00  0.00     0.003 C 
HETATM    8  C9  UNL     1      24.033   3.365  52.618  1.00  0.00     0.013 C 
HETATM    9  C10 UNL     1      23.785   2.188  53.253  1.00  0.00     0.011 C 
HETATM   10  C11 UNL     1      23.672   0.874  52.599  1.00  0.00     0.085 A 
HETATM   11  N1  UNL     1      24.810   0.011  52.655  1.00  0.00    -0.391 N 
HETATM   12  C12 UNL     1      25.983   0.393  52.018  1.00  0.00     0.119 C 
HETATM   13  C13 UNL     1      27.251  -0.269  52.472  1.00  0.00     0.020 C 
HETATM   14  C14 UNL     1      27.431  -0.192  53.968  1.00  0.00     0.004 C 
HETATM   15  C15 UNL     1      26.111   0.089  54.652  1.00  0.00     0.025 C 
HETATM   16  C16 UNL     1      24.994  -0.643  53.894  1.00  0.00     0.081 C 
HETATM   17  C17 UNL     1      23.756  -0.626  54.776  1.00  0.00     0.036 C 
ENDROOT
BRANCH   7  18
HETATM   18  C8  UNL     1      25.144   4.469  50.652  1.00  0.00     0.154 A 
HETATM   19  O1  UNL     1      26.205   4.037  50.104  1.00  0.00    -0.188 OA
HETATM   20  O2  UNL     1      25.992   5.442  50.204  1.00  0.00     0.000 OA
HETATM   21  H6  UNL     1      25.700   6.430  50.282  1.00  0.00     0.000 HD
ENDBRANCH   7  18
TORSDOF 1
ENDMDL
MODEL 4
REMARK VINA RESULT:      -7.7      1.560      2.232
REMARK  1 active torsions:
REMARK  status: ('A' for Active; 'I' for Inactive)
REMARK    1  A    between atoms: C7_7  and  C8_8 
ROOT
HETATM    1  C1  UNL     1      20.927   0.173  50.861  1.00  0.00     0.017 C 
HETATM    2  C2  UNL     1      22.096   1.022  51.218  1.00  0.00    -0.018 C 
HETATM    3  C3  UNL     1      22.924   0.542  52.113  1.00  0.00     0.042 A 
HETATM    4  C4  UNL     1      23.996   0.225  53.089  1.00  0.00    -0.033 A 
HETATM    5  C5  UNL     1      24.911  -0.108  53.982  1.00  0.00     0.007 C 
HETATM    6  C6  UNL     1      26.244   0.488  54.249  1.00  0.00     0.015 C 
HETATM    7  C7  UNL     1      26.889   1.069  53.220  1.00  0.00     0.003 C 
HETATM    8  C9  UNL     1      26.505   1.246  51.791  1.00  0.00     0.013 C 
HETATM    9  C10 UNL     1      25.212   1.411  51.404  1.00  0.00     0.011 C 
HETATM   10  C11 UNL     1      24.050   1.441  52.308  1.00  0.00     0.085 A 
HETATM   11  N1  UNL     1      23.517   2.721  52.653  1.00  0.00    -0.391 N 
HETATM   12  C12 UNL     1      24.296   3.605  53.386  1.00  0.00     0.119 C 
HETATM   13  C13 UNL     1      23.918   5.056  53.328  1.00  0.00     0.020 C 
HETATM   14  C14 UNL     1      23.774   5.552  51.910  1.00  0.00     0.004 C 
HETATM   15  C15 UNL     1      23.578   4.394  50.956  1.00  0.00     0.025 C 
HETATM   16  C16 UNL     1      22.726   3.321  51.647  1.00  0.00     0.081 C 
HETATM   17  C17 UNL     1      22.264   2.344  50.578  1.00  0.00     0.036 C 
ENDROOT
BRANCH   7  18
HETATM   18  C8  UNL     1      28.188   1.611  53.622  1.00  0.00     0.154 A 
HETATM   19  O1  UNL     1      28.162   2.758  54.164  1.00  0.00    -0.188 OA
HETATM   20  O2  UNL     1      29.412   2.097  53.988  1.00  0.00     0.000 OA
HETATM   21  H6  UNL     1      30.243   1.498  53.860  1.00  0.00     0.000 HD
ENDBRANCH   7  18
TORSDOF 1
ENDMDL
MODEL 5
REMARK VINA RESULT:      -7.6      1.624      3.785
REMARK  1 active torsions:
REMARK  status: ('A' for Active; 'I' for Inactive)
REMARK    1  A    between atoms: C7_7  and  C8_8 
ROOT
HETATM    1  C1  UNL     1      21.985   4.147  50.058  1.00  0.00     0.017 C 
HETATM    2  C2  UNL     1      22.492   3.207  51.094  1.00  0.00    -0.018 C 
HETATM    3  C3  UNL     1      23.735   2.807  50.974  1.00  0.00     0.042 A 
HETATM    4  C4  UNL     1      25.093   2.218  51.059  1.00  0.00    -0.033 A 
HETATM    5  C5  UNL     1      26.314   1.713  51.070  1.00  0.00     0.007 C 
HETATM    6  C6  UNL     1      27.039   0.996  52.149  1.00  0.00     0.015 C 
HETATM    7  C7  UNL     1      26.723   1.293  53.423  1.00  0.00     0.003 C 
HETATM    8  C9  UNL     1      25.732   2.248  53.993  1.00  0.00     0.013 C 
HETATM    9  C10 UNL     1      24.558   2.532  53.369  1.00  0.00     0.011 C 
HETATM   10  C11 UNL     1      24.113   1.956  52.089  1.00  0.00     0.085 A 
HETATM   11  N1  UNL     1      23.171   0.882  52.142  1.00  0.00    -0.391 N 
HETATM   12  C12 UNL     1      23.547  -0.321  52.722  1.00  0.00     0.119 C 
HETATM   13  C13 UNL     1      22.445  -1.232  53.178  1.00  0.00     0.020 C 
HETATM   14  C14 UNL     1      21.450  -0.523  54.064  1.00  0.00     0.004 C 
HETATM   15  C15 UNL     1      21.542   0.976  53.879  1.00  0.00     0.025 C 
HETATM   16  C16 UNL     1      21.841   1.277  52.404  1.00  0.00     0.081 C 
HETATM   17  C17 UNL     1      21.595   2.760  52.180  1.00  0.00     0.036 C 
ENDROOT
BRANCH   7  18
HETATM   18  C8  UNL     1      27.513   0.518  54.380  1.00  0.00     0.154 A 
HETATM   19  O1  UNL     1      28.512   1.120  54.883  1.00  0.00    -0.188 OA
HETATM   20  O2  UNL     1      28.237  -0.224  55.271  1.00  0.00     0.000 OA
HETATM   21  H6  UNL     1      27.904  -1.171  55.515  1.00  0.00     0.000 HD
ENDBRANCH   7  18
TORSDOF 1
ENDMDL
MODEL 6
REMARK VINA RESULT:      -7.6      3.148      5.604
REMARK  1 active torsions:
REMARK  status: ('A' for Active; 'I' for Inactive)
REMARK    1  A    between atoms: C7_7  and  C8_8 
ROOT
HETATM    1  C1  UNL     1      21.200   0.489  50.584  1.00  0.00     0.017 C 
HETATM    2  C2  UNL     1      22.323   1.373  50.996  1.00  0.00    -0.018 C 
HETATM    3  C3  UNL     1      22.696   2.295  50.142  1.00  0.00     0.042 A 
HETATM    4  C4  UNL     1      23.296   3.404  49.361  1.00  0.00    -0.033 A 
HETATM    5  C5  UNL     1      23.797   4.368  48.610  1.00  0.00     0.007 C 
HETATM    6  C6  UNL     1      24.712   5.480  48.971  1.00  0.00     0.015 C 
HETATM    7  C7  UNL     1      24.665   5.947  50.232  1.00  0.00     0.003 C 
HETATM    8  C9  UNL     1      23.835   5.541  51.402  1.00  0.00     0.013 C 
HETATM    9  C10 UNL     1      23.432   4.256  51.592  1.00  0.00     0.011 C 
HETATM   10  C11 UNL     1      23.748   3.124  50.705  1.00  0.00     0.085 A 
HETATM   11  N1  UNL     1      24.809   2.253  51.103  1.00  0.00    -0.391 N 
HETATM   12  C12 UNL     1      26.103   2.748  51.175  1.00  0.00     0.119 C 
HETATM   13  C13 UNL     1      27.081   1.982  52.017  1.00  0.00     0.020 C 
HETATM   14  C14 UNL     1      26.554   1.718  53.406  1.00  0.00     0.004 C 
HETATM   15  C15 UNL     1      25.048   1.860  53.442  1.00  0.00     0.025 C 
HETATM   16  C16 UNL     1      24.468   1.334  52.121  1.00  0.00     0.081 C 
HETATM   17  C17 UNL     1      22.969   1.172  52.311  1.00  0.00     0.036 C 
ENDROOT
BRANCH   7  18
HETATM   18  C8  UNL     1      25.613   7.040  50.449  1.00  0.00     0.154 A 
HETATM   19  O1  UNL     1      26.406   7.280  49.487  1.00  0.00    -0.188 OA
HETATM   20  O2  UNL     1      26.490   8.065  50.673  1.00  0.00     0.000 OA
HETATM   21  H6  UNL     1      26.415   8.599  51.555  1.00  0.00     0.000 HD
ENDBRANCH   7  18
TORSDOF 1
ENDMDL
MODEL 7
REMARK VINA RESULT:      -7.5      2.138      4.441
REMARK  1 active torsions:
REMARK  status: ('A' for Active; 'I' for Inactive)
REMARK    1  A    between atoms: C7_7  and  C8_8 
ROOT
HETATM    1  C1  UNL     1      24.108   5.526  49.089  1.00  0.00     0.017 C 
HETATM    2  C2  UNL     1      23.837   4.496  50.129  1.00  0.00    -0.018 C 
HETATM    3  C3  UNL     1      24.794   3.634  50.372  1.00  0.00     0.042 A 
HETATM    4  C4  UNL     1      25.708   2.558  50.827  1.00  0.00    -0.033 A 
HETATM    5  C5  UNL     1      26.562   1.613  51.175  1.00  0.00     0.007 C 
HETATM    6  C6  UNL     1      26.550   0.703  52.349  1.00  0.00     0.015 C 
HETATM    7  C7  UNL     1      25.964   1.142  53.477  1.00  0.00     0.003 C 
HETATM    8  C9  UNL     1      25.284   2.430  53.797  1.00  0.00     0.013 C 
HETATM    9  C10 UNL     1      24.592   3.134  52.862  1.00  0.00     0.011 C 
HETATM   10  C11 UNL     1      24.419   2.739  51.454  1.00  0.00     0.085 A 
HETATM   11  N1  UNL     1      23.180   2.128  51.090  1.00  0.00    -0.391 N 
HETATM   12  C12 UNL     1      22.848   0.893  51.630  1.00  0.00     0.119 C 
HETATM   13  C13 UNL     1      21.397   0.508  51.610  1.00  0.00     0.020 C 
HETATM   14  C14 UNL     1      20.515   1.581  52.200  1.00  0.00     0.004 C 
HETATM   15  C15 UNL     1      21.230   2.915  52.213  1.00  0.00     0.025 C 
HETATM   16  C16 UNL     1      22.097   3.025  50.951  1.00  0.00     0.081 C 
HETATM   17  C17 UNL     1      22.528   4.476  50.817  1.00  0.00     0.036 C 
ENDROOT
BRANCH   7  18
HETATM   18  C8  UNL     1      26.025   0.150  54.551  1.00  0.00     0.154 A 
HETATM   19  O1  UNL     1      27.192  -0.200  54.910  1.00  0.00    -0.188 OA
HETATM   20  O2  UNL     1      26.060  -0.778  55.554  1.00  0.00     0.000 OA
HETATM   21  H6  UNL     1      25.170  -1.080  55.983  1.00  0.00     0.000 HD
ENDBRANCH   7  18
TORSDOF 1
ENDMDL
MODEL 8
REMARK VINA RESULT:      -7.3      3.291      6.220
REMARK  1 active torsions:
REMARK  status: ('A' for Active; 'I' for Inactive)
REMARK    1  A    between atoms: C7_7  and  C8_8 
ROOT
HETATM    1  C1  UNL     1      26.129   5.417  48.867  1.00  0.00     0.017 C 
HETATM    2  C2  UNL     1      25.637   4.318  49.742  1.00  0.00    -0.018 C 
HETATM    3  C3  UNL     1      24.466   4.489  50.306  1.00  0.00     0.042 A 
HETATM    4  C4  UNL     1      23.183   4.442  51.049  1.00  0.00    -0.033 A 
HETATM    5  C5  UNL     1      22.034   4.468  51.699  1.00  0.00     0.007 C 
HETATM    6  C6  UNL     1      21.297   3.372  52.378  1.00  0.00     0.015 C 
HETATM    7  C7  UNL     1      21.455   2.123  51.904  1.00  0.00     0.003 C 
HETATM    8  C9  UNL     1      22.270   1.594  50.774  1.00  0.00     0.013 C 
HETATM    9  C10 UNL     1      23.457   2.152  50.415  1.00  0.00     0.011 C 
HETATM   10  C11 UNL     1      24.085   3.313  51.069  1.00  0.00     0.085 A 
HETATM   11  N1  UNL     1      25.135   3.053  52.003  1.00  0.00    -0.391 N 
HETATM   12  C12 UNL     1      24.848   2.364  53.172  1.00  0.00     0.119 C 
HETATM   13  C13 UNL     1      26.000   1.713  53.881  1.00  0.00     0.020 C 
HETATM   14  C14 UNL     1      26.818   0.842  52.958  1.00  0.00     0.004 C 
HETATM   15  C15 UNL     1      26.571   1.214  51.513  1.00  0.00     0.025 C 
HETATM   16  C16 UNL     1      26.381   2.735  51.417  1.00  0.00     0.081 C 
HETATM   17  C17 UNL     1      26.473   3.117  49.949  1.00  0.00     0.036 C 
ENDROOT
BRANCH   7  18
HETATM   18  C8  UNL     1      20.672   1.145  52.661  1.00  0.00     0.154 A 
HETATM   19  O1  UNL     1      21.246   0.653  53.681  1.00  0.00    -0.188 OA
HETATM   20  O2  UNL     1      19.924   0.234  53.352  1.00  0.00     0.000 OA
HETATM   21  H6  UNL     1      18.954   0.053  53.047  1.00  0.00     0.000 HD
ENDBRANCH   7  18
TORSDOF 1
ENDMDL
MODEL 9
REMARK VINA RESULT:      -7.1      3.155      5.473
REMARK  1 active torsions:
REMARK  status: ('A' for Active; 'I' for Inactive)
REMARK    1  A    between atoms: C7_7  and  C8_8 
ROOT
HETATM    1  C1  UNL     1      17.356  -0.868  51.596  1.00  0.00     0.017 C 
HETATM    2  C2  UNL     1      18.640  -0.271  52.055  1.00  0.00    -0.018 C 
HETATM    3  C3  UNL     1      19.318   0.425  51.175  1.00  0.00     0.042 A 
HETATM    4  C4  UNL     1      20.258   1.249  50.377  1.00  0.00    -0.033 A 
HETATM    5  C5  UNL     1      21.062   1.962  49.609  1.00  0.00     0.007 C 
HETATM    6  C6  UNL     1      22.211   2.828  49.976  1.00  0.00     0.015 C 
HETATM    7  C7  UNL     1      22.189   3.422  51.184  1.00  0.00     0.003 C 
HETATM    8  C9  UNL     1      21.186   3.374  52.286  1.00  0.00     0.013 C 
HETATM    9  C10 UNL     1      20.436   2.267  52.534  1.00  0.00     0.011 C 
HETATM   10  C11 UNL     1      20.505   1.005  51.780  1.00  0.00     0.085 A 
HETATM   11  N1  UNL     1      21.254  -0.067  52.358  1.00  0.00    -0.391 N 
HETATM   12  C12 UNL     1      22.623   0.077  52.530  1.00  0.00     0.119 C 
HETATM   13  C13 UNL     1      23.284  -0.825  53.531  1.00  0.00     0.020 C 
HETATM   14  C14 UNL     1      22.591  -0.792  54.871  1.00  0.00     0.004 C 
HETATM   15  C15 UNL     1      21.182  -0.258  54.733  1.00  0.00     0.025 C 
HETATM   16  C16 UNL     1      20.593  -0.750  53.403  1.00  0.00     0.081 C 
HETATM   17  C17 UNL     1      19.096  -0.493  53.443  1.00  0.00     0.036 C 
ENDROOT
BRANCH   7  18
HETATM   18  C8  UNL     1      23.376   4.245  51.414  1.00  0.00     0.154 A 
HETATM   19  O1  UNL     1      23.384   4.909  52.496  1.00  0.00    -0.188 OA
HETATM   20  O2  UNL     1      24.494   5.008  51.608  1.00  0.00     0.000 OA
HETATM   21  H6  UNL     1      25.260   4.952  50.917  1.00  0.00     0.000 HD
ENDBRANCH   7  18
TORSDOF 1
ENDMDL
