MODEL 1
REMARK VINA RESULT:      -8.1      0.000      0.000
REMARK  7 active torsions:
REMARK  status: ('A' for Active; 'I' for Inactive)
REMARK    1  A    between atoms: O1_2  and  C2_3 
REMARK    2  A    between atoms: C4_5  and  N1_6 
REMARK    3  A    between atoms: N1_6  and  C6_8 
REMARK    4  A    between atoms: C6_8  and  C7_9 
REMARK    5  A    between atoms: C7_9  and  N2_10 
REMARK    6  A    between atoms: N4_20  and  C16_21 
REMARK    7  A    between atoms: C21_27  and  C22_28 
ROOT
HETATM    1  C2  UNL     1      23.184   1.501  51.112  1.00  0.00     0.266 C 
HETATM    2  C3  UNL     1      22.153   0.844  51.960  1.00  0.00     0.052 C 
HETATM    3  C4  UNL     1      22.865   0.216  52.848  1.00  0.00     0.012 C 
HETATM    4  C10 UNL     1      23.587  -0.527  53.957  1.00  0.00     0.076 C 
HETATM    5  C11 UNL     1      24.785  -0.446  53.248  1.00  0.00     0.001 C 
HETATM    6  C12 UNL     1      26.120  -0.977  53.698  1.00  0.00     0.120 C 
HETATM    7  N3  UNL     1      26.981   0.216  53.893  1.00  0.00    -0.399 N 
HETATM    8  C13 UNL     1      27.261   1.056  52.746  1.00  0.00     0.080 C 
HETATM    9  C14 UNL     1      26.337   2.021  52.441  1.00  0.00     0.010 C 
HETATM   10  C15 UNL     1      25.044   2.549  52.909  1.00  0.00     0.173 C 
HETATM   11  N4  UNL     1      23.990   2.481  51.883  1.00  0.00    -0.179 N 
HETATM   12  H23 UNL     1      27.531   0.750  54.614  1.00  0.00     0.158 HD
ENDROOT
BRANCH  11  13
HETATM   13  C16 UNL     1      23.483   3.811  51.545  1.00  0.00     0.744 A 
HETATM   14  N5  UNL     1      22.254   4.285  51.792  1.00  0.00    -0.071 NA
HETATM   15  C17 UNL     1      21.833   5.520  51.498  1.00  0.00     0.168 A 
HETATM   16  C18 UNL     1      22.745   6.379  50.888  1.00  0.00     0.077 A 
HETATM   17  C19 UNL     1      22.646   7.710  50.458  1.00  0.00     0.035 A 
HETATM   18  N6  UNL     1      23.981   5.926  50.632  1.00  0.00    -0.221 N 
HETATM   19  C20 UNL     1      23.918   7.978  49.938  1.00  0.00     0.030 A 
HETATM   20  C21 UNL     1      24.746   6.877  50.045  1.00  0.00     0.041 A 
HETATM   21  N7  UNL     1      24.309   4.691  50.957  1.00  0.00     0.026 NA
BRANCH  20  22
HETATM   22  C22 UNL     1      26.165   6.816  49.601  1.00  0.00     0.038 A 
HETATM   23  C23 UNL     1      26.350   6.978  48.086  1.00  0.00     0.011 A 
HETATM   24  C24 UNL     1      26.678   5.701  48.788  1.00  0.00     0.011 A 
ENDBRANCH  20  22
ENDBRANCH  11  13
BRANCH   1  25
HETATM   25  O1  UNL     1      22.694   2.109  49.982  1.00  0.00    -0.367 OA
HETATM   26  C1  UNL     1      21.680   1.397  49.367  1.00  0.00     0.204 C 
ENDBRANCH   1  25
BRANCH   3  27
HETATM   27  N1  UNL     1      21.629  -0.291  53.506  1.00  0.00    -0.387 N 
HETATM   28  C5  UNL     1      21.831  -1.656  54.036  1.00  0.00     0.149 C 
BRANCH  27  29
HETATM   29  C6  UNL     1      20.267   0.130  53.780  1.00  0.00     0.152 C 
BRANCH  29  30
HETATM   30  C7  UNL     1      19.310  -0.988  53.456  1.00  0.00     0.291 C 
BRANCH  30  31
HETATM   31  N2  UNL     1      18.138  -0.487  52.754  1.00  0.00     0.081 N 
HETATM   32  C8  UNL     1      18.423  -0.149  51.388  1.00  0.00     0.309 C 
HETATM   33  C9  UNL     1      17.057  -1.414  52.819  1.00  0.00     0.309 C 
ENDBRANCH  30  31
ENDBRANCH  29  30
ENDBRANCH  27  29
ENDBRANCH   3  27
TORSDOF 7
ENDMDL
MODEL 2
REMARK VINA RESULT:      -8.0      1.656      7.241
REMARK  7 active torsions:
REMARK  status: ('A' for Active; 'I' for Inactive)
REMARK    1  A    between atoms: O1_2  and  C2_3 
REMARK    2  A    between atoms: C4_5  and  N1_6 
REMARK    3  A    between atoms: N1_6  and  C6_8 
REMARK    4  A    between atoms: C6_8  and  C7_9 
REMARK    5  A    between atoms: C7_9  and  N2_10 
REMARK    6  A    between atoms: N4_20  and  C16_21 
REMARK    7  A    between atoms: C21_27  and  C22_28 
ROOT
HETATM    1  C2  UNL     1      22.378   2.720  49.818  1.00  0.00     0.266 C 
HETATM    2  C3  UNL     1      23.628   2.375  50.549  1.00  0.00     0.052 C 
HETATM    3  C4  UNL     1      24.062   3.533  50.945  1.00  0.00     0.012 C 
HETATM    4  C10 UNL     1      24.646   4.823  51.493  1.00  0.00     0.076 C 
HETATM    5  C11 UNL     1      23.845   5.568  50.628  1.00  0.00     0.001 C 
HETATM    6  C12 UNL     1      23.798   7.070  50.533  1.00  0.00     0.120 C 
HETATM    7  N3  UNL     1      22.438   7.457  50.982  1.00  0.00    -0.399 N 
HETATM    8  C13 UNL     1      21.301   6.982  50.219  1.00  0.00     0.080 C 
HETATM    9  C14 UNL     1      20.827   5.732  50.522  1.00  0.00     0.010 C 
HETATM   10  C15 UNL     1      21.092   4.602  51.427  1.00  0.00     0.173 C 
HETATM   11  N4  UNL     1      21.372   3.345  50.713  1.00  0.00    -0.179 N 
HETATM   12  H23 UNL     1      21.915   8.003  51.715  1.00  0.00     0.158 HD
ENDROOT
BRANCH  11  13
HETATM   13  C16 UNL     1      20.387   2.312  51.036  1.00  0.00     0.744 A 
HETATM   14  N5  UNL     1      19.243   2.067  50.384  1.00  0.00    -0.071 NA
HETATM   15  C17 UNL     1      18.380   1.091  50.687  1.00  0.00     0.168 A 
HETATM   16  C18 UNL     1      18.698   0.266  51.764  1.00  0.00     0.077 A 
HETATM   17  C19 UNL     1      18.041  -0.831  52.340  1.00  0.00     0.035 A 
HETATM   18  N6  UNL     1      19.840   0.493  52.429  1.00  0.00    -0.221 N 
HETATM   19  C20 UNL     1      18.895  -1.208  53.383  1.00  0.00     0.030 A 
HETATM   20  C21 UNL     1      20.008  -0.393  53.441  1.00  0.00     0.041 A 
HETATM   21  N7  UNL     1      20.632   1.480  52.060  1.00  0.00     0.026 NA
BRANCH  20  22
HETATM   22  C22 UNL     1      21.121  -0.518  54.419  1.00  0.00     0.038 A 
HETATM   23  C23 UNL     1      22.479  -0.842  53.780  1.00  0.00     0.011 A 
HETATM   24  C24 UNL     1      21.784  -1.806  54.684  1.00  0.00     0.011 A 
ENDBRANCH  20  22
ENDBRANCH  11  13
BRANCH   1  25
HETATM   25  O1  UNL     1      21.797   1.671  49.149  1.00  0.00    -0.367 OA
HETATM   26  C1  UNL     1      22.077   1.657  47.794  1.00  0.00     0.204 C 
ENDBRANCH   1  25
BRANCH   3  27
HETATM   27  N1  UNL     1      25.229   2.890  51.608  1.00  0.00    -0.387 N 
HETATM   28  C5  UNL     1      26.411   2.889  50.720  1.00  0.00     0.149 C 
BRANCH  27  29
HETATM   29  C6  UNL     1      25.574   2.239  52.860  1.00  0.00     0.152 C 
BRANCH  29  30
HETATM   30  C7  UNL     1      26.989   1.728  52.799  1.00  0.00     0.291 C 
BRANCH  30  31
HETATM   31  N2  UNL     1      27.095   0.403  53.391  1.00  0.00     0.081 N 
HETATM   32  C8  UNL     1      26.317   0.278  54.591  1.00  0.00     0.309 C 
HETATM   33  C9  UNL     1      26.733  -0.613  52.459  1.00  0.00     0.309 C 
ENDBRANCH  30  31
ENDBRANCH  29  30
ENDBRANCH  27  29
ENDBRANCH   3  27
TORSDOF 7
ENDMDL
MODEL 3
REMARK VINA RESULT:      -7.8      2.634      6.239
REMARK  7 active torsions:
REMARK  status: ('A' for Active; 'I' for Inactive)
REMARK    1  A    between atoms: O1_2  and  C2_3 
REMARK    2  A    between atoms: C4_5  and  N1_6 
REMARK    3  A    between atoms: N1_6  and  C6_8 
REMARK    4  A    between atoms: C6_8  and  C7_9 
REMARK    5  A    between atoms: C7_9  and  N2_10 
REMARK    6  A    between atoms: N4_20  and  C16_21 
REMARK    7  A    between atoms: C21_27  and  C22_28 
ROOT
HETATM    1  C2  UNL     1      22.723   2.395  52.251  1.00  0.00     0.266 C 
HETATM    2  C3  UNL     1      24.096   1.834  52.368  1.00  0.00     0.052 C 
HETATM    3  C4  UNL     1      23.897   0.702  52.974  1.00  0.00     0.012 C 
HETATM    4  C10 UNL     1      23.783  -0.656  53.644  1.00  0.00     0.076 C 
HETATM    5  C11 UNL     1      22.497  -0.346  54.082  1.00  0.00     0.001 C 
HETATM    6  C12 UNL     1      21.591  -1.244  54.882  1.00  0.00     0.120 C 
HETATM    7  N3  UNL     1      20.444  -1.551  53.992  1.00  0.00    -0.399 N 
HETATM    8  C13 UNL     1      19.609  -0.455  53.543  1.00  0.00     0.080 C 
HETATM    9  C14 UNL     1      20.028   0.233  52.434  1.00  0.00     0.010 C 
HETATM   10  C15 UNL     1      21.126   0.251  51.453  1.00  0.00     0.173 C 
HETATM   11  N4  UNL     1      21.845   1.536  51.418  1.00  0.00    -0.179 N 
HETATM   12  H23 UNL     1      19.940  -2.338  53.507  1.00  0.00     0.158 HD
ENDROOT
BRANCH  11  13
HETATM   13  C16 UNL     1      21.751   2.169  50.103  1.00  0.00     0.744 A 
HETATM   14  N5  UNL     1      22.643   2.082  49.108  1.00  0.00    -0.071 NA
HETATM   15  C17 UNL     1      22.509   2.648  47.903  1.00  0.00     0.168 A 
HETATM   16  C18 UNL     1      21.351   3.386  47.667  1.00  0.00     0.077 A 
HETATM   17  C19 UNL     1      20.892   4.091  46.545  1.00  0.00     0.035 A 
HETATM   18  N6  UNL     1      20.443   3.485  48.649  1.00  0.00    -0.221 N 
HETATM   19  C20 UNL     1      19.658   4.599  46.965  1.00  0.00     0.030 A 
HETATM   20  C21 UNL     1      19.376   4.226  48.265  1.00  0.00     0.041 A 
HETATM   21  N7  UNL     1      20.659   2.893  49.807  1.00  0.00     0.026 NA
BRANCH  20  22
HETATM   22  C22 UNL     1      18.145   4.584  49.020  1.00  0.00     0.038 A 
HETATM   23  C23 UNL     1      17.089   3.471  49.051  1.00  0.00     0.011 A 
HETATM   24  C24 UNL     1      16.847   4.767  48.350  1.00  0.00     0.011 A 
ENDBRANCH  20  22
ENDBRANCH  11  13
BRANCH   1  25
HETATM   25  O1  UNL     1      22.669   3.685  51.782  1.00  0.00    -0.367 OA
HETATM   26  C1  UNL     1      23.700   4.484  52.243  1.00  0.00     0.204 C 
ENDBRANCH   1  25
BRANCH   3  27
HETATM   27  N1  UNL     1      25.354   0.401  52.930  1.00  0.00    -0.387 N 
HETATM   28  C5  UNL     1      26.019   1.151  51.843  1.00  0.00     0.149 C 
BRANCH  27  29
HETATM   29  C6  UNL     1      26.337  -0.420  53.614  1.00  0.00     0.152 C 
BRANCH  29  30
HETATM   30  C7  UNL     1      27.022   0.386  54.686  1.00  0.00     0.291 C 
BRANCH  30  31
HETATM   31  N2  UNL     1      28.469   0.312  54.555  1.00  0.00     0.081 N 
HETATM   32  C8  UNL     1      28.887  -0.796  53.743  1.00  0.00     0.309 C 
HETATM   33  C9  UNL     1      29.009   1.530  54.046  1.00  0.00     0.309 C 
ENDBRANCH  30  31
ENDBRANCH  29  30
ENDBRANCH  27  29
ENDBRANCH   3  27
TORSDOF 7
ENDMDL
MODEL 4
REMARK VINA RESULT:      -7.5      1.992      7.737
REMARK  7 active torsions:
REMARK  status: ('A' for Active; 'I' for Inactive)
REMARK    1  A    between atoms: O1_2  and  C2_3 
REMARK    2  A    between atoms: C4_5  and  N1_6 
REMARK    3  A    between atoms: N1_6  and  C6_8 
REMARK    4  A    between atoms: C6_8  and  C7_9 
REMARK    5  A    between atoms: C7_9  and  N2_10 
REMARK    6  A    between atoms: N4_20  and  C16_21 
REMARK    7  A    between atoms: C21_27  and  C22_28 
ROOT
HETATM    1  C2  UNL     1      21.956   2.478  52.248  1.00  0.00     0.266 C 
HETATM    2  C3  UNL     1      22.904   2.985  51.219  1.00  0.00     0.052 C 
HETATM    3  C4  UNL     1      24.003   2.352  51.500  1.00  0.00     0.012 C 
HETATM    4  C10 UNL     1      25.330   1.644  51.709  1.00  0.00     0.076 C 
HETATM    5  C11 UNL     1      24.934   1.251  52.986  1.00  0.00     0.001 C 
HETATM    6  C12 UNL     1      25.742   0.424  53.951  1.00  0.00     0.120 C 
HETATM    7  N3  UNL     1      25.001  -0.852  54.102  1.00  0.00    -0.399 N 
HETATM    8  C13 UNL     1      23.661  -0.808  54.653  1.00  0.00     0.080 C 
HETATM    9  C14 UNL     1      22.638  -0.550  53.779  1.00  0.00     0.010 C 
HETATM   10  C15 UNL     1      22.401  -0.275  52.352  1.00  0.00     0.173 C 
HETATM   11  N4  UNL     1      21.732   1.016  52.118  1.00  0.00    -0.179 N 
HETATM   12  H23 UNL     1      25.074  -1.892  53.954  1.00  0.00     0.158 HD
ENDROOT
BRANCH  11  13
HETATM   13  C16 UNL     1      20.438   0.840  51.459  1.00  0.00     0.744 A 
HETATM   14  N5  UNL     1      20.078   1.321  50.262  1.00  0.00    -0.071 NA
HETATM   15  C17 UNL     1      18.895   1.112  49.673  1.00  0.00     0.168 A 
HETATM   16  C18 UNL     1      17.966   0.334  50.360  1.00  0.00     0.077 A 
HETATM   17  C19 UNL     1      16.664  -0.082  50.045  1.00  0.00     0.035 A 
HETATM   18  N6  UNL     1      18.306  -0.160  51.560  1.00  0.00    -0.221 N 
HETATM   19  C20 UNL     1      16.290  -0.845  51.157  1.00  0.00     0.030 A 
HETATM   20  C21 UNL     1      17.303  -0.897  52.095  1.00  0.00     0.041 A 
HETATM   21  N7  UNL     1      19.496   0.097  52.064  1.00  0.00     0.026 NA
BRANCH  20  22
HETATM   22  C22 UNL     1      17.247  -1.629  53.389  1.00  0.00     0.038 A 
HETATM   23  C23 UNL     1      18.552  -2.349  53.754  1.00  0.00     0.011 A 
HETATM   24  C24 UNL     1      17.297  -3.099  53.454  1.00  0.00     0.011 A 
ENDBRANCH  20  22
ENDBRANCH  11  13
BRANCH   1  25
HETATM   25  O1  UNL     1      20.743   3.120  52.276  1.00  0.00    -0.367 OA
HETATM   26  C1  UNL     1      20.770   4.377  51.700  1.00  0.00     0.204 C 
ENDBRANCH   1  25
BRANCH   3  27
HETATM   27  N1  UNL     1      24.699   3.019  50.366  1.00  0.00    -0.387 N 
HETATM   28  C5  UNL     1      23.789   3.195  49.213  1.00  0.00     0.149 C 
BRANCH  27  29
HETATM   29  C6  UNL     1      26.009   3.543  50.022  1.00  0.00     0.152 C 
BRANCH  29  30
HETATM   30  C7  UNL     1      25.932   5.036  49.836  1.00  0.00     0.291 C 
BRANCH  30  31
HETATM   31  N2  UNL     1      26.589   5.446  48.605  1.00  0.00     0.081 N 
HETATM   32  C8  UNL     1      26.530   6.866  48.401  1.00  0.00     0.309 C 
HETATM   33  C9  UNL     1      27.941   4.995  48.561  1.00  0.00     0.309 C 
ENDBRANCH  30  31
ENDBRANCH  29  30
ENDBRANCH  27  29
ENDBRANCH   3  27
TORSDOF 7
ENDMDL
MODEL 5
REMARK VINA RESULT:      -7.4      5.873     10.879
REMARK  7 active torsions:
REMARK  status: ('A' for Active; 'I' for Inactive)
REMARK    1  A    between atoms: O1_2  and  C2_3 
REMARK    2  A    between atoms: C4_5  and  N1_6 
REMARK    3  A    between atoms: N1_6  and  C6_8 
REMARK    4  A    between atoms: C6_8  and  C7_9 
REMARK    5  A    between atoms: C7_9  and  N2_10 
REMARK    6  A    between atoms: N4_20  and  C16_21 
REMARK    7  A    between atoms: C21_27  and  C22_28 
ROOT
HETATM    1  C2  UNL     1      28.391   8.937  46.690  1.00  0.00     0.266 C 
HETATM    2  C3  UNL     1      29.424   8.032  47.264  1.00  0.00     0.052 C 
HETATM    3  C4  UNL     1      30.083   8.814  48.065  1.00  0.00     0.012 C 
HETATM    4  C10 UNL     1      30.902   9.621  49.056  1.00  0.00     0.076 C 
HETATM    5  C11 UNL     1      30.416  10.808  48.512  1.00  0.00     0.001 C 
HETATM    6  C12 UNL     1      30.754  12.201  48.973  1.00  0.00     0.120 C 
HETATM    7  N3  UNL     1      29.491  12.763  49.510  1.00  0.00    -0.399 N 
HETATM    8  C13 UNL     1      28.367  12.913  48.608  1.00  0.00     0.080 C 
HETATM    9  C14 UNL     1      27.566  11.816  48.423  1.00  0.00     0.010 C 
HETATM   10  C15 UNL     1      27.436  10.415  48.856  1.00  0.00     0.173 C 
HETATM   11  N4  UNL     1      27.475   9.461  47.735  1.00  0.00    -0.179 N 
HETATM   12  H23 UNL     1      29.040  13.140  50.383  1.00  0.00     0.158 HD
ENDROOT
BRANCH  11  13
HETATM   13  C16 UNL     1      26.235   8.691  47.641  1.00  0.00     0.744 A 
HETATM   14  N5  UNL     1      25.152   9.005  46.917  1.00  0.00    -0.071 NA
HETATM   15  C17 UNL     1      24.045   8.259  46.827  1.00  0.00     0.168 A 
HETATM   16  C18 UNL     1      24.018   7.064  47.543  1.00  0.00     0.077 A 
HETATM   17  C19 UNL     1      23.046   6.061  47.669  1.00  0.00     0.035 A 
HETATM   18  N6  UNL     1      25.091   6.730  48.273  1.00  0.00    -0.221 N 
HETATM   19  C20 UNL     1      23.648   5.134  48.527  1.00  0.00     0.030 A 
HETATM   20  C21 UNL     1      24.914   5.543  48.902  1.00  0.00     0.041 A 
HETATM   21  N7  UNL     1      26.141   7.527  48.303  1.00  0.00     0.026 NA
BRANCH  20  22
HETATM   22  C22 UNL     1      25.835   4.794  49.797  1.00  0.00     0.038 A 
HETATM   23  C23 UNL     1      27.072   4.230  49.085  1.00  0.00     0.011 A 
HETATM   24  C24 UNL     1      26.028   3.339  49.674  1.00  0.00     0.011 A 
ENDBRANCH  20  22
ENDBRANCH  11  13
BRANCH   1  25
HETATM   25  O1  UNL     1      27.648   8.388  45.674  1.00  0.00    -0.367 OA
HETATM   26  C1  UNL     1      27.904   8.952  44.437  1.00  0.00     0.204 C 
ENDBRANCH   1  25
BRANCH   3  27
HETATM   27  N1  UNL     1      30.970   7.687  48.465  1.00  0.00    -0.387 N 
HETATM   28  C5  UNL     1      30.246   6.399  48.419  1.00  0.00     0.149 C 
BRANCH  27  29
HETATM   29  C6  UNL     1      32.333   7.452  48.908  1.00  0.00     0.152 C 
BRANCH  29  30
HETATM   30  C7  UNL     1      32.587   5.972  49.022  1.00  0.00     0.291 C 
BRANCH  30  31
HETATM   31  N2  UNL     1      33.830   5.601  48.365  1.00  0.00     0.081 N 
HETATM   32  C8  UNL     1      33.638   5.260  46.984  1.00  0.00     0.309 C 
HETATM   33  C9  UNL     1      34.811   6.628  48.489  1.00  0.00     0.309 C 
ENDBRANCH  30  31
ENDBRANCH  29  30
ENDBRANCH  27  29
ENDBRANCH   3  27
TORSDOF 7
ENDMDL
MODEL 6
REMARK VINA RESULT:      -7.3      2.102      8.165
REMARK  7 active torsions:
REMARK  status: ('A' for Active; 'I' for Inactive)
REMARK    1  A    between atoms: O1_2  and  C2_3 
REMARK    2  A    between atoms: C4_5  and  N1_6 
REMARK    3  A    between atoms: N1_6  and  C6_8 
REMARK    4  A    between atoms: C6_8  and  C7_9 
REMARK    5  A    between atoms: C7_9  and  N2_10 
REMARK    6  A    between atoms: N4_20  and  C16_21 
REMARK    7  A    between atoms: C21_27  and  C22_28 
ROOT
HETATM    1  C2  UNL     1      22.820   3.695  49.008  1.00  0.00     0.266 C 
HETATM    2  C3  UNL     1      24.134   4.374  49.164  1.00  0.00     0.052 C 
HETATM    3  C4  UNL     1      23.806   5.628  49.247  1.00  0.00     0.012 C 
HETATM    4  C10 UNL     1      23.540   7.116  49.392  1.00  0.00     0.076 C 
HETATM    5  C11 UNL     1      22.250   6.948  48.893  1.00  0.00     0.001 C 
HETATM    6  C12 UNL     1      21.220   8.031  48.710  1.00  0.00     0.120 C 
HETATM    7  N3  UNL     1      20.128   7.711  49.661  1.00  0.00    -0.399 N 
HETATM    8  C13 UNL     1      19.413   6.461  49.492  1.00  0.00     0.080 C 
HETATM    9  C14 UNL     1      19.967   5.345  50.064  1.00  0.00     0.010 C 
HETATM   10  C15 UNL     1      21.137   4.934  50.857  1.00  0.00     0.173 C 
HETATM   11  N4  UNL     1      21.949   3.900  50.193  1.00  0.00    -0.179 N 
HETATM   12  H23 UNL     1      19.607   8.074  50.501  1.00  0.00     0.158 HD
ENDROOT
BRANCH  11  13
HETATM   13  C16 UNL     1      22.005   2.670  50.982  1.00  0.00     0.744 A 
HETATM   14  N5  UNL     1      21.012   1.789  51.162  1.00  0.00    -0.071 NA
HETATM   15  C17 UNL     1      21.108   0.655  51.865  1.00  0.00     0.168 A 
HETATM   16  C18 UNL     1      22.337   0.370  52.455  1.00  0.00     0.077 A 
HETATM   17  C19 UNL     1      22.783  -0.706  53.236  1.00  0.00     0.035 A 
HETATM   18  N6  UNL     1      23.346   1.237  52.287  1.00  0.00    -0.221 N 
HETATM   19  C20 UNL     1      24.119  -0.383  53.500  1.00  0.00     0.030 A 
HETATM   20  C21 UNL     1      24.471   0.818  52.914  1.00  0.00     0.041 A 
HETATM   21  N7  UNL     1      23.161   2.332  51.577  1.00  0.00     0.026 NA
BRANCH  20  22
HETATM   22  C22 UNL     1      25.814   1.453  52.985  1.00  0.00     0.038 A 
HETATM   23  C23 UNL     1      26.659   1.265  51.717  1.00  0.00     0.011 A 
HETATM   24  C24 UNL     1      27.051   0.656  53.022  1.00  0.00     0.011 A 
ENDBRANCH  20  22
ENDBRANCH  11  13
BRANCH   1  25
HETATM   25  O1  UNL     1      22.897   2.352  48.733  1.00  0.00    -0.367 OA
HETATM   26  C1  UNL     1      22.490   2.026  47.452  1.00  0.00     0.204 C 
ENDBRANCH   1  25
BRANCH   3  27
HETATM   27  N1  UNL     1      25.235   6.012  49.401  1.00  0.00    -0.387 N 
HETATM   28  C5  UNL     1      25.402   7.033  50.457  1.00  0.00     0.149 C 
BRANCH  27  29
HETATM   29  C6  UNL     1      26.533   5.710  48.822  1.00  0.00     0.152 C 
BRANCH  29  30
HETATM   30  C7  UNL     1      27.113   6.947  48.189  1.00  0.00     0.291 C 
BRANCH  30  31
HETATM   31  N2  UNL     1      28.513   6.754  47.846  1.00  0.00     0.081 N 
HETATM   32  C8  UNL     1      29.350   7.802  48.358  1.00  0.00     0.309 C 
HETATM   33  C9  UNL     1      28.986   5.483  48.285  1.00  0.00     0.309 C 
ENDBRANCH  30  31
ENDBRANCH  29  30
ENDBRANCH  27  29
ENDBRANCH   3  27
TORSDOF 7
ENDMDL
MODEL 7
REMARK VINA RESULT:      -7.3      2.164      3.571
REMARK  7 active torsions:
REMARK  status: ('A' for Active; 'I' for Inactive)
REMARK    1  A    between atoms: O1_2  and  C2_3 
REMARK    2  A    between atoms: C4_5  and  N1_6 
REMARK    3  A    between atoms: N1_6  and  C6_8 
REMARK    4  A    between atoms: C6_8  and  C7_9 
REMARK    5  A    between atoms: C7_9  and  N2_10 
REMARK    6  A    between atoms: N4_20  and  C16_21 
REMARK    7  A    between atoms: C21_27  and  C22_28 
ROOT
HETATM    1  C2  UNL     1      22.545   1.800  50.155  1.00  0.00     0.266 C 
HETATM    2  C3  UNL     1      21.096   2.074  50.352  1.00  0.00     0.052 C 
HETATM    3  C4  UNL     1      20.810   1.377  51.411  1.00  0.00     0.012 C 
HETATM    4  C10 UNL     1      20.367   0.633  52.658  1.00  0.00     0.076 C 
HETATM    5  C11 UNL     1      21.515  -0.156  52.611  1.00  0.00     0.001 C 
HETATM    6  C12 UNL     1      21.889  -1.238  53.588  1.00  0.00     0.120 C 
HETATM    7  N3  UNL     1      23.113  -0.754  54.273  1.00  0.00    -0.399 N 
HETATM    8  C13 UNL     1      24.300  -0.521  53.475  1.00  0.00     0.080 C 
HETATM    9  C14 UNL     1      24.405   0.698  52.857  1.00  0.00     0.010 C 
HETATM   10  C15 UNL     1      23.670   1.964  52.704  1.00  0.00     0.173 C 
HETATM   11  N4  UNL     1      23.359   2.282  51.300  1.00  0.00    -0.179 N 
HETATM   12  H23 UNL     1      23.503  -0.486  55.213  1.00  0.00     0.158 HD
ENDROOT
BRANCH  11  13
HETATM   13  C16 UNL     1      23.980   3.539  50.882  1.00  0.00     0.744 A 
HETATM   14  N5  UNL     1      25.236   3.704  50.448  1.00  0.00    -0.071 NA
HETATM   15  C17 UNL     1      25.763   4.865  50.042  1.00  0.00     0.168 A 
HETATM   16  C18 UNL     1      24.939   5.988  50.073  1.00  0.00     0.077 A 
HETATM   17  C19 UNL     1      25.155   7.328  49.723  1.00  0.00     0.035 A 
HETATM   18  N6  UNL     1      23.677   5.845  50.503  1.00  0.00    -0.221 N 
HETATM   19  C20 UNL     1      23.922   7.935  49.987  1.00  0.00     0.030 A 
HETATM   20  C21 UNL     1      23.005   7.021  50.469  1.00  0.00     0.041 A 
HETATM   21  N7  UNL     1      23.242   4.660  50.885  1.00  0.00     0.026 NA
BRANCH  20  22
HETATM   22  C22 UNL     1      21.597   7.323  50.842  1.00  0.00     0.038 A 
HETATM   23  C23 UNL     1      20.565   6.850  49.808  1.00  0.00     0.011 A 
HETATM   24  C24 UNL     1      20.787   8.299  50.094  1.00  0.00     0.011 A 
ENDBRANCH  20  22
ENDBRANCH  11  13
BRANCH   1  25
HETATM   25  O1  UNL     1      23.069   2.298  48.988  1.00  0.00    -0.367 OA
HETATM   26  C1  UNL     1      22.266   2.078  47.884  1.00  0.00     0.204 C 
ENDBRANCH   1  25
BRANCH   3  27
HETATM   27  N1  UNL     1      19.397   1.842  51.358  1.00  0.00    -0.387 N 
HETATM   28  C5  UNL     1      18.499   0.766  50.888  1.00  0.00     0.149 C 
BRANCH  27  29
HETATM   29  C6  UNL     1      18.614   3.040  51.609  1.00  0.00     0.152 C 
BRANCH  29  30
HETATM   30  C7  UNL     1      17.145   2.709  51.571  1.00  0.00     0.291 C 
BRANCH  30  31
HETATM   31  N2  UNL     1      16.335   3.917  51.576  1.00  0.00     0.081 N 
HETATM   32  C8  UNL     1      15.563   4.061  50.375  1.00  0.00     0.309 C 
HETATM   33  C9  UNL     1      15.486   3.971  52.720  1.00  0.00     0.309 C 
ENDBRANCH  30  31
ENDBRANCH  29  30
ENDBRANCH  27  29
ENDBRANCH   3  27
TORSDOF 7
ENDMDL
MODEL 8
REMARK VINA RESULT:      -7.1      1.929      3.386
REMARK  7 active torsions:
REMARK  status: ('A' for Active; 'I' for Inactive)
REMARK    1  A    between atoms: O1_2  and  C2_3 
REMARK    2  A    between atoms: C4_5  and  N1_6 
REMARK    3  A    between atoms: N1_6  and  C6_8 
REMARK    4  A    between atoms: C6_8  and  C7_9 
REMARK    5  A    between atoms: C7_9  and  N2_10 
REMARK    6  A    between atoms: N4_20  and  C16_21 
REMARK    7  A    between atoms: C21_27  and  C22_28 
ROOT
HETATM    1  C2  UNL     1      23.597   2.220  49.997  1.00  0.00     0.266 C 
HETATM    2  C3  UNL     1      22.320   2.683  50.604  1.00  0.00     0.052 C 
HETATM    3  C4  UNL     1      22.281   2.034  51.729  1.00  0.00     0.012 C 
HETATM    4  C10 UNL     1      22.144   1.361  53.082  1.00  0.00     0.076 C 
HETATM    5  C11 UNL     1      23.117   0.427  52.731  1.00  0.00     0.001 C 
HETATM    6  C12 UNL     1      23.630  -0.691  53.599  1.00  0.00     0.120 C 
HETATM    7  N3  UNL     1      25.053  -0.368  53.868  1.00  0.00    -0.399 N 
HETATM    8  C13 UNL     1      25.965  -0.297  52.744  1.00  0.00     0.080 C 
HETATM    9  C14 UNL     1      26.031   0.894  52.070  1.00  0.00     0.010 C 
HETATM   10  C15 UNL     1      25.447   2.245  52.086  1.00  0.00     0.173 C 
HETATM   11  N4  UNL     1      24.770   2.595  50.826  1.00  0.00    -0.179 N 
HETATM   12  H23 UNL     1      25.738  -0.150  54.637  1.00  0.00     0.158 HD
ENDROOT
BRANCH  11  13
HETATM   13  C16 UNL     1      25.389   3.758  50.188  1.00  0.00     0.744 A 
HETATM   14  N5  UNL     1      26.516   3.767  49.464  1.00  0.00    -0.071 NA
HETATM   15  C17 UNL     1      27.037   4.844  48.866  1.00  0.00     0.168 A 
HETATM   16  C18 UNL     1      26.353   6.049  49.009  1.00  0.00     0.077 A 
HETATM   17  C19 UNL     1      26.603   7.341  48.524  1.00  0.00     0.035 A 
HETATM   18  N6  UNL     1      25.221   6.063  49.729  1.00  0.00    -0.221 N 
HETATM   19  C20 UNL     1      25.531   8.088  49.024  1.00  0.00     0.030 A 
HETATM   20  C21 UNL     1      24.673   7.301  49.769  1.00  0.00     0.041 A 
HETATM   21  N7  UNL     1      24.781   4.951  50.283  1.00  0.00     0.026 NA
BRANCH  20  22
HETATM   22  C22 UNL     1      23.429   7.770  50.436  1.00  0.00     0.038 A 
HETATM   23  C23 UNL     1      22.147   7.138  49.876  1.00  0.00     0.011 A 
HETATM   24  C24 UNL     1      22.434   8.596  49.733  1.00  0.00     0.011 A 
ENDBRANCH  20  22
ENDBRANCH  11  13
BRANCH   1  25
HETATM   25  O1  UNL     1      23.804   2.640  48.706  1.00  0.00    -0.367 OA
HETATM   26  C1  UNL     1      22.662   2.611  47.926  1.00  0.00     0.204 C 
ENDBRANCH   1  25
BRANCH   3  27
HETATM   27  N1  UNL     1      20.987   2.682  52.078  1.00  0.00    -0.387 N 
HETATM   28  C5  UNL     1      20.173   1.808  52.949  1.00  0.00     0.149 C 
BRANCH  27  29
HETATM   29  C6  UNL     1      20.255   3.909  51.817  1.00  0.00     0.152 C 
BRANCH  29  30
HETATM   30  C7  UNL     1      18.813   3.591  51.515  1.00  0.00     0.291 C 
BRANCH  30  31
HETATM   31  N2  UNL     1      18.506   3.829  50.114  1.00  0.00     0.081 N 
HETATM   32  C8  UNL     1      19.412   4.763  49.507  1.00  0.00     0.309 C 
HETATM   33  C9  UNL     1      18.482   2.611  49.372  1.00  0.00     0.309 C 
ENDBRANCH  30  31
ENDBRANCH  29  30
ENDBRANCH  27  29
ENDBRANCH   3  27
TORSDOF 7
ENDMDL
MODEL 9
REMARK VINA RESULT:      -7.1      3.070      6.298
REMARK  7 active torsions:
REMARK  status: ('A' for Active; 'I' for Inactive)
REMARK    1  A    between atoms: O1_2  and  C2_3 
REMARK    2  A    between atoms: C4_5  and  N1_6 
REMARK    3  A    between atoms: N1_6  and  C6_8 
REMARK    4  A    between atoms: C6_8  and  C7_9 
REMARK    5  A    between atoms: C7_9  and  N2_10 
REMARK    6  A    between atoms: N4_20  and  C16_21 
REMARK    7  A    between atoms: C21_27  and  C22_28 
ROOT
HETATM    1  C2  UNL     1      21.023   3.486  51.445  1.00  0.00     0.266 C 
HETATM    2  C3  UNL     1      19.564   3.381  51.722  1.00  0.00     0.052 C 
HETATM    3  C4  UNL     1      19.044   3.361  50.531  1.00  0.00     0.012 C 
HETATM    4  C10 UNL     1      18.327   3.292  49.195  1.00  0.00     0.076 C 
HETATM    5  C11 UNL     1      19.464   3.768  48.545  1.00  0.00     0.001 C 
HETATM    6  C12 UNL     1      19.610   3.998  47.065  1.00  0.00     0.120 C 
HETATM    7  N3  UNL     1      20.626   3.019  46.606  1.00  0.00    -0.399 N 
HETATM    8  C13 UNL     1      21.967   3.114  47.149  1.00  0.00     0.080 C 
HETATM    9  C14 UNL     1      22.198   2.489  48.347  1.00  0.00     0.010 C 
HETATM   10  C15 UNL     1      21.501   1.688  49.366  1.00  0.00     0.173 C 
HETATM   11  N4  UNL     1      21.530   2.305  50.703  1.00  0.00    -0.179 N 
HETATM   12  H23 UNL     1      20.776   2.194  45.968  1.00  0.00     0.158 HD
ENDROOT
BRANCH  11  13
HETATM   13  C16 UNL     1      22.214   1.451  51.675  1.00  0.00     0.744 A 
HETATM   14  N5  UNL     1      21.637   0.669  52.597  1.00  0.00    -0.071 NA
HETATM   15  C17 UNL     1      22.293  -0.126  53.450  1.00  0.00     0.168 A 
HETATM   16  C18 UNL     1      23.684  -0.140  53.371  1.00  0.00     0.077 A 
HETATM   17  C19 UNL     1      24.664  -0.842  54.088  1.00  0.00     0.035 A 
HETATM   18  N6  UNL     1      24.282   0.635  52.455  1.00  0.00    -0.221 N 
HETATM   19  C20 UNL     1      25.862  -0.406  53.512  1.00  0.00     0.030 A 
HETATM   20  C21 UNL     1      25.630   0.507  52.500  1.00  0.00     0.041 A 
HETATM   21  N7  UNL     1      23.555   1.388  51.654  1.00  0.00     0.026 NA
BRANCH  20  22
HETATM   22  C22 UNL     1      26.676   1.163  51.671  1.00  0.00     0.038 A 
HETATM   23  C23 UNL     1      27.468   2.249  52.413  1.00  0.00     0.011 A 
HETATM   24  C24 UNL     1      26.574   2.573  51.263  1.00  0.00     0.011 A 
ENDBRANCH  20  22
ENDBRANCH  11  13
BRANCH   1  25
HETATM   25  O1  UNL     1      21.803   3.690  52.557  1.00  0.00    -0.367 OA
HETATM   26  C1  UNL     1      22.583   4.830  52.482  1.00  0.00     0.204 C 
ENDBRANCH   1  25
BRANCH   3  27
HETATM   27  N1  UNL     1      17.678   3.243  51.111  1.00  0.00    -0.387 N 
HETATM   28  C5  UNL     1      17.171   1.858  51.001  1.00  0.00     0.149 C 
BRANCH  27  29
HETATM   29  C6  UNL     1      16.666   4.072  51.742  1.00  0.00     0.152 C 
BRANCH  29  30
HETATM   30  C7  UNL     1      15.327   3.383  51.680  1.00  0.00     0.291 C 
BRANCH  30  31
HETATM   31  N2  UNL     1      14.761   3.217  53.009  1.00  0.00     0.081 N 
HETATM   32  C8  UNL     1      14.077   4.395  53.462  1.00  0.00     0.309 C 
HETATM   33  C9  UNL     1      13.892   2.088  53.067  1.00  0.00     0.309 C 
ENDBRANCH  30  31
ENDBRANCH  29  30
ENDBRANCH  27  29
ENDBRANCH   3  27
TORSDOF 7
ENDMDL
