MODEL 1
REMARK VINA RESULT:      -7.9      0.000      0.000
REMARK  6 active torsions:
REMARK  status: ('A' for Active; 'I' for Inactive)
REMARK    1  A    between atoms: C7_7  and  C8_8 
REMARK    2  A    between atoms: C8_8  and  N1_9 
REMARK       I    between atoms: N1_9  and  C9_10 
REMARK    3  A    between atoms: C9_10  and  C10_12 
REMARK    4  A    between atoms: C10_12  and  C12_15 
REMARK    5  A    between atoms: C16_19  and  O2_20 
REMARK    6  A    between atoms: O2_20  and  O3_21 
ROOT
HETATM    1  C10 UNL     1      26.449   0.588  54.790  1.00  0.00     0.216 C 
HETATM    2  C11 UNL     1      25.552  -0.516  55.209  1.00  0.00     0.078 C 
HETATM    3  N2  UNL     1      24.852  -1.383  55.526  1.00  0.00    -0.196 NA
ENDROOT
BRANCH   1   4
HETATM    4  C9  UNL     1      25.702   1.392  53.784  1.00  0.00     0.239 C 
HETATM    5  N1  UNL     1      24.670   0.920  52.933  1.00  0.00    -0.355 N 
HETATM    6  H10 UNL     1      24.440  -0.088  53.052  1.00  0.00     0.162 HD
HETATM    7  O1  UNL     1      26.282   2.515  53.969  1.00  0.00    -0.272 OA
BRANCH   5   8
HETATM    8  C8  UNL     1      24.205   2.013  52.101  1.00  0.00     0.161 C 
BRANCH   8   9
HETATM    9  C7  UNL     1      23.105   1.625  51.213  1.00  0.00    -0.035 A 
HETATM   10  C2  UNL     1      23.149   2.245  49.975  1.00  0.00    -0.054 A 
HETATM   11  C1  UNL     1      24.200   3.224  49.525  1.00  0.00     0.049 C 
HETATM   12  C3  UNL     1      22.199   2.019  48.994  1.00  0.00     0.007 A 
HETATM   13  C4  UNL     1      21.162   1.142  49.249  1.00  0.00     0.001 A 
HETATM   14  C5  UNL     1      21.093   0.504  50.488  1.00  0.00     0.001 A 
HETATM   15  C6  UNL     1      22.059   0.755  51.442  1.00  0.00     0.009 A 
ENDBRANCH   8   9
ENDBRANCH   5   8
ENDBRANCH   1   4
BRANCH   1  16
HETATM   16  C12 UNL     1      27.694   0.028  54.248  1.00  0.00    -0.018 A 
HETATM   17  C13 UNL     1      27.826  -0.891  53.307  1.00  0.00     0.007 A 
HETATM   18  C14 UNL     1      29.236  -1.173  53.053  1.00  0.00    -0.001 A 
HETATM   19  C15 UNL     1      29.932  -0.399  53.866  1.00  0.00     0.012 A 
HETATM   20  C16 UNL     1      29.044   0.445  54.711  1.00  0.00     0.214 A 
BRANCH  20  21
HETATM   21  O2  UNL     1      29.285   1.795  54.534  1.00  0.00    -0.229 OA
BRANCH  21  22
HETATM   22  O3  UNL     1      29.202   2.183  53.278  1.00  0.00    -0.250 OA
HETATM   23  H16 UNL     1      29.791   1.678  52.672  1.00  0.00     0.253 HD
ENDBRANCH  21  22
ENDBRANCH  20  21
ENDBRANCH   1  16
TORSDOF 6
ENDMDL
MODEL 2
REMARK VINA RESULT:      -7.8      2.417      3.493
REMARK  6 active torsions:
REMARK  status: ('A' for Active; 'I' for Inactive)
REMARK    1  A    between atoms: C7_7  and  C8_8 
REMARK    2  A    between atoms: C8_8  and  N1_9 
REMARK       I    between atoms: N1_9  and  C9_10 
REMARK    3  A    between atoms: C9_10  and  C10_12 
REMARK    4  A    between atoms: C10_12  and  C12_15 
REMARK    5  A    between atoms: C16_19  and  O2_20 
REMARK    6  A    between atoms: O2_20  and  O3_21 
ROOT
HETATM    1  C10 UNL     1      26.501   0.270  52.015  1.00  0.00     0.216 C 
HETATM    2  C11 UNL     1      26.721   1.571  51.338  1.00  0.00     0.078 C 
HETATM    3  N2  UNL     1      26.892   2.593  50.819  1.00  0.00    -0.196 NA
ENDROOT
BRANCH   1   4
HETATM    4  C9  UNL     1      25.137   0.319  52.610  1.00  0.00     0.239 C 
HETATM    5  N1  UNL     1      24.251   1.426  52.586  1.00  0.00    -0.355 N 
HETATM    6  H10 UNL     1      24.624   2.266  52.097  1.00  0.00     0.162 HD
HETATM    7  O1  UNL     1      25.093  -0.867  53.084  1.00  0.00    -0.272 OA
BRANCH   5   8
HETATM    8  C8  UNL     1      23.027   1.070  53.276  1.00  0.00     0.161 C 
BRANCH   8   9
HETATM    9  C7  UNL     1      21.895   0.875  52.366  1.00  0.00    -0.035 A 
HETATM   10  C2  UNL     1      20.750   0.416  52.998  1.00  0.00    -0.054 A 
HETATM   11  C1  UNL     1      20.619   0.132  54.470  1.00  0.00     0.049 C 
HETATM   12  C3  UNL     1      19.572   0.164  52.316  1.00  0.00     0.007 A 
HETATM   13  C4  UNL     1      19.526   0.375  50.951  1.00  0.00     0.001 A 
HETATM   14  C5  UNL     1      20.664   0.837  50.289  1.00  0.00     0.001 A 
HETATM   15  C6  UNL     1      21.820   1.077  51.004  1.00  0.00     0.009 A 
ENDBRANCH   8   9
ENDBRANCH   5   8
ENDBRANCH   1   4
BRANCH   1  16
HETATM   16  C12 UNL     1      27.546   0.061  53.026  1.00  0.00    -0.018 A 
HETATM   17  C13 UNL     1      27.817   0.815  54.077  1.00  0.00     0.007 A 
HETATM   18  C14 UNL     1      28.934   0.261  54.837  1.00  0.00    -0.001 A 
HETATM   19  C15 UNL     1      29.316  -0.836  54.209  1.00  0.00     0.012 A 
HETATM   20  C16 UNL     1      28.488  -1.089  52.998  1.00  0.00     0.214 A 
BRANCH  20  21
HETATM   21  O2  UNL     1      27.849  -2.314  53.049  1.00  0.00    -0.229 OA
BRANCH  21  22
HETATM   22  O3  UNL     1      28.650  -3.311  53.369  1.00  0.00    -0.250 OA
HETATM   23  H16 UNL     1      29.592  -3.041  53.462  1.00  0.00     0.253 HD
ENDBRANCH  21  22
ENDBRANCH  20  21
ENDBRANCH   1  16
TORSDOF 6
ENDMDL
MODEL 3
REMARK VINA RESULT:      -7.5      2.413      3.915
REMARK  6 active torsions:
REMARK  status: ('A' for Active; 'I' for Inactive)
REMARK    1  A    between atoms: C7_7  and  C8_8 
REMARK    2  A    between atoms: C8_8  and  N1_9 
REMARK       I    between atoms: N1_9  and  C9_10 
REMARK    3  A    between atoms: C9_10  and  C10_12 
REMARK    4  A    between atoms: C10_12  and  C12_15 
REMARK    5  A    between atoms: C16_19  and  O2_20 
REMARK    6  A    between atoms: O2_20  and  O3_21 
ROOT
HETATM    1  C10 UNL     1      24.657   1.082  53.476  1.00  0.00     0.216 C 
HETATM    2  C11 UNL     1      23.644   0.025  53.239  1.00  0.00     0.078 C 
HETATM    3  N2  UNL     1      22.858  -0.803  53.044  1.00  0.00    -0.196 NA
ENDROOT
BRANCH   1   4
HETATM    4  C9  UNL     1      24.432   2.132  52.445  1.00  0.00     0.239 C 
HETATM    5  N1  UNL     1      25.383   2.601  51.504  1.00  0.00    -0.355 N 
HETATM    6  H10 UNL     1      26.316   2.143  51.569  1.00  0.00     0.162 HD
HETATM    7  O1  UNL     1      23.211   2.403  52.712  1.00  0.00    -0.272 OA
BRANCH   5   8
HETATM    8  C8  UNL     1      24.772   3.626  50.680  1.00  0.00     0.161 C 
BRANCH   8   9
HETATM    9  C7  UNL     1      25.750   4.394  49.906  1.00  0.00    -0.035 A 
HETATM   10  C2  UNL     1      25.428   5.736  49.783  1.00  0.00    -0.054 A 
HETATM   11  C1  UNL     1      24.211   6.399  50.369  1.00  0.00     0.049 C 
HETATM   12  C3  UNL     1      26.220   6.632  49.085  1.00  0.00     0.007 A 
HETATM   13  C4  UNL     1      27.379   6.181  48.483  1.00  0.00     0.001 A 
HETATM   14  C5  UNL     1      27.728   4.834  48.591  1.00  0.00     0.001 A 
HETATM   15  C6  UNL     1      26.913   3.970  49.296  1.00  0.00     0.009 A 
ENDBRANCH   8   9
ENDBRANCH   5   8
ENDBRANCH   1   4
BRANCH   1  16
HETATM   16  C12 UNL     1      26.002   0.498  53.396  1.00  0.00    -0.018 A 
HETATM   17  C13 UNL     1      26.400  -0.519  52.651  1.00  0.00     0.007 A 
HETATM   18  C14 UNL     1      27.820  -0.789  52.861  1.00  0.00    -0.001 A 
HETATM   19  C15 UNL     1      28.249   0.091  53.747  1.00  0.00     0.012 A 
HETATM   20  C16 UNL     1      27.157   1.002  54.186  1.00  0.00     0.214 A 
BRANCH  20  21
HETATM   21  O2  UNL     1      27.450   2.329  53.932  1.00  0.00    -0.229 OA
BRANCH  21  22
HETATM   22  O3  UNL     1      28.072   2.518  52.786  1.00  0.00    -0.250 OA
HETATM   23  H16 UNL     1      27.930   1.790  52.138  1.00  0.00     0.253 HD
ENDBRANCH  21  22
ENDBRANCH  20  21
ENDBRANCH   1  16
TORSDOF 6
ENDMDL
MODEL 4
REMARK VINA RESULT:      -7.4      2.273      3.188
REMARK  6 active torsions:
REMARK  status: ('A' for Active; 'I' for Inactive)
REMARK    1  A    between atoms: C7_7  and  C8_8 
REMARK    2  A    between atoms: C8_8  and  N1_9 
REMARK       I    between atoms: N1_9  and  C9_10 
REMARK    3  A    between atoms: C9_10  and  C10_12 
REMARK    4  A    between atoms: C10_12  and  C12_15 
REMARK    5  A    between atoms: C16_19  and  O2_20 
REMARK    6  A    between atoms: O2_20  and  O3_21 
ROOT
HETATM    1  C10 UNL     1      26.478   0.488  54.287  1.00  0.00     0.216 C 
HETATM    2  C11 UNL     1      25.523  -0.491  54.860  1.00  0.00     0.078 C 
HETATM    3  N2  UNL     1      24.777  -1.260  55.299  1.00  0.00    -0.196 NA
ENDROOT
BRANCH   1   4
HETATM    4  C9  UNL     1      25.797   1.126  53.127  1.00  0.00     0.239 C 
HETATM    5  N1  UNL     1      26.112   2.387  52.560  1.00  0.00    -0.355 N 
HETATM    6  H10 UNL     1      26.899   2.884  53.025  1.00  0.00     0.162 HD
HETATM    7  O1  UNL     1      24.938   0.212  52.883  1.00  0.00    -0.272 OA
BRANCH   5   8
HETATM    8  C8  UNL     1      25.215   2.646  51.450  1.00  0.00     0.161 C 
BRANCH   8   9
HETATM    9  C7  UNL     1      25.742   3.640  50.511  1.00  0.00    -0.035 A 
HETATM   10  C2  UNL     1      25.022   4.823  50.496  1.00  0.00    -0.054 A 
HETATM   11  C1  UNL     1      23.814   5.121  51.342  1.00  0.00     0.049 C 
HETATM   12  C3  UNL     1      25.353   5.887  49.675  1.00  0.00     0.007 A 
HETATM   13  C4  UNL     1      26.442   5.775  48.832  1.00  0.00     0.001 A 
HETATM   14  C5  UNL     1      27.185   4.594  48.826  1.00  0.00     0.001 A 
HETATM   15  C6  UNL     1      26.824   3.554  49.660  1.00  0.00     0.009 A 
ENDBRANCH   8   9
ENDBRANCH   5   8
ENDBRANCH   1   4
BRANCH   1  16
HETATM   16  C12 UNL     1      27.714  -0.204  53.899  1.00  0.00    -0.018 A 
HETATM   17  C13 UNL     1      27.831  -1.370  53.286  1.00  0.00     0.007 A 
HETATM   18  C14 UNL     1      29.236  -1.707  53.079  1.00  0.00    -0.001 A 
HETATM   19  C15 UNL     1      29.945  -0.714  53.584  1.00  0.00     0.012 A 
HETATM   20  C16 UNL     1      29.071   0.346  54.158  1.00  0.00     0.214 A 
BRANCH  20  21
HETATM   21  O2  UNL     1      29.281   1.575  53.561  1.00  0.00    -0.229 OA
BRANCH  21  22
HETATM   22  O3  UNL     1      29.483   2.550  54.424  1.00  0.00    -0.250 OA
HETATM   23  H16 UNL     1      29.716   3.406  53.999  1.00  0.00     0.253 HD
ENDBRANCH  21  22
ENDBRANCH  20  21
ENDBRANCH   1  16
TORSDOF 6
ENDMDL
MODEL 5
REMARK VINA RESULT:      -7.2      4.253      7.434
REMARK  6 active torsions:
REMARK  status: ('A' for Active; 'I' for Inactive)
REMARK    1  A    between atoms: C7_7  and  C8_8 
REMARK    2  A    between atoms: C8_8  and  N1_9 
REMARK       I    between atoms: N1_9  and  C9_10 
REMARK    3  A    between atoms: C9_10  and  C10_12 
REMARK    4  A    between atoms: C10_12  and  C12_15 
REMARK    5  A    between atoms: C16_19  and  O2_20 
REMARK    6  A    between atoms: O2_20  and  O3_21 
ROOT
HETATM    1  C10 UNL     1      25.486   4.977  49.350  1.00  0.00     0.216 C 
HETATM    2  C11 UNL     1      24.914   5.905  50.355  1.00  0.00     0.078 C 
HETATM    3  N2  UNL     1      24.476   6.628  51.146  1.00  0.00    -0.196 NA
ENDROOT
BRANCH   1   4
HETATM    4  C9  UNL     1      25.678   3.667  50.032  1.00  0.00     0.239 C 
HETATM    5  N1  UNL     1      26.527   3.415  51.139  1.00  0.00    -0.355 N 
HETATM    6  H10 UNL     1      27.049   4.248  51.480  1.00  0.00     0.162 HD
HETATM    7  O1  UNL     1      24.883   2.964  49.319  1.00  0.00    -0.272 OA
BRANCH   5   8
HETATM    8  C8  UNL     1      26.430   2.014  51.502  1.00  0.00     0.161 C 
BRANCH   8   9
HETATM    9  C7  UNL     1      27.389   1.627  52.540  1.00  0.00    -0.035 A 
HETATM   10  C2  UNL     1      27.384   0.269  52.818  1.00  0.00    -0.054 A 
HETATM   11  C1  UNL     1      26.509  -0.756  52.150  1.00  0.00     0.049 C 
HETATM   12  C3  UNL     1      28.212  -0.300  53.770  1.00  0.00     0.007 A 
HETATM   13  C4  UNL     1      29.082   0.509  54.477  1.00  0.00     0.001 A 
HETATM   14  C5  UNL     1      29.108   1.879  54.218  1.00  0.00     0.001 A 
HETATM   15  C6  UNL     1      28.267   2.410  53.260  1.00  0.00     0.009 A 
ENDBRANCH   8   9
ENDBRANCH   5   8
ENDBRANCH   1   4
BRANCH   1  16
HETATM   16  C12 UNL     1      26.746   5.530  48.835  1.00  0.00    -0.018 A 
HETATM   17  C13 UNL     1      27.868   4.881  48.574  1.00  0.00     0.007 A 
HETATM   18  C14 UNL     1      28.890   5.796  48.074  1.00  0.00    -0.001 A 
HETATM   19  C15 UNL     1      28.346   6.999  48.046  1.00  0.00     0.012 A 
HETATM   20  C16 UNL     1      26.935   6.971  48.521  1.00  0.00     0.214 A 
BRANCH  20  21
HETATM   21  O2  UNL     1      26.054   7.438  47.564  1.00  0.00    -0.229 OA
BRANCH  21  22
HETATM   22  O3  UNL     1      26.639   8.111  46.595  1.00  0.00    -0.250 OA
HETATM   23  H16 UNL     1      27.499   8.512  46.860  1.00  0.00     0.253 HD
ENDBRANCH  21  22
ENDBRANCH  20  21
ENDBRANCH   1  16
TORSDOF 6
ENDMDL
MODEL 6
REMARK VINA RESULT:      -7.1      3.323      5.187
REMARK  6 active torsions:
REMARK  status: ('A' for Active; 'I' for Inactive)
REMARK    1  A    between atoms: C7_7  and  C8_8 
REMARK    2  A    between atoms: C8_8  and  N1_9 
REMARK       I    between atoms: N1_9  and  C9_10 
REMARK    3  A    between atoms: C9_10  and  C10_12 
REMARK    4  A    between atoms: C10_12  and  C12_15 
REMARK    5  A    between atoms: C16_19  and  O2_20 
REMARK    6  A    between atoms: O2_20  and  O3_21 
ROOT
HETATM    1  C10 UNL     1      26.877   1.478  52.168  1.00  0.00     0.216 C 
HETATM    2  C11 UNL     1      27.742   2.106  53.195  1.00  0.00     0.078 C 
HETATM    3  N2  UNL     1      28.409   2.602  54.002  1.00  0.00    -0.196 NA
ENDROOT
BRANCH   1   4
HETATM    4  C9  UNL     1      26.324   2.582  51.336  1.00  0.00     0.239 C 
HETATM    5  N1  UNL     1      26.534   2.771  49.946  1.00  0.00    -0.355 N 
HETATM    6  H10 UNL     1      27.136   2.050  49.499  1.00  0.00     0.162 HD
HETATM    7  O1  UNL     1      25.677   3.202  52.248  1.00  0.00    -0.272 OA
BRANCH   5   8
HETATM    8  C8  UNL     1      25.826   3.962  49.517  1.00  0.00     0.161 C 
BRANCH   8   9
HETATM    9  C7  UNL     1      26.712   4.971  48.930  1.00  0.00    -0.035 A 
HETATM   10  C2  UNL     1      26.077   6.171  48.655  1.00  0.00    -0.054 A 
HETATM   11  C1  UNL     1      24.626   6.472  48.917  1.00  0.00     0.049 C 
HETATM   12  C3  UNL     1      26.736   7.252  48.093  1.00  0.00     0.007 A 
HETATM   13  C4  UNL     1      28.079   7.139  47.791  1.00  0.00     0.001 A 
HETATM   14  C5  UNL     1      28.743   5.942  48.056  1.00  0.00     0.001 A 
HETATM   15  C6  UNL     1      28.053   4.886  48.617  1.00  0.00     0.009 A 
ENDBRANCH   8   9
ENDBRANCH   5   8
ENDBRANCH   1   4
BRANCH   1  16
HETATM   16  C12 UNL     1      25.825   0.693  52.827  1.00  0.00    -0.018 A 
HETATM   17  C13 UNL     1      24.542   0.635  52.515  1.00  0.00     0.007 A 
HETATM   18  C14 UNL     1      23.830  -0.266  53.416  1.00  0.00    -0.001 A 
HETATM   19  C15 UNL     1      24.722  -0.738  54.267  1.00  0.00     0.012 A 
HETATM   20  C16 UNL     1      26.080  -0.191  53.995  1.00  0.00     0.214 A 
BRANCH  20  21
HETATM   21  O2  UNL     1      27.001  -1.188  53.732  1.00  0.00    -0.229 OA
BRANCH  21  22
HETATM   22  O3  UNL     1      28.162  -1.001  54.326  1.00  0.00    -0.250 OA
HETATM   23  H16 UNL     1      28.933  -1.233  53.761  1.00  0.00     0.253 HD
ENDBRANCH  21  22
ENDBRANCH  20  21
ENDBRANCH   1  16
TORSDOF 6
ENDMDL
MODEL 7
REMARK VINA RESULT:      -7.0      2.984      4.577
REMARK  6 active torsions:
REMARK  status: ('A' for Active; 'I' for Inactive)
REMARK    1  A    between atoms: C7_7  and  C8_8 
REMARK    2  A    between atoms: C8_8  and  N1_9 
REMARK       I    between atoms: N1_9  and  C9_10 
REMARK    3  A    between atoms: C9_10  and  C10_12 
REMARK    4  A    between atoms: C10_12  and  C12_15 
REMARK    5  A    between atoms: C16_19  and  O2_20 
REMARK    6  A    between atoms: O2_20  and  O3_21 
ROOT
HETATM    1  C10 UNL     1      25.376   2.167  52.526  1.00  0.00     0.216 C 
HETATM    2  C11 UNL     1      23.941   1.803  52.621  1.00  0.00     0.078 C 
HETATM    3  N2  UNL     1      22.822   1.510  52.688  1.00  0.00    -0.196 NA
ENDROOT
BRANCH   1   4
HETATM    4  C9  UNL     1      25.593   2.709  51.157  1.00  0.00     0.239 C 
HETATM    5  N1  UNL     1      26.728   3.432  50.712  1.00  0.00    -0.355 N 
HETATM    6  H10 UNL     1      27.459   3.577  51.439  1.00  0.00     0.162 HD
HETATM    7  O1  UNL     1      24.500   2.317  50.621  1.00  0.00    -0.272 OA
BRANCH   5   8
HETATM    8  C8  UNL     1      26.551   3.783  49.316  1.00  0.00     0.161 C 
BRANCH   8   9
HETATM    9  C7  UNL     1      26.261   5.205  49.118  1.00  0.00    -0.035 A 
HETATM   10  C2  UNL     1      27.328   5.920  48.599  1.00  0.00    -0.054 A 
HETATM   11  C1  UNL     1      28.675   5.348  48.249  1.00  0.00     0.049 C 
HETATM   12  C3  UNL     1      27.261   7.279  48.343  1.00  0.00     0.007 A 
HETATM   13  C4  UNL     1      26.089   7.959  48.611  1.00  0.00     0.001 A 
HETATM   14  C5  UNL     1      24.998   7.264  49.134  1.00  0.00     0.001 A 
HETATM   15  C6  UNL     1      25.102   5.908  49.376  1.00  0.00     0.009 A 
ENDBRANCH   8   9
ENDBRANCH   5   8
ENDBRANCH   1   4
BRANCH   1  16
HETATM   16  C12 UNL     1      26.201   0.982  52.797  1.00  0.00    -0.018 A 
HETATM   17  C13 UNL     1      25.994  -0.258  52.390  1.00  0.00     0.007 A 
HETATM   18  C14 UNL     1      27.049  -1.144  52.874  1.00  0.00    -0.001 A 
HETATM   19  C15 UNL     1      27.883  -0.397  53.575  1.00  0.00     0.012 A 
HETATM   20  C16 UNL     1      27.446   1.026  53.608  1.00  0.00     0.214 A 
BRANCH  20  21
HETATM   21  O2  UNL     1      28.403   1.876  53.088  1.00  0.00    -0.229 OA
BRANCH  21  22
HETATM   22  O3  UNL     1      28.705   2.879  53.888  1.00  0.00    -0.250 OA
HETATM   23  H16 UNL     1      28.178   2.888  54.719  1.00  0.00     0.253 HD
ENDBRANCH  21  22
ENDBRANCH  20  21
ENDBRANCH   1  16
TORSDOF 6
ENDMDL
MODEL 8
REMARK VINA RESULT:      -6.9      1.696      2.184
REMARK  6 active torsions:
REMARK  status: ('A' for Active; 'I' for Inactive)
REMARK    1  A    between atoms: C7_7  and  C8_8 
REMARK    2  A    between atoms: C8_8  and  N1_9 
REMARK       I    between atoms: N1_9  and  C9_10 
REMARK    3  A    between atoms: C9_10  and  C10_12 
REMARK    4  A    between atoms: C10_12  and  C12_15 
REMARK    5  A    between atoms: C16_19  and  O2_20 
REMARK    6  A    between atoms: O2_20  and  O3_21 
ROOT
HETATM    1  C10 UNL     1      26.409   0.799  54.349  1.00  0.00     0.216 C 
HETATM    2  C11 UNL     1      25.634  -0.337  54.904  1.00  0.00     0.078 C 
HETATM    3  N2  UNL     1      25.030  -1.230  55.328  1.00  0.00    -0.196 NA
ENDROOT
BRANCH   1   4
HETATM    4  C9  UNL     1      25.699   1.246  53.119  1.00  0.00     0.239 C 
HETATM    5  N1  UNL     1      25.762   2.537  52.537  1.00  0.00    -0.355 N 
HETATM    6  H10 UNL     1      26.373   3.210  53.045  1.00  0.00     0.162 HD
HETATM    7  O1  UNL     1      25.097   0.154  52.839  1.00  0.00    -0.272 OA
BRANCH   5   8
HETATM    8  C8  UNL     1      24.927   2.566  51.352  1.00  0.00     0.161 C 
BRANCH   8   9
HETATM    9  C7  UNL     1      23.693   3.332  51.543  1.00  0.00    -0.035 A 
HETATM   10  C2  UNL     1      22.543   2.606  51.277  1.00  0.00    -0.054 A 
HETATM   11  C1  UNL     1      22.502   1.167  50.838  1.00  0.00     0.049 C 
HETATM   12  C3  UNL     1      21.275   3.148  51.392  1.00  0.00     0.007 A 
HETATM   13  C4  UNL     1      21.138   4.465  51.786  1.00  0.00     0.001 A 
HETATM   14  C5  UNL     1      22.278   5.220  52.061  1.00  0.00     0.001 A 
HETATM   15  C6  UNL     1      23.527   4.645  51.935  1.00  0.00     0.009 A 
ENDBRANCH   8   9
ENDBRANCH   5   8
ENDBRANCH   1   4
BRANCH   1  16
HETATM   16  C12 UNL     1      27.785   0.365  54.075  1.00  0.00    -0.018 A 
HETATM   17  C13 UNL     1      28.181  -0.633  53.303  1.00  0.00     0.007 A 
HETATM   18  C14 UNL     1      29.637  -0.735  53.296  1.00  0.00    -0.001 A 
HETATM   19  C15 UNL     1      30.092   0.225  54.080  1.00  0.00     0.012 A 
HETATM   20  C16 UNL     1      28.981   1.028  54.661  1.00  0.00     0.214 A 
BRANCH  20  21
HETATM   21  O2  UNL     1      29.076   2.366  54.329  1.00  0.00    -0.229 OA
BRANCH  21  22
HETATM   22  O3  UNL     1      29.036   2.590  53.031  1.00  0.00    -0.250 OA
HETATM   23  H16 UNL     1      28.305   2.112  52.574  1.00  0.00     0.253 HD
ENDBRANCH  21  22
ENDBRANCH  20  21
ENDBRANCH   1  16
TORSDOF 6
ENDMDL
MODEL 9
REMARK VINA RESULT:      -6.9      2.945      6.397
REMARK  6 active torsions:
REMARK  status: ('A' for Active; 'I' for Inactive)
REMARK    1  A    between atoms: C7_7  and  C8_8 
REMARK    2  A    between atoms: C8_8  and  N1_9 
REMARK       I    between atoms: N1_9  and  C9_10 
REMARK    3  A    between atoms: C9_10  and  C10_12 
REMARK    4  A    between atoms: C10_12  and  C12_15 
REMARK    5  A    between atoms: C16_19  and  O2_20 
REMARK    6  A    between atoms: O2_20  and  O3_21 
ROOT
HETATM    1  C10 UNL     1      23.444   4.442  50.445  1.00  0.00     0.216 C 
HETATM    2  C11 UNL     1      22.403   5.407  50.873  1.00  0.00     0.078 C 
HETATM    3  N2  UNL     1      21.596   6.165  51.214  1.00  0.00    -0.196 NA
ENDROOT
BRANCH   1   4
HETATM    4  C9  UNL     1      23.740   3.578  51.622  1.00  0.00     0.239 C 
HETATM    5  N1  UNL     1      24.938   3.576  52.380  1.00  0.00    -0.355 N 
HETATM    6  H10 UNL     1      25.656   4.256  52.055  1.00  0.00     0.162 HD
HETATM    7  O1  UNL     1      22.637   2.933  51.666  1.00  0.00    -0.272 OA
BRANCH   5   8
HETATM    8  C8  UNL     1      24.828   2.589  53.437  1.00  0.00     0.161 C 
BRANCH   8   9
HETATM    9  C7  UNL     1      25.788   1.492  53.295  1.00  0.00    -0.035 A 
HETATM   10  C2  UNL     1      25.191   0.248  53.170  1.00  0.00    -0.054 A 
HETATM   11  C1  UNL     1      23.710  -0.014  53.168  1.00  0.00     0.049 C 
HETATM   12  C3  UNL     1      25.922  -0.920  53.030  1.00  0.00     0.007 A 
HETATM   13  C4  UNL     1      27.302  -0.853  53.013  1.00  0.00     0.001 A 
HETATM   14  C5  UNL     1      27.930   0.387  53.137  1.00  0.00     0.001 A 
HETATM   15  C6  UNL     1      27.167   1.530  53.275  1.00  0.00     0.009 A 
ENDBRANCH   8   9
ENDBRANCH   5   8
ENDBRANCH   1   4
BRANCH   1  16
HETATM   16  C12 UNL     1      24.628   5.175  49.977  1.00  0.00    -0.018 A 
HETATM   17  C13 UNL     1      24.969   6.422  50.251  1.00  0.00     0.007 A 
HETATM   18  C14 UNL     1      26.222   6.774  49.590  1.00  0.00    -0.001 A 
HETATM   19  C15 UNL     1      26.613   5.705  48.919  1.00  0.00     0.012 A 
HETATM   20  C16 UNL     1      25.656   4.576  49.085  1.00  0.00     0.214 A 
BRANCH  20  21
HETATM   21  O2  UNL     1      26.260   3.457  49.627  1.00  0.00    -0.229 OA
BRANCH  21  22
HETATM   22  O3  UNL     1      27.172   3.740  50.535  1.00  0.00    -0.250 OA
HETATM   23  H16 UNL     1      28.093   3.590  50.224  1.00  0.00     0.253 HD
ENDBRANCH  21  22
ENDBRANCH  20  21
ENDBRANCH   1  16
TORSDOF 6
ENDMDL
