MODEL 1
REMARK VINA RESULT:      -9.9      0.000      0.000
REMARK  5 active torsions:
REMARK  status: ('A' for Active; 'I' for Inactive)
REMARK    1  A    between atoms: C2_3  and  C21_24 
REMARK    2  A    between atoms: C3_4  and  C4_5 
REMARK    3  A    between atoms: C6_7  and  C7_8 
REMARK    4  A    between atoms: C13_14  and  O1_15 
REMARK    5  A    between atoms: C14_16  and  C15_17 
REMARK       I    between atoms: C21_24  and  N2_25 
ROOT
HETATM    1  N1  UNL     1      28.600   2.475  54.202  1.00  0.00    -0.191 NA
HETATM    2  C1  UNL     1      28.447   1.430  53.732  1.00  0.00     0.105 C 
HETATM    3  C2  UNL     1      28.250   0.124  53.172  1.00  0.00     0.112 C 
HETATM    4  C3  UNL     1      27.279  -0.160  52.322  1.00  0.00     0.039 C 
ENDROOT
BRANCH   3   5
HETATM    5  C21 UNL     1      29.178  -0.924  53.578  1.00  0.00     0.260 C 
HETATM    6  N2  UNL     1      28.607  -2.214  53.492  1.00  0.00    -0.365 N 
HETATM    7  H14 UNL     1      28.107  -2.847  54.134  1.00  0.00     0.159 HD
HETATM    8  H15 UNL     1      28.401  -3.062  52.909  1.00  0.00     0.159 HD
HETATM    9  O2  UNL     1      30.349  -0.690  53.959  1.00  0.00    -0.267 OA
ENDBRANCH   3   5
BRANCH   4  10
HETATM   10  C4  UNL     1      26.313   0.809  51.866  1.00  0.00    -0.033 A 
HETATM   11  C5  UNL     1      26.572   2.004  51.223  1.00  0.00     0.026 A 
HETATM   12  C6  UNL     1      25.547   2.870  50.837  1.00  0.00     0.009 A 
HETATM   13  C13 UNL     1      24.241   2.532  51.100  1.00  0.00     0.087 A 
HETATM   14  C14 UNL     1      23.897   1.350  51.741  1.00  0.00     0.009 A 
HETATM   15  C20 UNL     1      24.962   0.549  52.091  1.00  0.00     0.026 A 
BRANCH  12  16
HETATM   16  C7  UNL     1      25.877   4.116  50.156  1.00  0.00    -0.023 A 
HETATM   17  C8  UNL     1      26.957   3.966  49.314  1.00  0.00     0.012 A 
HETATM   18  C9  UNL     1      27.446   5.025  48.567  1.00  0.00     0.001 A 
HETATM   19  C10 UNL     1      26.834   6.273  48.665  1.00  0.00     0.000 A 
HETATM   20  C11 UNL     1      25.740   6.417  49.520  1.00  0.00     0.001 A 
HETATM   21  C12 UNL     1      25.269   5.348  50.257  1.00  0.00     0.012 A 
ENDBRANCH  12  16
BRANCH  13  22
HETATM   22  O1  UNL     1      23.184   3.368  50.732  1.00  0.00    -0.359 OA
HETATM   23  H8  UNL     1      22.256   2.965  50.541  1.00  0.00     0.217 HD
ENDBRANCH  13  22
BRANCH  14  24
HETATM   24  C15 UNL     1      22.531   0.935  52.053  1.00  0.00    -0.022 A 
HETATM   25  C16 UNL     1      21.541   0.740  51.116  1.00  0.00     0.012 A 
HETATM   26  C17 UNL     1      20.257   0.351  51.371  1.00  0.00     0.002 A 
HETATM   27  C18 UNL     1      19.642   0.067  52.572  1.00  0.00     0.016 A 
HETATM   28  P1  UNL     1      20.729   0.252  53.938  1.00  0.00    -0.034 P 
HETATM   29  C19 UNL     1      22.329   0.753  53.422  1.00  0.00     0.028 A 
ENDBRANCH  14  24
ENDBRANCH   4  10
TORSDOF 5
ENDMDL
MODEL 2
REMARK VINA RESULT:      -9.6      1.819      5.496
REMARK  5 active torsions:
REMARK  status: ('A' for Active; 'I' for Inactive)
REMARK    1  A    between atoms: C2_3  and  C21_24 
REMARK    2  A    between atoms: C3_4  and  C4_5 
REMARK    3  A    between atoms: C6_7  and  C7_8 
REMARK    4  A    between atoms: C13_14  and  O1_15 
REMARK    5  A    between atoms: C14_16  and  C15_17 
REMARK       I    between atoms: C21_24  and  N2_25 
ROOT
HETATM    1  N1  UNL     1      28.369   1.900  54.488  1.00  0.00    -0.191 NA
HETATM    2  C1  UNL     1      28.321   0.884  53.938  1.00  0.00     0.105 C 
HETATM    3  C2  UNL     1      28.258  -0.389  53.280  1.00  0.00     0.112 C 
HETATM    4  C3  UNL     1      27.257  -0.750  52.497  1.00  0.00     0.039 C 
ENDROOT
BRANCH   3   5
HETATM    5  C21 UNL     1      29.364  -1.312  53.501  1.00  0.00     0.260 C 
HETATM    6  N2  UNL     1      28.998  -2.658  53.278  1.00  0.00    -0.365 N 
HETATM    7  H14 UNL     1      28.648  -3.436  53.858  1.00  0.00     0.159 HD
HETATM    8  H15 UNL     1      28.886  -3.453  52.602  1.00  0.00     0.159 HD
HETATM    9  O2  UNL     1      30.508  -0.935  53.851  1.00  0.00    -0.267 OA
ENDBRANCH   3   5
BRANCH   4  10
HETATM   10  C4  UNL     1      26.119   0.093  52.221  1.00  0.00    -0.033 A 
HETATM   11  C5  UNL     1      24.803  -0.148  52.563  1.00  0.00     0.026 A 
HETATM   12  C6  UNL     1      23.780   0.743  52.229  1.00  0.00     0.009 A 
HETATM   13  C13 UNL     1      24.084   1.894  51.542  1.00  0.00     0.087 A 
HETATM   14  C14 UNL     1      25.381   2.210  51.162  1.00  0.00     0.009 A 
HETATM   15  C20 UNL     1      26.333   1.283  51.526  1.00  0.00     0.026 A 
BRANCH  12  16
HETATM   16  C7  UNL     1      22.409   0.442  52.619  1.00  0.00    -0.023 A 
HETATM   17  C8  UNL     1      22.303   0.211  53.973  1.00  0.00     0.012 A 
HETATM   18  C9  UNL     1      21.088  -0.097  54.563  1.00  0.00     0.001 A 
HETATM   19  C10 UNL     1      19.943  -0.176  53.773  1.00  0.00     0.000 A 
HETATM   20  C11 UNL     1      20.058   0.060  52.402  1.00  0.00     0.001 A 
HETATM   21  C12 UNL     1      21.279   0.366  51.834  1.00  0.00     0.012 A 
ENDBRANCH  12  16
BRANCH  13  22
HETATM   22  O1  UNL     1      23.094   2.813  51.187  1.00  0.00    -0.359 OA
HETATM   23  H8  UNL     1      22.819   3.552  51.850  1.00  0.00     0.217 HD
ENDBRANCH  13  22
BRANCH  14  24
HETATM   24  C15 UNL     1      25.768   3.412  50.428  1.00  0.00    -0.022 A 
HETATM   25  C16 UNL     1      26.812   3.480  49.534  1.00  0.00     0.012 A 
HETATM   26  C17 UNL     1      27.200   4.585  48.830  1.00  0.00     0.002 A 
HETATM   27  C18 UNL     1      26.675   5.860  48.829  1.00  0.00     0.016 A 
HETATM   28  P1  UNL     1      25.307   6.019  49.918  1.00  0.00    -0.034 P 
HETATM   29  C19 UNL     1      24.955   4.506  50.732  1.00  0.00     0.028 A 
ENDBRANCH  14  24
ENDBRANCH   4  10
TORSDOF 5
ENDMDL
MODEL 3
REMARK VINA RESULT:      -9.3      3.289      6.590
REMARK  5 active torsions:
REMARK  status: ('A' for Active; 'I' for Inactive)
REMARK    1  A    between atoms: C2_3  and  C21_24 
REMARK    2  A    between atoms: C3_4  and  C4_5 
REMARK    3  A    between atoms: C6_7  and  C7_8 
REMARK    4  A    between atoms: C13_14  and  O1_15 
REMARK    5  A    between atoms: C14_16  and  C15_17 
REMARK       I    between atoms: C21_24  and  N2_25 
ROOT
HETATM    1  N1  UNL     1      21.543   0.600  49.856  1.00  0.00    -0.191 NA
HETATM    2  C1  UNL     1      21.443   0.519  51.006  1.00  0.00     0.105 C 
HETATM    3  C2  UNL     1      21.317   0.394  52.429  1.00  0.00     0.112 C 
HETATM    4  C3  UNL     1      22.289   0.698  53.270  1.00  0.00     0.039 C 
ENDROOT
BRANCH   3   5
HETATM    5  C21 UNL     1      20.046  -0.098  52.947  1.00  0.00     0.260 C 
HETATM    6  N2  UNL     1      20.167  -0.642  54.245  1.00  0.00    -0.365 N 
HETATM    7  H14 UNL     1      20.329  -1.580  54.642  1.00  0.00     0.159 HD
HETATM    8  H15 UNL     1      20.167  -0.486  55.283  1.00  0.00     0.159 HD
HETATM    9  O2  UNL     1      18.975  -0.036  52.299  1.00  0.00    -0.267 OA
ENDBRANCH   3   5
BRANCH   4  10
HETATM   10  C4  UNL     1      23.579   1.188  52.852  1.00  0.00    -0.033 A 
HETATM   11  C5  UNL     1      24.810   0.622  53.119  1.00  0.00     0.026 A 
HETATM   12  C6  UNL     1      26.000   1.198  52.667  1.00  0.00     0.009 A 
HETATM   13  C13 UNL     1      25.952   2.360  51.935  1.00  0.00     0.087 A 
HETATM   14  C14 UNL     1      24.755   2.991  51.623  1.00  0.00     0.009 A 
HETATM   15  C20 UNL     1      23.627   2.364  52.105  1.00  0.00     0.026 A 
BRANCH  12  16
HETATM   16  C7  UNL     1      27.271   0.556  52.972  1.00  0.00    -0.023 A 
HETATM   17  C8  UNL     1      27.222  -0.804  52.753  1.00  0.00     0.012 A 
HETATM   18  C9  UNL     1      28.321  -1.616  52.981  1.00  0.00     0.001 A 
HETATM   19  C10 UNL     1      29.507  -1.049  53.444  1.00  0.00     0.000 A 
HETATM   20  C11 UNL     1      29.550   0.328  53.665  1.00  0.00     0.001 A 
HETATM   21  C12 UNL     1      28.442   1.120  53.430  1.00  0.00     0.012 A 
ENDBRANCH  12  16
BRANCH  13  22
HETATM   22  O1  UNL     1      27.116   2.972  51.463  1.00  0.00    -0.359 OA
HETATM   23  H8  UNL     1      27.386   2.865  50.474  1.00  0.00     0.217 HD
ENDBRANCH  13  22
BRANCH  14  24
HETATM   24  C15 UNL     1      24.638   4.228  50.854  1.00  0.00    -0.022 A 
HETATM   25  C16 UNL     1      25.114   4.399  49.574  1.00  0.00     0.012 A 
HETATM   26  C17 UNL     1      25.021   5.539  48.826  1.00  0.00     0.002 A 
HETATM   27  C18 UNL     1      24.453   6.756  49.138  1.00  0.00     0.016 A 
HETATM   28  P1  UNL     1      23.768   6.777  50.754  1.00  0.00    -0.034 P 
HETATM   29  C19 UNL     1      23.980   5.235  51.562  1.00  0.00     0.028 A 
ENDBRANCH  14  24
ENDBRANCH   4  10
TORSDOF 5
ENDMDL
MODEL 4
REMARK VINA RESULT:      -9.3      3.384      6.708
REMARK  5 active torsions:
REMARK  status: ('A' for Active; 'I' for Inactive)
REMARK    1  A    between atoms: C2_3  and  C21_24 
REMARK    2  A    between atoms: C3_4  and  C4_5 
REMARK    3  A    between atoms: C6_7  and  C7_8 
REMARK    4  A    between atoms: C13_14  and  O1_15 
REMARK    5  A    between atoms: C14_16  and  C15_17 
REMARK       I    between atoms: C21_24  and  N2_25 
ROOT
HETATM    1  N1  UNL     1      24.274   6.699  51.228  1.00  0.00    -0.191 NA
HETATM    2  C1  UNL     1      24.989   6.279  50.421  1.00  0.00     0.105 C 
HETATM    3  C2  UNL     1      25.895   5.770  49.433  1.00  0.00     0.112 C 
HETATM    4  C3  UNL     1      26.160   4.483  49.290  1.00  0.00     0.039 C 
ENDROOT
BRANCH   3   5
HETATM    5  C21 UNL     1      26.544   6.738  48.558  1.00  0.00     0.260 C 
HETATM    6  N2  UNL     1      27.899   6.949  48.897  1.00  0.00    -0.365 N 
HETATM    7  H14 UNL     1      28.419   7.612  49.491  1.00  0.00     0.159 HD
HETATM    8  H15 UNL     1      28.902   6.658  48.792  1.00  0.00     0.159 HD
HETATM    9  O2  UNL     1      25.950   7.311  47.614  1.00  0.00    -0.267 OA
ENDBRANCH   3   5
BRANCH   4  10
HETATM   10  C4  UNL     1      25.570   3.453  50.110  1.00  0.00    -0.033 A 
HETATM   11  C5  UNL     1      24.228   3.147  50.223  1.00  0.00     0.026 A 
HETATM   12  C6  UNL     1      23.774   2.128  51.064  1.00  0.00     0.009 A 
HETATM   13  C13 UNL     1      24.680   1.406  51.801  1.00  0.00     0.087 A 
HETATM   14  C14 UNL     1      26.046   1.651  51.744  1.00  0.00     0.009 A 
HETATM   15  C20 UNL     1      26.416   2.670  50.895  1.00  0.00     0.026 A 
BRANCH  12  16
HETATM   16  C7  UNL     1      22.347   1.843  51.140  1.00  0.00    -0.023 A 
HETATM   17  C8  UNL     1      21.707   2.675  52.033  1.00  0.00     0.012 A 
HETATM   18  C9  UNL     1      20.345   2.578  52.266  1.00  0.00     0.001 A 
HETATM   19  C10 UNL     1      19.600   1.618  51.584  1.00  0.00     0.000 A 
HETATM   20  C11 UNL     1      20.254   0.779  50.681  1.00  0.00     0.001 A 
HETATM   21  C12 UNL     1      21.614   0.892  50.463  1.00  0.00     0.012 A 
ENDBRANCH  12  16
BRANCH  13  22
HETATM   22  O1  UNL     1      24.271   0.378  52.655  1.00  0.00    -0.359 OA
HETATM   23  H8  UNL     1      23.386   0.467  53.174  1.00  0.00     0.217 HD
ENDBRANCH  13  22
BRANCH  14  24
HETATM   24  C15 UNL     1      27.058   0.923  52.505  1.00  0.00    -0.022 A 
HETATM   25  C16 UNL     1      27.235  -0.442  52.463  1.00  0.00     0.012 A 
HETATM   26  C17 UNL     1      28.171  -1.154  53.158  1.00  0.00     0.002 A 
HETATM   27  C18 UNL     1      29.137  -0.718  54.041  1.00  0.00     0.016 A 
HETATM   28  P1  UNL     1      29.103   1.024  54.258  1.00  0.00    -0.034 P 
HETATM   29  C19 UNL     1      27.843   1.768  53.291  1.00  0.00     0.028 A 
ENDBRANCH  14  24
ENDBRANCH   4  10
TORSDOF 5
ENDMDL
MODEL 5
REMARK VINA RESULT:      -9.2      3.618      7.377
REMARK  5 active torsions:
REMARK  status: ('A' for Active; 'I' for Inactive)
REMARK    1  A    between atoms: C2_3  and  C21_24 
REMARK    2  A    between atoms: C3_4  and  C4_5 
REMARK    3  A    between atoms: C6_7  and  C7_8 
REMARK    4  A    between atoms: C13_14  and  O1_15 
REMARK    5  A    between atoms: C14_16  and  C15_17 
REMARK       I    between atoms: C21_24  and  N2_25 
ROOT
HETATM    1  N1  UNL     1      23.353   3.667  48.924  1.00  0.00    -0.191 NA
HETATM    2  C1  UNL     1      23.443   4.274  49.905  1.00  0.00     0.105 C 
HETATM    3  C2  UNL     1      23.534   5.038  51.115  1.00  0.00     0.112 C 
HETATM    4  C3  UNL     1      23.491   4.494  52.318  1.00  0.00     0.039 C 
ENDROOT
BRANCH   3   5
HETATM    5  C21 UNL     1      23.676   6.483  50.985  1.00  0.00     0.260 C 
HETATM    6  N2  UNL     1      24.543   7.030  51.958  1.00  0.00    -0.365 N 
HETATM    7  H14 UNL     1      24.435   7.444  52.896  1.00  0.00     0.159 HD
HETATM    8  H15 UNL     1      25.521   7.278  52.244  1.00  0.00     0.159 HD
HETATM    9  O2  UNL     1      23.088   7.150  50.101  1.00  0.00    -0.267 OA
ENDBRANCH   3   5
BRANCH   4  10
HETATM   10  C4  UNL     1      23.349   3.077  52.546  1.00  0.00    -0.033 A 
HETATM   11  C5  UNL     1      22.172   2.356  52.597  1.00  0.00     0.026 A 
HETATM   12  C6  UNL     1      22.160   0.980  52.838  1.00  0.00     0.009 A 
HETATM   13  C13 UNL     1      23.349   0.318  53.030  1.00  0.00     0.087 A 
HETATM   14  C14 UNL     1      24.575   0.969  52.995  1.00  0.00     0.009 A 
HETATM   15  C20 UNL     1      24.504   2.324  52.754  1.00  0.00     0.026 A 
BRANCH  12  16
HETATM   16  C7  UNL     1      20.890   0.268  52.874  1.00  0.00    -0.023 A 
HETATM   17  C8  UNL     1      20.113   0.553  51.772  1.00  0.00     0.012 A 
HETATM   18  C9  UNL     1      18.860  -0.013  51.602  1.00  0.00     0.001 A 
HETATM   19  C10 UNL     1      18.370  -0.893  52.565  1.00  0.00     0.000 A 
HETATM   20  C11 UNL     1      19.162  -1.177  53.678  1.00  0.00     0.001 A 
HETATM   21  C12 UNL     1      20.409  -0.601  53.829  1.00  0.00     0.012 A 
ENDBRANCH  12  16
BRANCH  13  22
HETATM   22  O1  UNL     1      23.385  -1.057  53.275  1.00  0.00    -0.359 OA
HETATM   23  H8  UNL     1      22.931  -1.440  54.116  1.00  0.00     0.217 HD
ENDBRANCH  13  22
BRANCH  14  24
HETATM   24  C15 UNL     1      25.870   0.324  53.196  1.00  0.00    -0.022 A 
HETATM   25  C16 UNL     1      26.336  -0.739  52.457  1.00  0.00     0.012 A 
HETATM   26  C17 UNL     1      27.540  -1.365  52.616  1.00  0.00     0.002 A 
HETATM   27  C18 UNL     1      28.556  -1.109  53.513  1.00  0.00     0.016 A 
HETATM   28  P1  UNL     1      28.181   0.232  54.582  1.00  0.00    -0.034 P 
HETATM   29  C19 UNL     1      26.601   0.909  54.232  1.00  0.00     0.028 A 
ENDBRANCH  14  24
ENDBRANCH   4  10
TORSDOF 5
ENDMDL
MODEL 6
REMARK VINA RESULT:      -9.1      3.354      6.090
REMARK  5 active torsions:
REMARK  status: ('A' for Active; 'I' for Inactive)
REMARK    1  A    between atoms: C2_3  and  C21_24 
REMARK    2  A    between atoms: C3_4  and  C4_5 
REMARK    3  A    between atoms: C6_7  and  C7_8 
REMARK    4  A    between atoms: C13_14  and  O1_15 
REMARK    5  A    between atoms: C14_16  and  C15_17 
REMARK       I    between atoms: C21_24  and  N2_25 
ROOT
HETATM    1  N1  UNL     1      23.756   3.858  49.028  1.00  0.00    -0.191 NA
HETATM    2  C1  UNL     1      23.653   4.450  50.016  1.00  0.00     0.105 C 
HETATM    3  C2  UNL     1      23.502   5.192  51.234  1.00  0.00     0.112 C 
HETATM    4  C3  UNL     1      23.466   4.624  52.426  1.00  0.00     0.039 C 
ENDROOT
BRANCH   3   5
HETATM    5  C21 UNL     1      23.382   6.640  51.125  1.00  0.00     0.260 C 
HETATM    6  N2  UNL     1      24.458   7.319  51.740  1.00  0.00    -0.365 N 
HETATM    7  H14 UNL     1      24.644   7.722  52.670  1.00  0.00     0.159 HD
HETATM    8  H15 UNL     1      25.428   7.711  51.661  1.00  0.00     0.159 HD
HETATM    9  O2  UNL     1      22.424   7.205  50.546  1.00  0.00    -0.267 OA
ENDBRANCH   3   5
BRANCH   4  10
HETATM   10  C4  UNL     1      23.573   3.200  52.633  1.00  0.00    -0.033 A 
HETATM   11  C5  UNL     1      24.731   2.473  52.829  1.00  0.00     0.026 A 
HETATM   12  C6  UNL     1      24.709   1.087  53.008  1.00  0.00     0.009 A 
HETATM   13  C13 UNL     1      23.506   0.423  52.991  1.00  0.00     0.087 A 
HETATM   14  C14 UNL     1      22.299   1.080  52.801  1.00  0.00     0.009 A 
HETATM   15  C20 UNL     1      22.402   2.444  52.630  1.00  0.00     0.026 A 
BRANCH  12  16
HETATM   16  C7  UNL     1      25.960   0.370  53.217  1.00  0.00    -0.023 A 
HETATM   17  C8  UNL     1      26.621   0.814  54.341  1.00  0.00     0.012 A 
HETATM   18  C9  UNL     1      27.836   0.273  54.729  1.00  0.00     0.001 A 
HETATM   19  C10 UNL     1      28.406  -0.745  53.967  1.00  0.00     0.000 A 
HETATM   20  C11 UNL     1      27.731  -1.190  52.830  1.00  0.00     0.001 A 
HETATM   21  C12 UNL     1      26.520  -0.636  52.461  1.00  0.00     0.012 A 
ENDBRANCH  12  16
BRANCH  13  22
HETATM   22  O1  UNL     1      23.437  -0.961  53.166  1.00  0.00    -0.359 OA
HETATM   23  H8  UNL     1      24.302  -1.504  53.301  1.00  0.00     0.217 HD
ENDBRANCH  13  22
BRANCH  14  24
HETATM   24  C15 UNL     1      20.990   0.432  52.768  1.00  0.00    -0.022 A 
HETATM   25  C16 UNL     1      20.545  -0.476  53.702  1.00  0.00     0.012 A 
HETATM   26  C17 UNL     1      19.329  -1.100  53.704  1.00  0.00     0.002 A 
HETATM   27  C18 UNL     1      18.279  -0.990  52.817  1.00  0.00     0.016 A 
HETATM   28  P1  UNL     1      18.623   0.134  51.513  1.00  0.00    -0.034 P 
HETATM   29  C19 UNL     1      20.222   0.835  51.674  1.00  0.00     0.028 A 
ENDBRANCH  14  24
ENDBRANCH   4  10
TORSDOF 5
ENDMDL
MODEL 7
REMARK VINA RESULT:      -9.1      4.056      7.686
REMARK  5 active torsions:
REMARK  status: ('A' for Active; 'I' for Inactive)
REMARK    1  A    between atoms: C2_3  and  C21_24 
REMARK    2  A    between atoms: C3_4  and  C4_5 
REMARK    3  A    between atoms: C6_7  and  C7_8 
REMARK    4  A    between atoms: C13_14  and  O1_15 
REMARK    5  A    between atoms: C14_16  and  C15_17 
REMARK       I    between atoms: C21_24  and  N2_25 
ROOT
HETATM    1  N1  UNL     1      21.471   5.235  51.522  1.00  0.00    -0.191 NA
HETATM    2  C1  UNL     1      21.383   4.412  50.714  1.00  0.00     0.105 C 
HETATM    3  C2  UNL     1      21.271   3.410  49.693  1.00  0.00     0.112 C 
HETATM    4  C3  UNL     1      22.277   2.638  49.325  1.00  0.00     0.039 C 
ENDROOT
BRANCH   3   5
HETATM    5  C21 UNL     1      19.974   3.258  49.046  1.00  0.00     0.260 C 
HETATM    6  N2  UNL     1      20.011   2.339  47.973  1.00  0.00    -0.365 N 
HETATM    7  H14 UNL     1      20.158   2.396  46.954  1.00  0.00     0.159 HD
HETATM    8  H15 UNL     1      19.936   1.345  47.646  1.00  0.00     0.159 HD
HETATM    9  O2  UNL     1      18.950   3.881  49.413  1.00  0.00    -0.267 OA
ENDBRANCH   3   5
BRANCH   4  10
HETATM   10  C4  UNL     1      23.595   2.717  49.905  1.00  0.00    -0.033 A 
HETATM   11  C5  UNL     1      24.112   1.920  50.907  1.00  0.00     0.026 A 
HETATM   12  C6  UNL     1      25.408   2.101  51.398  1.00  0.00     0.009 A 
HETATM   13  C13 UNL     1      26.196   3.097  50.874  1.00  0.00     0.087 A 
HETATM   14  C14 UNL     1      25.751   3.941  49.865  1.00  0.00     0.009 A 
HETATM   15  C20 UNL     1      24.465   3.701  49.434  1.00  0.00     0.026 A 
BRANCH  12  16
HETATM   16  C7  UNL     1      25.905   1.228  52.453  1.00  0.00    -0.023 A 
HETATM   17  C8  UNL     1      26.450   0.070  51.942  1.00  0.00     0.012 A 
HETATM   18  C9  UNL     1      26.982  -0.907  52.768  1.00  0.00     0.001 A 
HETATM   19  C10 UNL     1      26.968  -0.719  54.149  1.00  0.00     0.000 A 
HETATM   20  C11 UNL     1      26.415   0.456  54.659  1.00  0.00     0.001 A 
HETATM   21  C12 UNL     1      25.889   1.418  53.817  1.00  0.00     0.012 A 
ENDBRANCH  12  16
BRANCH  13  22
HETATM   22  O1  UNL     1      27.497   3.315  51.334  1.00  0.00    -0.359 OA
HETATM   23  H8  UNL     1      27.657   3.554  52.323  1.00  0.00     0.217 HD
ENDBRANCH  13  22
BRANCH  14  24
HETATM   24  C15 UNL     1      26.537   5.018  49.269  1.00  0.00    -0.022 A 
HETATM   25  C16 UNL     1      27.735   4.842  48.615  1.00  0.00     0.012 A 
HETATM   26  C17 UNL     1      28.495   5.825  48.045  1.00  0.00     0.002 A 
HETATM   27  C18 UNL     1      28.274   7.184  47.979  1.00  0.00     0.016 A 
HETATM   28  P1  UNL     1      26.775   7.656  48.763  1.00  0.00    -0.034 P 
HETATM   29  C19 UNL     1      25.937   6.268  49.433  1.00  0.00     0.028 A 
ENDBRANCH  14  24
ENDBRANCH   4  10
TORSDOF 5
ENDMDL
MODEL 8
REMARK VINA RESULT:      -9.0      3.031      5.765
REMARK  5 active torsions:
REMARK  status: ('A' for Active; 'I' for Inactive)
REMARK    1  A    between atoms: C2_3  and  C21_24 
REMARK    2  A    between atoms: C3_4  and  C4_5 
REMARK    3  A    between atoms: C6_7  and  C7_8 
REMARK    4  A    between atoms: C13_14  and  O1_15 
REMARK    5  A    between atoms: C14_16  and  C15_17 
REMARK       I    between atoms: C21_24  and  N2_25 
ROOT
HETATM    1  N1  UNL     1      24.522   6.717  51.206  1.00  0.00    -0.191 NA
HETATM    2  C1  UNL     1      25.171   6.323  50.333  1.00  0.00     0.105 C 
HETATM    3  C2  UNL     1      25.996   5.847  49.261  1.00  0.00     0.112 C 
HETATM    4  C3  UNL     1      26.348   4.581  49.126  1.00  0.00     0.039 C 
ENDROOT
BRANCH   3   5
HETATM    5  C21 UNL     1      26.456   6.828  48.286  1.00  0.00     0.260 C 
HETATM    6  N2  UNL     1      27.863   6.958  48.273  1.00  0.00    -0.365 N 
HETATM    7  H14 UNL     1      28.554   7.566  48.739  1.00  0.00     0.159 HD
HETATM    8  H15 UNL     1      28.787   6.627  47.904  1.00  0.00     0.159 HD
HETATM    9  O2  UNL     1      25.676   7.475  47.547  1.00  0.00    -0.267 OA
ENDBRANCH   3   5
BRANCH   4  10
HETATM   10  C4  UNL     1      25.945   3.541  50.041  1.00  0.00    -0.033 A 
HETATM   11  C5  UNL     1      26.766   2.778  50.848  1.00  0.00     0.026 A 
HETATM   12  C6  UNL     1      26.257   1.786  51.690  1.00  0.00     0.009 A 
HETATM   13  C13 UNL     1      24.902   1.558  51.722  1.00  0.00     0.087 A 
HETATM   14  C14 UNL     1      24.009   2.281  50.943  1.00  0.00     0.009 A 
HETATM   15  C20 UNL     1      24.587   3.240  50.139  1.00  0.00     0.026 A 
BRANCH  12  16
HETATM   16  C7  UNL     1      27.168   1.015  52.524  1.00  0.00    -0.023 A 
HETATM   17  C8  UNL     1      27.937   1.828  53.328  1.00  0.00     0.012 A 
HETATM   18  C9  UNL     1      28.876   1.306  54.202  1.00  0.00     0.001 A 
HETATM   19  C10 UNL     1      29.050  -0.075  54.274  1.00  0.00     0.000 A 
HETATM   20  C11 UNL     1      28.268  -0.893  53.458  1.00  0.00     0.001 A 
HETATM   21  C12 UNL     1      27.337  -0.351  52.593  1.00  0.00     0.012 A 
ENDBRANCH  12  16
BRANCH  13  22
HETATM   22  O1  UNL     1      24.349   0.576  52.548  1.00  0.00    -0.359 OA
HETATM   23  H8  UNL     1      23.333   0.406  52.531  1.00  0.00     0.217 HD
ENDBRANCH  13  22
BRANCH  14  24
HETATM   24  C15 UNL     1      22.562   2.084  50.928  1.00  0.00    -0.022 A 
HETATM   25  C16 UNL     1      21.901   1.210  50.096  1.00  0.00     0.012 A 
HETATM   26  C17 UNL     1      20.552   0.999  50.057  1.00  0.00     0.002 A 
HETATM   27  C18 UNL     1      19.546   1.576  50.803  1.00  0.00     0.016 A 
HETATM   28  P1  UNL     1      20.160   2.749  51.957  1.00  0.00    -0.034 P 
HETATM   29  C19 UNL     1      21.906   2.886  51.864  1.00  0.00     0.028 A 
ENDBRANCH  14  24
ENDBRANCH   4  10
TORSDOF 5
ENDMDL
MODEL 9
REMARK VINA RESULT:      -8.8      3.667      6.000
REMARK  5 active torsions:
REMARK  status: ('A' for Active; 'I' for Inactive)
REMARK    1  A    between atoms: C2_3  and  C21_24 
REMARK    2  A    between atoms: C3_4  and  C4_5 
REMARK    3  A    between atoms: C6_7  and  C7_8 
REMARK    4  A    between atoms: C13_14  and  O1_15 
REMARK    5  A    between atoms: C14_16  and  C15_17 
REMARK       I    between atoms: C21_24  and  N2_25 
ROOT
HETATM    1  N1  UNL     1      25.101   7.381  50.550  1.00  0.00    -0.191 NA
HETATM    2  C1  UNL     1      25.858   6.848  49.856  1.00  0.00     0.105 C 
HETATM    3  C2  UNL     1      26.817   6.197  49.010  1.00  0.00     0.112 C 
HETATM    4  C3  UNL     1      26.928   4.884  48.922  1.00  0.00     0.039 C 
ENDROOT
BRANCH   3   5
HETATM    5  C21 UNL     1      27.700   7.048  48.223  1.00  0.00     0.260 C 
HETATM    6  N2  UNL     1      28.974   7.198  48.815  1.00  0.00    -0.365 N 
HETATM    7  H14 UNL     1      29.417   7.873  49.456  1.00  0.00     0.159 HD
HETATM    8  H15 UNL     1      29.951   6.836  48.935  1.00  0.00     0.159 HD
HETATM    9  O2  UNL     1      27.351   7.579  47.142  1.00  0.00    -0.267 OA
ENDBRANCH   3   5
BRANCH   4  10
HETATM   10  C4  UNL     1      26.102   3.963  49.663  1.00  0.00    -0.033 A 
HETATM   11  C5  UNL     1      26.504   3.117  50.678  1.00  0.00     0.026 A 
HETATM   12  C6  UNL     1      25.608   2.256  51.318  1.00  0.00     0.009 A 
HETATM   13  C13 UNL     1      24.289   2.247  50.933  1.00  0.00     0.087 A 
HETATM   14  C14 UNL     1      23.805   3.067  49.923  1.00  0.00     0.009 A 
HETATM   15  C20 UNL     1      24.748   3.885  49.340  1.00  0.00     0.026 A 
BRANCH  12  16
HETATM   16  C7  UNL     1      26.085   1.388  52.386  1.00  0.00    -0.023 A 
HETATM   17  C8  UNL     1      26.598   0.208  51.894  1.00  0.00     0.012 A 
HETATM   18  C9  UNL     1      27.106  -0.769  52.735  1.00  0.00     0.001 A 
HETATM   19  C10 UNL     1      27.101  -0.556  54.113  1.00  0.00     0.000 A 
HETATM   20  C11 UNL     1      26.580   0.641  54.604  1.00  0.00     0.001 A 
HETATM   21  C12 UNL     1      26.078   1.602  53.747  1.00  0.00     0.012 A 
ENDBRANCH  12  16
BRANCH  13  22
HETATM   22  O1  UNL     1      23.359   1.403  51.545  1.00  0.00    -0.359 OA
HETATM   23  H8  UNL     1      23.406   1.240  52.561  1.00  0.00     0.217 HD
ENDBRANCH  13  22
BRANCH  14  24
HETATM   24  C15 UNL     1      22.418   3.101  49.466  1.00  0.00    -0.022 A 
HETATM   25  C16 UNL     1      21.886   2.255  48.520  1.00  0.00     0.012 A 
HETATM   26  C17 UNL     1      20.596   2.257  48.071  1.00  0.00     0.002 A 
HETATM   27  C18 UNL     1      19.538   3.065  48.430  1.00  0.00     0.016 A 
HETATM   28  P1  UNL     1      19.985   4.248  49.648  1.00  0.00    -0.034 P 
HETATM   29  C19 UNL     1      21.673   4.096  50.101  1.00  0.00     0.028 A 
ENDBRANCH  14  24
ENDBRANCH   4  10
TORSDOF 5
ENDMDL
