MODEL 1
REMARK VINA RESULT:      -9.2      0.000      0.000
REMARK  4 active torsions:
REMARK  status: ('A' for Active; 'I' for Inactive)
REMARK    1  A    between atoms: C6_6  and  N1_7 
REMARK    2  A    between atoms: N1_7  and  C7_8 
REMARK    3  A    between atoms: C12_16  and  C13_17 
REMARK    4  A    between atoms: C17_22  and  N5_23 
ROOT
HETATM    1  C7  UNL     1      26.330   2.396  52.026  1.00  0.00     0.147 A 
HETATM    2  N2  UNL     1      27.010   3.030  51.133  1.00  0.00    -0.222 NA
HETATM    3  C8  UNL     1      26.577   3.487  49.882  1.00  0.00     0.243 A 
HETATM    4  N3  UNL     1      25.409   3.411  49.272  1.00  0.00    -0.211 NA
HETATM    5  S1  UNL     1      24.232   2.568  50.280  1.00  0.00    -0.026 SA
HETATM    6  C9  UNL     1      22.661   2.314  50.108  1.00  0.00     0.035 C 
HETATM    7  C10 UNL     1      22.221   1.552  51.109  1.00  0.00     0.032 C 
HETATM    8  C11 UNL     1      22.789   1.133  52.366  1.00  0.00    -0.033 C 
HETATM    9  C12 UNL     1      22.021   0.490  53.228  1.00  0.00     0.027 C 
HETATM   10  C18 UNL     1      24.198   1.391  52.746  1.00  0.00     0.035 C 
HETATM   11  C19 UNL     1      24.927   2.040  51.854  1.00  0.00     0.063 A 
ENDROOT
BRANCH   1  12
HETATM   12  N1  UNL     1      26.971   2.022  53.239  1.00  0.00    -0.340 N 
HETATM   13  H7  UNL     1      26.692   2.580  54.073  1.00  0.00     0.167 HD
BRANCH  12  14
HETATM   14  C6  UNL     1      27.915   0.972  53.328  1.00  0.00     0.034 A 
HETATM   15  C5  UNL     1      29.228   1.036  53.702  1.00  0.00     0.029 A 
HETATM   16  C4  UNL     1      30.108  -0.020  53.778  1.00  0.00     0.003 A 
HETATM   17  C3  UNL     1      29.625  -1.285  53.444  1.00  0.00     0.007 A 
HETATM   18  C2  UNL     1      28.308  -1.411  53.058  1.00  0.00    -0.060 A 
HETATM   19  C1  UNL     1      27.714  -2.727  52.684  1.00  0.00     0.048 C 
HETATM   20  C20 UNL     1      27.463  -0.303  52.999  1.00  0.00     0.036 A 
ENDBRANCH  12  14
ENDBRANCH   1  12
BRANCH   9  21
HETATM   21  C13 UNL     1      20.637   0.090  53.173  1.00  0.00     0.023 C 
HETATM   22  C14 UNL     1      19.581   0.648  52.600  1.00  0.00     0.006 C 
HETATM   23  C15 UNL     1      18.598  -0.125  52.248  1.00  0.00     0.105 C 
HETATM   24  N4  UNL     1      18.692  -1.206  53.165  1.00  0.00    -0.345 N 
HETATM   25  C16 UNL     1      17.775  -2.274  53.525  1.00  0.00     0.157 C 
HETATM   26  C17 UNL     1      19.973  -1.096  53.765  1.00  0.00     0.133 C 
BRANCH  26  27
HETATM   27  N5  UNL     1      20.493  -1.866  54.660  1.00  0.00    -0.283 NA
HETATM   28  H15 UNL     1      20.791  -1.501  55.590  1.00  0.00     0.188 HD
ENDBRANCH  26  27
ENDBRANCH   9  21
TORSDOF 4
ENDMDL
MODEL 2
REMARK VINA RESULT:      -8.9      2.623      6.998
REMARK  4 active torsions:
REMARK  status: ('A' for Active; 'I' for Inactive)
REMARK    1  A    between atoms: C6_6  and  N1_7 
REMARK    2  A    between atoms: N1_7  and  C7_8 
REMARK    3  A    between atoms: C12_16  and  C13_17 
REMARK    4  A    between atoms: C17_22  and  N5_23 
ROOT
HETATM    1  C7  UNL     1      23.462   0.997  52.351  1.00  0.00     0.147 A 
HETATM    2  N2  UNL     1      22.425   0.231  52.348  1.00  0.00    -0.222 NA
HETATM    3  C8  UNL     1      21.402   0.166  51.394  1.00  0.00     0.243 A 
HETATM    4  N3  UNL     1      21.200   0.832  50.273  1.00  0.00    -0.211 NA
HETATM    5  S1  UNL     1      22.496   1.994  49.995  1.00  0.00    -0.026 SA
HETATM    6  C9  UNL     1      22.831   2.950  48.755  1.00  0.00     0.035 C 
HETATM    7  C10 UNL     1      23.886   3.709  49.049  1.00  0.00     0.032 C 
HETATM    8  C11 UNL     1      24.873   3.678  50.099  1.00  0.00    -0.033 C 
HETATM    9  C12 UNL     1      25.909   4.496  50.023  1.00  0.00     0.027 C 
HETATM   10  C18 UNL     1      24.788   2.768  51.266  1.00  0.00     0.035 C 
HETATM   11  C19 UNL     1      23.737   1.967  51.298  1.00  0.00     0.063 A 
ENDROOT
BRANCH   1  12
HETATM   12  N1  UNL     1      24.385   0.899  53.428  1.00  0.00    -0.340 N 
HETATM   13  H7  UNL     1      24.085   1.369  54.308  1.00  0.00     0.167 HD
BRANCH  12  14
HETATM   14  C6  UNL     1      25.619   0.215  53.334  1.00  0.00     0.034 A 
HETATM   15  C5  UNL     1      25.874  -1.014  52.793  1.00  0.00     0.029 A 
HETATM   16  C4  UNL     1      27.100  -1.636  52.720  1.00  0.00     0.003 A 
HETATM   17  C3  UNL     1      28.199  -0.956  53.246  1.00  0.00     0.007 A 
HETATM   18  C2  UNL     1      28.003   0.288  53.804  1.00  0.00    -0.060 A 
HETATM   19  C1  UNL     1      29.123   1.081  54.388  1.00  0.00     0.048 C 
HETATM   20  C20 UNL     1      26.736   0.868  53.850  1.00  0.00     0.036 A 
ENDBRANCH  12  14
ENDBRANCH   1  12
BRANCH   9  21
HETATM   21  C13 UNL     1      26.286   5.482  49.042  1.00  0.00     0.023 C 
HETATM   22  C14 UNL     1      25.566   6.321  48.313  1.00  0.00     0.006 C 
HETATM   23  C15 UNL     1      26.127   7.422  47.915  1.00  0.00     0.105 C 
HETATM   24  N4  UNL     1      27.503   7.075  47.839  1.00  0.00    -0.345 N 
HETATM   25  C16 UNL     1      28.648   7.719  47.219  1.00  0.00     0.157 C 
HETATM   26  C17 UNL     1      27.633   5.851  48.544  1.00  0.00     0.133 C 
BRANCH  26  27
HETATM   27  N5  UNL     1      28.708   5.162  48.736  1.00  0.00    -0.283 NA
HETATM   28  H15 UNL     1      29.639   5.619  48.840  1.00  0.00     0.188 HD
ENDBRANCH  26  27
ENDBRANCH   9  21
TORSDOF 4
ENDMDL
MODEL 3
REMARK VINA RESULT:      -8.9      2.643      4.235
REMARK  4 active torsions:
REMARK  status: ('A' for Active; 'I' for Inactive)
REMARK    1  A    between atoms: C6_6  and  N1_7 
REMARK    2  A    between atoms: N1_7  and  C7_8 
REMARK    3  A    between atoms: C12_16  and  C13_17 
REMARK    4  A    between atoms: C17_22  and  N5_23 
ROOT
HETATM    1  C7  UNL     1      24.432  -0.162  53.528  1.00  0.00     0.147 A 
HETATM    2  N2  UNL     1      24.887  -0.810  54.545  1.00  0.00    -0.222 NA
HETATM    3  C8  UNL     1      24.161  -1.477  55.540  1.00  0.00     0.243 A 
HETATM    4  N3  UNL     1      22.865  -1.637  55.727  1.00  0.00    -0.211 NA
HETATM    5  S1  UNL     1      21.947  -0.836  54.451  1.00  0.00    -0.026 SA
HETATM    6  C9  UNL     1      20.384  -0.818  54.105  1.00  0.00     0.035 C 
HETATM    7  C10 UNL     1      20.164   0.001  53.077  1.00  0.00     0.032 C 
HETATM    8  C11 UNL     1      21.025   0.649  52.119  1.00  0.00    -0.033 C 
HETATM    9  C12 UNL     1      20.476   1.289  51.102  1.00  0.00     0.027 C 
HETATM   10  C18 UNL     1      22.503   0.632  52.215  1.00  0.00     0.035 C 
HETATM   11  C19 UNL     1      23.009  -0.022  53.247  1.00  0.00     0.063 A 
ENDROOT
BRANCH   1  12
HETATM   12  N1  UNL     1      25.354   0.446  52.633  1.00  0.00    -0.340 N 
HETATM   13  H7  UNL     1      24.987   0.614  51.672  1.00  0.00     0.167 HD
BRANCH  12  14
HETATM   14  C6  UNL     1      26.670   0.808  53.001  1.00  0.00     0.034 A 
HETATM   15  C5  UNL     1      27.167   2.051  53.276  1.00  0.00     0.029 A 
HETATM   16  C4  UNL     1      28.461   2.352  53.637  1.00  0.00     0.003 A 
HETATM   17  C3  UNL     1      29.364   1.294  53.734  1.00  0.00     0.007 A 
HETATM   18  C2  UNL     1      28.920   0.017  53.468  1.00  0.00    -0.060 A 
HETATM   19  C1  UNL     1      29.822  -1.169  53.548  1.00  0.00     0.048 C 
HETATM   20  C20 UNL     1      27.596  -0.227  53.106  1.00  0.00     0.036 A 
ENDBRANCH  12  14
ENDBRANCH   1  12
BRANCH   9  21
HETATM   21  C13 UNL     1      19.100   1.490  50.721  1.00  0.00     0.023 C 
HETATM   22  C14 UNL     1      18.325   0.859  49.851  1.00  0.00     0.006 C 
HETATM   23  C15 UNL     1      17.042   0.870  50.055  1.00  0.00     0.105 C 
HETATM   24  N4  UNL     1      16.839   2.081  50.770  1.00  0.00    -0.345 N 
HETATM   25  C16 UNL     1      15.647   2.853  51.079  1.00  0.00     0.157 C 
HETATM   26  C17 UNL     1      18.124   2.497  51.203  1.00  0.00     0.133 C 
BRANCH  26  27
HETATM   27  N5  UNL     1      18.423   3.548  51.890  1.00  0.00    -0.283 NA
HETATM   28  H15 UNL     1      17.687   4.184  52.264  1.00  0.00     0.188 HD
ENDBRANCH  26  27
ENDBRANCH   9  21
TORSDOF 4
ENDMDL
MODEL 4
REMARK VINA RESULT:      -8.8      3.770      8.832
REMARK  4 active torsions:
REMARK  status: ('A' for Active; 'I' for Inactive)
REMARK    1  A    between atoms: C6_6  and  N1_7 
REMARK    2  A    between atoms: N1_7  and  C7_8 
REMARK    3  A    between atoms: C12_16  and  C13_17 
REMARK    4  A    between atoms: C17_22  and  N5_23 
ROOT
HETATM    1  C7  UNL     1      23.561   4.082  50.356  1.00  0.00     0.147 A 
HETATM    2  N2  UNL     1      22.450   4.474  50.880  1.00  0.00    -0.222 NA
HETATM    3  C8  UNL     1      22.039   5.785  51.154  1.00  0.00     0.243 A 
HETATM    4  N3  UNL     1      22.631   6.950  50.969  1.00  0.00    -0.211 NA
HETATM    5  S1  UNL     1      24.223   6.733  50.241  1.00  0.00    -0.026 SA
HETATM    6  C9  UNL     1      25.297   7.781  49.685  1.00  0.00     0.035 C 
HETATM    7  C10 UNL     1      26.394   7.130  49.295  1.00  0.00     0.032 C 
HETATM    8  C11 UNL     1      26.696   5.740  49.065  1.00  0.00    -0.033 C 
HETATM    9  C12 UNL     1      27.859   5.424  48.519  1.00  0.00     0.027 C 
HETATM   10  C18 UNL     1      25.766   4.639  49.407  1.00  0.00     0.035 C 
HETATM   11  C19 UNL     1      24.615   5.002  49.947  1.00  0.00     0.063 A 
ENDROOT
BRANCH   1  12
HETATM   12  N1  UNL     1      23.776   2.690  50.165  1.00  0.00    -0.340 N 
HETATM   13  H7  UNL     1      23.749   2.374  49.172  1.00  0.00     0.167 HD
BRANCH  12  14
HETATM   14  C6  UNL     1      24.014   1.787  51.227  1.00  0.00     0.034 A 
HETATM   15  C5  UNL     1      23.104   1.139  52.014  1.00  0.00     0.029 A 
HETATM   16  C4  UNL     1      23.388   0.261  53.037  1.00  0.00     0.003 A 
HETATM   17  C3  UNL     1      24.730  -0.002  53.305  1.00  0.00     0.007 A 
HETATM   18  C2  UNL     1      25.693   0.623  52.542  1.00  0.00    -0.060 A 
HETATM   19  C1  UNL     1      27.151   0.398  52.765  1.00  0.00     0.048 C 
HETATM   20  C20 UNL     1      25.345   1.505  51.519  1.00  0.00     0.036 A 
ENDBRANCH  12  14
ENDBRANCH   1  12
BRANCH   9  21
HETATM   21  C13 UNL     1      28.965   6.234  48.074  1.00  0.00     0.023 C 
HETATM   22  C14 UNL     1      29.107   7.035  47.029  1.00  0.00     0.006 C 
HETATM   23  C15 UNL     1      29.951   8.017  47.122  1.00  0.00     0.105 C 
HETATM   24  N4  UNL     1      30.906   7.535  48.056  1.00  0.00    -0.345 N 
HETATM   25  C16 UNL     1      32.240   7.983  48.420  1.00  0.00     0.157 C 
HETATM   26  C17 UNL     1      30.310   6.407  48.674  1.00  0.00     0.133 C 
BRANCH  26  27
HETATM   27  N5  UNL     1      30.814   5.651  49.591  1.00  0.00    -0.283 NA
HETATM   28  H15 UNL     1      31.833   5.664  49.810  1.00  0.00     0.188 HD
ENDBRANCH  26  27
ENDBRANCH   9  21
TORSDOF 4
ENDMDL
MODEL 5
REMARK VINA RESULT:      -8.8      2.095      8.424
REMARK  4 active torsions:
REMARK  status: ('A' for Active; 'I' for Inactive)
REMARK    1  A    between atoms: C6_6  and  N1_7 
REMARK    2  A    between atoms: N1_7  and  C7_8 
REMARK    3  A    between atoms: C12_16  and  C13_17 
REMARK    4  A    between atoms: C17_22  and  N5_23 
ROOT
HETATM    1  C7  UNL     1      19.693   0.337  52.752  1.00  0.00     0.147 A 
HETATM    2  N2  UNL     1      18.875   1.138  52.158  1.00  0.00    -0.222 NA
HETATM    3  C8  UNL     1      19.180   2.244  51.355  1.00  0.00     0.243 A 
HETATM    4  N3  UNL     1      20.331   2.773  50.984  1.00  0.00    -0.211 NA
HETATM    5  S1  UNL     1      21.682   1.865  51.662  1.00  0.00    -0.026 SA
HETATM    6  C9  UNL     1      23.264   1.971  51.438  1.00  0.00     0.035 C 
HETATM    7  C10 UNL     1      23.887   1.107  52.240  1.00  0.00     0.032 C 
HETATM    8  C11 UNL     1      23.441  -0.003  53.045  1.00  0.00    -0.033 C 
HETATM    9  C12 UNL     1      24.347  -0.777  53.617  1.00  0.00     0.027 C 
HETATM   10  C18 UNL     1      22.012  -0.325  53.263  1.00  0.00     0.035 C 
HETATM   11  C19 UNL     1      21.142   0.476  52.670  1.00  0.00     0.063 A 
ENDROOT
BRANCH   1  12
HETATM   12  N1  UNL     1      19.166  -0.732  53.526  1.00  0.00    -0.340 N 
HETATM   13  H7  UNL     1      19.712  -0.966  54.383  1.00  0.00     0.167 HD
BRANCH  12  14
HETATM   14  C6  UNL     1      17.989  -1.436  53.181  1.00  0.00     0.034 A 
HETATM   15  C5  UNL     1      16.938  -1.014  52.416  1.00  0.00     0.029 A 
HETATM   16  C4  UNL     1      15.812  -1.742  52.102  1.00  0.00     0.003 A 
HETATM   17  C3  UNL     1      15.723  -3.038  52.608  1.00  0.00     0.007 A 
HETATM   18  C2  UNL     1      16.754  -3.518  53.387  1.00  0.00    -0.060 A 
HETATM   19  C1  UNL     1      16.736  -4.892  53.967  1.00  0.00     0.048 C 
HETATM   20  C20 UNL     1      17.870  -2.733  53.672  1.00  0.00     0.036 A 
ENDBRANCH  12  14
ENDBRANCH   1  12
BRANCH   9  21
HETATM   21  C13 UNL     1      25.788  -0.744  53.604  1.00  0.00     0.023 C 
HETATM   22  C14 UNL     1      26.683  -1.515  53.004  1.00  0.00     0.006 C 
HETATM   23  C15 UNL     1      27.840  -0.999  52.719  1.00  0.00     0.105 C 
HETATM   24  N4  UNL     1      27.999   0.007  53.709  1.00  0.00    -0.345 N 
HETATM   25  C16 UNL     1      29.149   0.776  54.155  1.00  0.00     0.157 C 
HETATM   26  C17 UNL     1      26.717   0.189  54.287  1.00  0.00     0.133 C 
BRANCH  26  27
HETATM   27  N5  UNL     1      26.385   1.006  55.229  1.00  0.00    -0.283 NA
HETATM   28  H15 UNL     1      26.712   1.996  55.235  1.00  0.00     0.188 HD
ENDBRANCH  26  27
ENDBRANCH   9  21
TORSDOF 4
ENDMDL
MODEL 6
REMARK VINA RESULT:      -8.5      2.701      7.223
REMARK  4 active torsions:
REMARK  status: ('A' for Active; 'I' for Inactive)
REMARK    1  A    between atoms: C6_6  and  N1_7 
REMARK    2  A    between atoms: N1_7  and  C7_8 
REMARK    3  A    between atoms: C12_16  and  C13_17 
REMARK    4  A    between atoms: C17_22  and  N5_23 
ROOT
HETATM    1  C7  UNL     1      21.908   3.752  50.560  1.00  0.00     0.147 A 
HETATM    2  N2  UNL     1      20.671   4.020  50.807  1.00  0.00    -0.222 NA
HETATM    3  C8  UNL     1      19.834   3.430  51.763  1.00  0.00     0.243 A 
HETATM    4  N3  UNL     1      20.045   2.476  52.651  1.00  0.00    -0.211 NA
HETATM    5  S1  UNL     1      21.706   1.890  52.553  1.00  0.00    -0.026 SA
HETATM    6  C9  UNL     1      22.534   0.862  53.459  1.00  0.00     0.035 C 
HETATM    7  C10 UNL     1      23.746   0.683  52.935  1.00  0.00     0.032 C 
HETATM    8  C11 UNL     1      24.501   1.367  51.915  1.00  0.00    -0.033 C 
HETATM    9  C12 UNL     1      25.766   1.034  51.729  1.00  0.00     0.027 C 
HETATM   10  C18 UNL     1      23.929   2.434  51.061  1.00  0.00     0.035 C 
HETATM   11  C19 UNL     1      22.661   2.736  51.284  1.00  0.00     0.063 A 
ENDROOT
BRANCH   1  12
HETATM   12  N1  UNL     1      22.575   4.478  49.536  1.00  0.00    -0.340 N 
HETATM   13  H7  UNL     1      22.288   4.232  48.565  1.00  0.00     0.167 HD
BRANCH  12  14
HETATM   14  C6  UNL     1      23.554   5.465  49.794  1.00  0.00     0.034 A 
HETATM   15  C5  UNL     1      23.467   6.558  50.609  1.00  0.00     0.029 A 
HETATM   16  C4  UNL     1      24.455   7.492  50.833  1.00  0.00     0.003 A 
HETATM   17  C3  UNL     1      25.667   7.316  50.168  1.00  0.00     0.007 A 
HETATM   18  C2  UNL     1      25.813   6.231  49.331  1.00  0.00    -0.060 A 
HETATM   19  C1  UNL     1      27.077   5.971  48.583  1.00  0.00     0.048 C 
HETATM   20  C20 UNL     1      24.776   5.318  49.144  1.00  0.00     0.036 A 
ENDBRANCH  12  14
ENDBRANCH   1  12
BRANCH   9  21
HETATM   21  C13 UNL     1      26.611   0.062  52.376  1.00  0.00     0.023 C 
HETATM   22  C14 UNL     1      26.459  -1.238  52.587  1.00  0.00     0.006 C 
HETATM   23  C15 UNL     1      27.527  -1.966  52.708  1.00  0.00     0.105 C 
HETATM   24  N4  UNL     1      28.487  -1.051  53.217  1.00  0.00    -0.345 N 
HETATM   25  C16 UNL     1      29.791  -1.233  53.832  1.00  0.00     0.157 C 
HETATM   26  C17 UNL     1      27.934   0.241  53.021  1.00  0.00     0.133 C 
BRANCH  26  27
HETATM   27  N5  UNL     1      28.458   1.378  53.333  1.00  0.00    -0.283 NA
HETATM   28  H15 UNL     1      28.089   2.274  52.947  1.00  0.00     0.188 HD
ENDBRANCH  26  27
ENDBRANCH   9  21
TORSDOF 4
ENDMDL
MODEL 7
REMARK VINA RESULT:      -8.5      2.255      7.444
REMARK  4 active torsions:
REMARK  status: ('A' for Active; 'I' for Inactive)
REMARK    1  A    between atoms: C6_6  and  N1_7 
REMARK    2  A    between atoms: N1_7  and  C7_8 
REMARK    3  A    between atoms: C12_16  and  C13_17 
REMARK    4  A    between atoms: C17_22  and  N5_23 
ROOT
HETATM    1  C7  UNL     1      21.672   3.625  51.208  1.00  0.00     0.147 A 
HETATM    2  N2  UNL     1      21.118   4.194  50.192  1.00  0.00    -0.222 NA
HETATM    3  C8  UNL     1      21.722   4.611  49.000  1.00  0.00     0.243 A 
HETATM    4  N3  UNL     1      22.971   4.550  48.577  1.00  0.00    -0.211 NA
HETATM    5  S1  UNL     1      24.004   3.794  49.790  1.00  0.00    -0.026 SA
HETATM    6  C9  UNL     1      25.541   3.348  49.760  1.00  0.00     0.035 C 
HETATM    7  C10 UNL     1      25.894   2.883  50.959  1.00  0.00     0.032 C 
HETATM    8  C11 UNL     1      25.154   2.503  52.136  1.00  0.00    -0.033 C 
HETATM    9  C12 UNL     1      25.799   1.920  53.132  1.00  0.00     0.027 C 
HETATM   10  C18 UNL     1      23.698   2.729  52.288  1.00  0.00     0.035 C 
HETATM   11  C19 UNL     1      23.094   3.312  51.266  1.00  0.00     0.063 A 
ENDROOT
BRANCH   1  12
HETATM   12  N1  UNL     1      20.865   3.283  52.327  1.00  0.00    -0.340 N 
HETATM   13  H7  UNL     1      20.686   4.063  52.994  1.00  0.00     0.167 HD
BRANCH  12  14
HETATM   14  C6  UNL     1      20.333   1.989  52.535  1.00  0.00     0.034 A 
HETATM   15  C5  UNL     1      20.667   1.074  53.493  1.00  0.00     0.029 A 
HETATM   16  C4  UNL     1      20.113  -0.175  53.659  1.00  0.00     0.003 A 
HETATM   17  C3  UNL     1      19.110  -0.557  52.768  1.00  0.00     0.007 A 
HETATM   18  C2  UNL     1      18.731   0.325  51.780  1.00  0.00    -0.060 A 
HETATM   19  C1  UNL     1      17.668  -0.006  50.786  1.00  0.00     0.048 C 
HETATM   20  C20 UNL     1      19.330   1.579  51.661  1.00  0.00     0.036 A 
ENDBRANCH  12  14
ENDBRANCH   1  12
BRANCH   9  21
HETATM   21  C13 UNL     1      27.185   1.559  53.300  1.00  0.00     0.023 C 
HETATM   22  C14 UNL     1      28.247   2.274  53.641  1.00  0.00     0.006 C 
HETATM   23  C15 UNL     1      29.236   1.661  54.218  1.00  0.00     0.105 C 
HETATM   24  N4  UNL     1      29.133   0.336  53.717  1.00  0.00    -0.345 N 
HETATM   25  C16 UNL     1      30.048  -0.792  53.723  1.00  0.00     0.157 C 
HETATM   26  C17 UNL     1      27.845   0.242  53.130  1.00  0.00     0.133 C 
BRANCH  26  27
HETATM   27  N5  UNL     1      27.315  -0.782  52.551  1.00  0.00    -0.283 NA
HETATM   28  H15 UNL     1      26.647  -1.408  53.049  1.00  0.00     0.188 HD
ENDBRANCH  26  27
ENDBRANCH   9  21
TORSDOF 4
ENDMDL
MODEL 8
REMARK VINA RESULT:      -8.5      3.988      7.487
REMARK  4 active torsions:
REMARK  status: ('A' for Active; 'I' for Inactive)
REMARK    1  A    between atoms: C6_6  and  N1_7 
REMARK    2  A    between atoms: N1_7  and  C7_8 
REMARK    3  A    between atoms: C12_16  and  C13_17 
REMARK    4  A    between atoms: C17_22  and  N5_23 
ROOT
HETATM    1  C7  UNL     1      23.948   6.331  49.181  1.00  0.00     0.147 A 
HETATM    2  N2  UNL     1      22.882   7.056  49.221  1.00  0.00    -0.222 NA
HETATM    3  C8  UNL     1      21.813   6.970  50.121  1.00  0.00     0.243 A 
HETATM    4  N3  UNL     1      21.584   6.168  51.143  1.00  0.00    -0.211 NA
HETATM    5  S1  UNL     1      22.912   5.025  51.349  1.00  0.00    -0.026 SA
HETATM    6  C9  UNL     1      23.224   3.938  52.482  1.00  0.00     0.035 C 
HETATM    7  C10 UNL     1      24.322   3.256  52.155  1.00  0.00     0.032 C 
HETATM    8  C11 UNL     1      25.356   3.448  51.168  1.00  0.00    -0.033 C 
HETATM    9  C12 UNL     1      26.419   2.663  51.200  1.00  0.00     0.027 C 
HETATM   10  C18 UNL     1      25.291   4.488  50.116  1.00  0.00     0.035 C 
HETATM   11  C19 UNL     1      24.211   5.252  50.124  1.00  0.00     0.063 A 
ENDROOT
BRANCH   1  12
HETATM   12  N1  UNL     1      24.916   6.591  48.173  1.00  0.00    -0.340 N 
HETATM   13  H7  UNL     1      24.661   6.251  47.221  1.00  0.00     0.167 HD
BRANCH  12  14
HETATM   14  C6  UNL     1      26.137   7.260  48.422  1.00  0.00     0.034 A 
HETATM   15  C5  UNL     1      26.335   8.487  48.989  1.00  0.00     0.029 A 
HETATM   16  C4  UNL     1      27.550   9.096  49.215  1.00  0.00     0.003 A 
HETATM   17  C3  UNL     1      28.698   8.402  48.833  1.00  0.00     0.007 A 
HETATM   18  C2  UNL     1      28.559   7.159  48.255  1.00  0.00    -0.060 A 
HETATM   19  C1  UNL     1      29.736   6.353  47.817  1.00  0.00     0.048 C 
HETATM   20  C20 UNL     1      27.302   6.593  48.050  1.00  0.00     0.036 A 
ENDBRANCH  12  14
ENDBRANCH   1  12
BRANCH   9  21
HETATM   21  C13 UNL     1      26.788   1.578  52.076  1.00  0.00     0.023 C 
HETATM   22  C14 UNL     1      26.524   0.281  52.033  1.00  0.00     0.006 C 
HETATM   23  C15 UNL     1      27.362  -0.533  52.600  1.00  0.00     0.105 C 
HETATM   24  N4  UNL     1      27.939   0.262  53.627  1.00  0.00    -0.345 N 
HETATM   25  C16 UNL     1      28.734  -0.068  54.798  1.00  0.00     0.157 C 
HETATM   26  C17 UNL     1      27.592   1.603  53.322  1.00  0.00     0.133 C 
BRANCH  26  27
HETATM   27  N5  UNL     1      27.903   2.667  53.981  1.00  0.00    -0.283 NA
HETATM   28  H15 UNL     1      28.582   3.364  53.607  1.00  0.00     0.188 HD
ENDBRANCH  26  27
ENDBRANCH   9  21
TORSDOF 4
ENDMDL
MODEL 9
REMARK VINA RESULT:      -8.5      3.828      8.447
REMARK  4 active torsions:
REMARK  status: ('A' for Active; 'I' for Inactive)
REMARK    1  A    between atoms: C6_6  and  N1_7 
REMARK    2  A    between atoms: N1_7  and  C7_8 
REMARK    3  A    between atoms: C12_16  and  C13_17 
REMARK    4  A    between atoms: C17_22  and  N5_23 
ROOT
HETATM    1  C7  UNL     1      24.617   3.028  51.105  1.00  0.00     0.147 A 
HETATM    2  N2  UNL     1      23.573   2.923  51.855  1.00  0.00    -0.222 NA
HETATM    3  C8  UNL     1      22.692   3.936  52.256  1.00  0.00     0.243 A 
HETATM    4  N3  UNL     1      22.664   5.231  52.002  1.00  0.00    -0.211 NA
HETATM    5  S1  UNL     1      24.013   5.692  50.962  1.00  0.00    -0.026 SA
HETATM    6  C9  UNL     1      24.387   7.072  50.243  1.00  0.00     0.035 C 
HETATM    7  C10 UNL     1      25.558   6.945  49.617  1.00  0.00     0.032 C 
HETATM    8  C11 UNL     1      26.387   5.816  49.278  1.00  0.00    -0.033 C 
HETATM    9  C12 UNL     1      27.438   6.011  48.500  1.00  0.00     0.027 C 
HETATM   10  C18 UNL     1      26.121   4.440  49.756  1.00  0.00     0.035 C 
HETATM   11  C19 UNL     1      25.058   4.292  50.530  1.00  0.00     0.063 A 
ENDROOT
BRANCH   1  12
HETATM   12  N1  UNL     1      25.378   1.862  50.821  1.00  0.00    -0.340 N 
HETATM   13  H7  UNL     1      25.281   1.500  49.849  1.00  0.00     0.167 HD
BRANCH  12  14
HETATM   14  C6  UNL     1      26.212   1.228  51.771  1.00  0.00     0.034 A 
HETATM   15  C5  UNL     1      26.186  -0.071  52.195  1.00  0.00     0.029 A 
HETATM   16  C4  UNL     1      27.028  -0.645  53.122  1.00  0.00     0.003 A 
HETATM   17  C3  UNL     1      28.007   0.168  53.692  1.00  0.00     0.007 A 
HETATM   18  C2  UNL     1      28.081   1.488  53.303  1.00  0.00    -0.060 A 
HETATM   19  C1  UNL     1      29.097   2.425  53.864  1.00  0.00     0.048 C 
HETATM   20  C20 UNL     1      27.200   2.014  52.358  1.00  0.00     0.036 A 
ENDBRANCH  12  14
ENDBRANCH   1  12
BRANCH   9  21
HETATM   21  C13 UNL     1      27.966   7.197  47.874  1.00  0.00     0.023 C 
HETATM   22  C14 UNL     1      27.688   7.784  46.719  1.00  0.00     0.006 C 
HETATM   23  C15 UNL     1      27.893   9.062  46.618  1.00  0.00     0.105 C 
HETATM   24  N4  UNL     1      28.942   9.296  47.547  1.00  0.00    -0.345 N 
HETATM   25  C16 UNL     1      29.839  10.420  47.756  1.00  0.00     0.157 C 
HETATM   26  C17 UNL     1      29.012   8.132  48.355  1.00  0.00     0.133 C 
BRANCH  26  27
HETATM   27  N5  UNL     1      29.820   7.899  49.334  1.00  0.00    -0.283 NA
HETATM   28  H15 UNL     1      29.667   7.106  49.992  1.00  0.00     0.188 HD
ENDBRANCH  26  27
ENDBRANCH   9  21
TORSDOF 4
ENDMDL
