MODEL 1
REMARK VINA RESULT:      -8.8      0.000      0.000
REMARK  0 active torsions:
REMARK  status: ('A' for Active; 'I' for Inactive)
ROOT
HETATM    1  N1  UNL     1      27.398  -0.243  54.347  1.00  0.00    -0.191 NA
HETATM    2  C1  UNL     1      26.292  -0.439  54.440  1.00  0.00     0.101 C 
HETATM    3  C2  UNL     1      24.925  -0.678  54.569  1.00  0.00     0.065 A 
HETATM    4  C3  UNL     1      24.082  -1.305  55.327  1.00  0.00     0.134 A 
HETATM    5  N2  UNL     1      22.807  -1.633  55.606  1.00  0.00    -0.284 NA
HETATM    6  C4  UNL     1      21.819  -1.209  54.875  1.00  0.00     0.112 A 
HETATM    7  C5  UNL     1      22.705  -0.472  53.963  1.00  0.00     0.075 A 
HETATM    8  C6  UNL     1      24.054  -0.083  53.610  1.00  0.00    -0.046 A 
HETATM    9  C7  UNL     1      24.478   0.791  52.411  1.00  0.00     0.066 C 
HETATM   10  C8  UNL     1      23.881   2.161  52.652  1.00  0.00     0.017 C 
HETATM   11  C9  UNL     1      22.781   2.781  52.208  1.00  0.00     0.116 C 
HETATM   12  F1  UNL     1      22.245   3.996  52.417  1.00  0.00    -0.209 F 
HETATM   13  C10 UNL     1      21.519   2.835  51.450  1.00  0.00     0.121 A 
HETATM   14 CL1  UNL     1      22.424   1.656  50.423  1.00  0.00    -0.193 Cl
HETATM   15  C11 UNL     1      20.518   2.515  50.693  1.00  0.00     0.127 A 
HETATM   16  C12 UNL     1      19.688   1.567  49.787  1.00  0.00     0.290 C 
HETATM   17  N3  UNL     1      18.451   1.199  50.430  1.00  0.00     0.085 N 
HETATM   18  C13 UNL     1      18.638  -0.035  51.296  1.00  0.00     0.280 C 
HETATM   19  C14 UNL     1      19.624   0.424  52.252  1.00  0.00     0.111 C 
HETATM   20  C15 UNL     1      20.396  -0.174  53.215  1.00  0.00    -0.166 C 
HETATM   21  C16 UNL     1      21.024  -0.642  53.965  1.00  0.00     0.073 A 
HETATM   22  H9  UNL     1      17.633   1.040  49.859  1.00  0.00     0.315 HD
ENDROOT
TORSDOF 0
ENDMDL
MODEL 2
REMARK VINA RESULT:      -8.8      3.064      4.969
REMARK  0 active torsions:
REMARK  status: ('A' for Active; 'I' for Inactive)
ROOT
HETATM    1  N1  UNL     1      22.139  -1.287  55.188  1.00  0.00    -0.191 NA
HETATM    2  C1  UNL     1      23.051  -0.937  54.624  1.00  0.00     0.101 C 
HETATM    3  C2  UNL     1      24.180  -0.518  53.924  1.00  0.00     0.065 A 
HETATM    4  C3  UNL     1      25.442  -0.785  53.800  1.00  0.00     0.134 A 
HETATM    5  N2  UNL     1      26.623  -0.518  53.213  1.00  0.00    -0.284 NA
HETATM    6  C4  UNL     1      26.745   0.421  52.323  1.00  0.00     0.112 A 
HETATM    7  C5  UNL     1      25.325   0.792  52.403  1.00  0.00     0.075 A 
HETATM    8  C6  UNL     1      24.026   0.554  52.997  1.00  0.00    -0.046 A 
HETATM    9  C7  UNL     1      22.723   1.326  52.704  1.00  0.00     0.066 C 
HETATM   10  C8  UNL     1      22.385   1.054  51.253  1.00  0.00     0.017 C 
HETATM   11  C9  UNL     1      22.577   1.733  50.116  1.00  0.00     0.116 C 
HETATM   12  F1  UNL     1      22.280   1.498  48.826  1.00  0.00    -0.209 F 
HETATM   13  C10 UNL     1      23.101   2.867  49.336  1.00  0.00     0.121 A 
HETATM   14 CL1  UNL     1      22.799   3.710  50.905  1.00  0.00    -0.193 Cl
HETATM   15  C11 UNL     1      23.678   3.980  49.009  1.00  0.00     0.127 A 
HETATM   16  C12 UNL     1      24.464   5.289  49.283  1.00  0.00     0.290 C 
HETATM   17  N3  UNL     1      25.789   5.218  48.720  1.00  0.00     0.085 N 
HETATM   18  C13 UNL     1      26.764   4.600  49.708  1.00  0.00     0.280 C 
HETATM   19  C14 UNL     1      26.192   3.285  49.902  1.00  0.00     0.111 C 
HETATM   20  C15 UNL     1      26.417   2.245  50.768  1.00  0.00    -0.166 C 
HETATM   21  C16 UNL     1      26.575   1.427  51.461  1.00  0.00     0.073 A 
HETATM   22  H9  UNL     1      26.216   6.063  48.370  1.00  0.00     0.315 HD
ENDROOT
TORSDOF 0
ENDMDL
MODEL 3
REMARK VINA RESULT:      -8.4      2.281      3.696
REMARK  0 active torsions:
REMARK  status: ('A' for Active; 'I' for Inactive)
ROOT
HETATM    1  N1  UNL     1      26.838   3.920  49.278  1.00  0.00    -0.191 NA
HETATM    2  C1  UNL     1      26.568   3.217  50.118  1.00  0.00     0.101 C 
HETATM    3  C2  UNL     1      26.244   2.356  51.164  1.00  0.00     0.065 A 
HETATM    4  C3  UNL     1      26.800   1.687  52.125  1.00  0.00     0.134 A 
HETATM    5  N2  UNL     1      26.669   0.858  53.176  1.00  0.00    -0.284 NA
HETATM    6  C4  UNL     1      25.508   0.414  53.553  1.00  0.00     0.112 A 
HETATM    7  C5  UNL     1      24.797   1.138  52.491  1.00  0.00     0.075 A 
HETATM    8  C6  UNL     1      24.869   2.029  51.351  1.00  0.00    -0.046 A 
HETATM    9  C7  UNL     1      23.689   2.516  50.485  1.00  0.00     0.066 C 
HETATM   10  C8  UNL     1      22.811   3.349  51.394  1.00  0.00     0.017 C 
HETATM   11  C9  UNL     1      21.689   3.098  52.080  1.00  0.00     0.116 C 
HETATM   12  F1  UNL     1      20.904   3.832  52.887  1.00  0.00    -0.209 F 
HETATM   13  C10 UNL     1      20.614   2.214  52.560  1.00  0.00     0.121 A 
HETATM   14 CL1  UNL     1      20.954   1.419  50.975  1.00  0.00    -0.193 Cl
HETATM   15  C11 UNL     1      19.865   1.176  52.762  1.00  0.00     0.127 A 
HETATM   16  C12 UNL     1      19.449  -0.311  52.600  1.00  0.00     0.290 C 
HETATM   17  N3  UNL     1      19.613  -1.025  53.841  1.00  0.00     0.085 N 
HETATM   18  C13 UNL     1      21.020  -1.585  53.961  1.00  0.00     0.280 C 
HETATM   19  C14 UNL     1      21.820  -0.379  53.927  1.00  0.00     0.111 C 
HETATM   20  C15 UNL     1      23.160  -0.105  53.816  1.00  0.00    -0.166 C 
HETATM   21  C16 UNL     1      24.214   0.122  53.708  1.00  0.00     0.073 A 
HETATM   22  H9  UNL     1      18.974  -1.776  54.059  1.00  0.00     0.315 HD
ENDROOT
TORSDOF 0
ENDMDL
MODEL 4
REMARK VINA RESULT:      -8.3      2.758      4.508
REMARK  0 active torsions:
REMARK  status: ('A' for Active; 'I' for Inactive)
ROOT
HETATM    1  N1  UNL     1      22.170  -1.717  55.304  1.00  0.00    -0.191 NA
HETATM    2  C1  UNL     1      22.948  -1.156  54.711  1.00  0.00     0.101 C 
HETATM    3  C2  UNL     1      23.916  -0.475  53.977  1.00  0.00     0.065 A 
HETATM    4  C3  UNL     1      25.203  -0.384  53.851  1.00  0.00     0.134 A 
HETATM    5  N2  UNL     1      26.263   0.171  53.236  1.00  0.00    -0.284 NA
HETATM    6  C4  UNL     1      26.119   1.058  52.297  1.00  0.00     0.112 A 
HETATM    7  C5  UNL     1      24.652   1.020  52.376  1.00  0.00     0.075 A 
HETATM    8  C6  UNL     1      23.470   0.460  52.997  1.00  0.00    -0.046 A 
HETATM    9  C7  UNL     1      22.004   0.820  52.681  1.00  0.00     0.066 C 
HETATM   10  C8  UNL     1      21.760   0.388  51.251  1.00  0.00     0.017 C 
HETATM   11  C9  UNL     1      21.757   1.032  50.078  1.00  0.00     0.116 C 
HETATM   12  F1  UNL     1      21.540   0.656  48.806  1.00  0.00    -0.209 F 
HETATM   13  C10 UNL     1      21.944   2.225  49.234  1.00  0.00     0.121 A 
HETATM   14 CL1  UNL     1      21.413   3.031  50.761  1.00  0.00    -0.193 Cl
HETATM   15  C11 UNL     1      22.187   3.436  48.843  1.00  0.00     0.127 A 
HETATM   16  C12 UNL     1      22.573   4.926  49.040  1.00  0.00     0.290 C 
HETATM   17  N3  UNL     1      23.867   5.199  48.465  1.00  0.00     0.085 N 
HETATM   18  C13 UNL     1      24.973   4.932  49.471  1.00  0.00     0.280 C 
HETATM   19  C14 UNL     1      24.792   3.520  49.739  1.00  0.00     0.111 C 
HETATM   20  C15 UNL     1      25.298   2.633  50.655  1.00  0.00    -0.166 C 
HETATM   21  C16 UNL     1      25.677   1.929  51.387  1.00  0.00     0.073 A 
HETATM   22  H9  UNL     1      24.041   6.110  48.066  1.00  0.00     0.315 HD
ENDROOT
TORSDOF 0
ENDMDL
MODEL 5
REMARK VINA RESULT:      -8.1      2.898      5.796
REMARK  0 active torsions:
REMARK  status: ('A' for Active; 'I' for Inactive)
ROOT
HETATM    1  N1  UNL     1      24.046   5.167  48.735  1.00  0.00    -0.191 NA
HETATM    2  C1  UNL     1      23.540   4.288  49.228  1.00  0.00     0.101 C 
HETATM    3  C2  UNL     1      22.912   3.196  49.822  1.00  0.00     0.065 A 
HETATM    4  C3  UNL     1      21.830   2.488  49.734  1.00  0.00     0.134 A 
HETATM    5  N2  UNL     1      21.088   1.458  50.182  1.00  0.00    -0.284 NA
HETATM    6  C4  UNL     1      21.489   0.705  51.162  1.00  0.00     0.112 A 
HETATM    7  C5  UNL     1      22.741   1.455  51.332  1.00  0.00     0.075 A 
HETATM    8  C6  UNL     1      23.587   2.547  50.898  1.00  0.00    -0.046 A 
HETATM    9  C7  UNL     1      24.949   2.953  51.496  1.00  0.00     0.066 C 
HETATM   10  C8  UNL     1      25.889   1.794  51.236  1.00  0.00     0.017 C 
HETATM   11  C9  UNL     1      26.315   0.765  51.977  1.00  0.00     0.116 C 
HETATM   12  F1  UNL     1      27.149  -0.265  51.754  1.00  0.00    -0.209 F 
HETATM   13  C10 UNL     1      26.331  -0.054  53.201  1.00  0.00     0.121 A 
HETATM   14 CL1  UNL     1      25.960   1.554  53.935  1.00  0.00    -0.193 Cl
HETATM   15  C11 UNL     1      26.089  -0.499  54.394  1.00  0.00     0.127 A 
HETATM   16  C12 UNL     1      25.405  -0.485  55.787  1.00  0.00     0.290 C 
HETATM   17  N3  UNL     1      24.490  -1.592  55.918  1.00  0.00     0.085 N 
HETATM   18  C13 UNL     1      23.111  -1.218  55.401  1.00  0.00     0.280 C 
HETATM   19  C14 UNL     1      23.390  -0.914  54.013  1.00  0.00     0.111 C 
HETATM   20  C15 UNL     1      22.684  -0.349  52.982  1.00  0.00    -0.166 C 
HETATM   21  C16 UNL     1      22.140   0.115  52.167  1.00  0.00     0.073 A 
HETATM   22  H9  UNL     1      24.363  -2.015  56.826  1.00  0.00     0.315 HD
ENDROOT
TORSDOF 0
ENDMDL
MODEL 6
REMARK VINA RESULT:      -8.0      1.894      2.314
REMARK  0 active torsions:
REMARK  status: ('A' for Active; 'I' for Inactive)
ROOT
HETATM    1  N1  UNL     1      27.189  -0.054  55.020  1.00  0.00    -0.191 NA
HETATM    2  C1  UNL     1      26.156  -0.139  54.576  1.00  0.00     0.101 C 
HETATM    3  C2  UNL     1      24.873  -0.243  54.043  1.00  0.00     0.065 A 
HETATM    4  C3  UNL     1      23.770  -0.905  54.198  1.00  0.00     0.134 A 
HETATM    5  N2  UNL     1      22.501  -1.135  53.815  1.00  0.00    -0.284 NA
HETATM    6  C4  UNL     1      21.953  -0.471  52.842  1.00  0.00     0.112 A 
HETATM    7  C5  UNL     1      23.163   0.324  52.595  1.00  0.00     0.075 A 
HETATM    8  C6  UNL     1      24.533   0.620  52.960  1.00  0.00    -0.046 A 
HETATM    9  C7  UNL     1      25.462   1.654  52.292  1.00  0.00     0.066 C 
HETATM   10  C8  UNL     1      24.841   3.011  52.547  1.00  0.00     0.017 C 
HETATM   11  C9  UNL     1      24.066   3.824  51.820  1.00  0.00     0.116 C 
HETATM   12  F1  UNL     1      23.511   5.029  52.039  1.00  0.00    -0.209 F 
HETATM   13  C10 UNL     1      23.279   4.165  50.622  1.00  0.00     0.121 A 
HETATM   14 CL1  UNL     1      24.531   3.112  49.857  1.00  0.00    -0.193 Cl
HETATM   15  C11 UNL     1      22.719   4.111  49.456  1.00  0.00     0.127 A 
HETATM   16  C12 UNL     1      22.370   3.455  48.093  1.00  0.00     0.290 C 
HETATM   17  N3  UNL     1      20.971   3.111  48.035  1.00  0.00     0.085 N 
HETATM   18  C13 UNL     1      20.732   1.721  48.598  1.00  0.00     0.280 C 
HETATM   19  C14 UNL     1      21.191   1.874  49.963  1.00  0.00     0.111 C 
HETATM   20  C15 UNL     1      21.440   1.018  51.005  1.00  0.00    -0.166 C 
HETATM   21  C16 UNL     1      21.658   0.347  51.829  1.00  0.00     0.073 A 
HETATM   22  H9  UNL     1      20.494   3.159  47.146  1.00  0.00     0.315 HD
ENDROOT
TORSDOF 0
ENDMDL
MODEL 7
REMARK VINA RESULT:      -8.0      2.509      6.353
REMARK  0 active torsions:
REMARK  status: ('A' for Active; 'I' for Inactive)
ROOT
HETATM    1  N1  UNL     1      18.648  -0.512  52.164  1.00  0.00    -0.191 NA
HETATM    2  C1  UNL     1      19.461   0.266  52.235  1.00  0.00     0.101 C 
HETATM    3  C2  UNL     1      20.456   1.237  52.331  1.00  0.00     0.065 A 
HETATM    4  C3  UNL     1      20.615   2.522  52.278  1.00  0.00     0.134 A 
HETATM    5  N2  UNL     1      21.439   3.584  52.349  1.00  0.00    -0.284 NA
HETATM    6  C4  UNL     1      22.713   3.445  52.567  1.00  0.00     0.112 A 
HETATM    7  C5  UNL     1      22.622   1.980  52.639  1.00  0.00     0.075 A 
HETATM    8  C6  UNL     1      21.790   0.797  52.575  1.00  0.00    -0.046 A 
HETATM    9  C7  UNL     1      22.256  -0.667  52.720  1.00  0.00     0.066 C 
HETATM   10  C8  UNL     1      22.778  -0.808  54.133  1.00  0.00     0.017 C 
HETATM   11  C9  UNL     1      24.003  -0.780  54.673  1.00  0.00     0.116 C 
HETATM   12  F1  UNL     1      24.474  -0.906  55.926  1.00  0.00    -0.209 F 
HETATM   13  C10 UNL     1      25.464  -0.611  54.606  1.00  0.00     0.121 A 
HETATM   14 CL1  UNL     1      25.173  -1.266  52.949  1.00  0.00    -0.193 Cl
HETATM   15  C11 UNL     1      26.666  -0.411  54.165  1.00  0.00     0.127 A 
HETATM   16  C12 UNL     1      27.733  -0.115  53.078  1.00  0.00     0.290 C 
HETATM   17  N3  UNL     1      28.310   1.192  53.270  1.00  0.00     0.085 N 
HETATM   18  C13 UNL     1      27.497   2.254  52.550  1.00  0.00     0.280 C 
HETATM   19  C14 UNL     1      26.211   2.133  53.205  1.00  0.00     0.111 C 
HETATM   20  C15 UNL     1      24.954   2.634  52.978  1.00  0.00    -0.166 C 
HETATM   21  C16 UNL     1      23.953   3.008  52.795  1.00  0.00     0.073 A 
HETATM   22  H9  UNL     1      29.278   1.339  53.021  1.00  0.00     0.315 HD
ENDROOT
TORSDOF 0
ENDMDL
MODEL 8
REMARK VINA RESULT:      -7.9      2.524      5.802
REMARK  0 active torsions:
REMARK  status: ('A' for Active; 'I' for Inactive)
ROOT
HETATM    1  N1  UNL     1      21.592   6.775  50.851  1.00  0.00    -0.191 NA
HETATM    2  C1  UNL     1      21.411   5.712  51.182  1.00  0.00     0.101 C 
HETATM    3  C2  UNL     1      21.179   4.397  51.579  1.00  0.00     0.065 A 
HETATM    4  C3  UNL     1      20.233   3.513  51.627  1.00  0.00     0.134 A 
HETATM    5  N2  UNL     1      19.835   2.267  51.947  1.00  0.00    -0.284 NA
HETATM    6  C4  UNL     1      20.656   1.403  52.465  1.00  0.00     0.112 A 
HETATM    7  C5  UNL     1      21.784   2.344  52.450  1.00  0.00     0.075 A 
HETATM    8  C6  UNL     1      22.275   3.667  52.128  1.00  0.00    -0.046 A 
HETATM    9  C7  UNL     1      23.704   4.201  52.354  1.00  0.00     0.066 C 
HETATM   10  C8  UNL     1      24.610   3.378  51.464  1.00  0.00     0.017 C 
HETATM   11  C9  UNL     1      25.398   2.317  51.675  1.00  0.00     0.116 C 
HETATM   12  F1  UNL     1      26.206   1.583  50.891  1.00  0.00    -0.209 F 
HETATM   13  C10 UNL     1      25.961   1.246  52.514  1.00  0.00     0.121 A 
HETATM   14 CL1  UNL     1      25.699   2.501  53.786  1.00  0.00    -0.193 Cl
HETATM   15  C11 UNL     1      26.230   0.479  53.523  1.00  0.00     0.127 A 
HETATM   16  C12 UNL     1      26.111  -0.003  54.994  1.00  0.00     0.290 C 
HETATM   17  N3  UNL     1      25.447  -1.280  55.061  1.00  0.00     0.085 N 
HETATM   18  C13 UNL     1      23.941  -1.103  55.153  1.00  0.00     0.280 C 
HETATM   19  C14 UNL     1      23.651  -0.412  53.915  1.00  0.00     0.111 C 
HETATM   20  C15 UNL     1      22.553   0.221  53.390  1.00  0.00    -0.166 C 
HETATM   21  C16 UNL     1      21.696   0.741  52.976  1.00  0.00     0.073 A 
HETATM   22  H9  UNL     1      25.715  -1.931  55.785  1.00  0.00     0.315 HD
ENDROOT
TORSDOF 0
ENDMDL
MODEL 9
REMARK VINA RESULT:      -7.7      2.191      5.714
REMARK  0 active torsions:
REMARK  status: ('A' for Active; 'I' for Inactive)
ROOT
HETATM    1  N1  UNL     1      18.967   3.303  51.958  1.00  0.00    -0.191 NA
HETATM    2  C1  UNL     1      19.674   2.474  52.249  1.00  0.00     0.101 C 
HETATM    3  C2  UNL     1      20.540   1.441  52.601  1.00  0.00     0.065 A 
HETATM    4  C3  UNL     1      20.526   0.192  52.948  1.00  0.00     0.134 A 
HETATM    5  N2  UNL     1      21.210  -0.912  53.299  1.00  0.00    -0.284 NA
HETATM    6  C4  UNL     1      22.507  -0.913  53.382  1.00  0.00     0.112 A 
HETATM    7  C5  UNL     1      22.613   0.501  52.998  1.00  0.00     0.075 A 
HETATM    8  C6  UNL     1      21.937   1.723  52.614  1.00  0.00    -0.046 A 
HETATM    9  C7  UNL     1      22.597   3.081  52.300  1.00  0.00     0.066 C 
HETATM   10  C8  UNL     1      23.442   2.867  51.063  1.00  0.00     0.017 C 
HETATM   11  C9  UNL     1      24.745   2.635  50.862  1.00  0.00     0.116 C 
HETATM   12  F1  UNL     1      25.503   2.445  49.768  1.00  0.00    -0.209 F 
HETATM   13  C10 UNL     1      26.121   2.385  51.325  1.00  0.00     0.121 A 
HETATM   14 CL1  UNL     1      25.540   3.413  52.691  1.00  0.00    -0.193 Cl
HETATM   15  C11 UNL     1      27.157   2.206  52.082  1.00  0.00     0.127 A 
HETATM   16  C12 UNL     1      27.903   2.088  53.438  1.00  0.00     0.290 C 
HETATM   17  N3  UNL     1      28.347   0.735  53.661  1.00  0.00     0.085 N 
HETATM   18  C13 UNL     1      27.268  -0.080  54.353  1.00  0.00     0.280 C 
HETATM   19  C14 UNL     1      26.190  -0.021  53.387  1.00  0.00     0.111 C 
HETATM   20  C15 UNL     1      24.864  -0.371  53.389  1.00  0.00    -0.166 C 
HETATM   21  C16 UNL     1      23.810  -0.625  53.388  1.00  0.00     0.073 A 
HETATM   22  H9  UNL     1      29.206   0.581  54.168  1.00  0.00     0.315 HD
ENDROOT
TORSDOF 0
ENDMDL
