MODEL 1
REMARK VINA RESULT:      -7.0      0.000      0.000
REMARK  6 active torsions:
REMARK  status: ('A' for Active; 'I' for Inactive)
REMARK    1  A    between atoms: O1_2  and  C2_3 
REMARK    2  A    between atoms: C5_6  and  C6_7 
REMARK    3  A    between atoms: C6_7  and  C7_8 
REMARK    4  A    between atoms: C7_8  and  O2_9 
REMARK    5  A    between atoms: O2_9  and  C8_10 
REMARK    6  A    between atoms: C15_18  and  O3_19 
ROOT
HETATM    1  C2  UNL     1      26.478   1.184  54.125  1.00  0.00     0.097 A 
HETATM    2  C3  UNL     1      25.894   2.355  53.936  1.00  0.00     0.013 A 
HETATM    3  C4  UNL     1      24.617   2.730  53.239  1.00  0.00     0.038 A 
HETATM    4  C5  UNL     1      23.913   1.542  52.671  1.00  0.00     0.016 A 
HETATM    5  C14 UNL     1      24.656   0.279  52.940  1.00  0.00     0.018 A 
HETATM    6  C15 UNL     1      25.795   0.022  53.574  1.00  0.00     0.097 A 
ENDROOT
BRANCH   4   7
HETATM    7  C6  UNL     1      23.630   1.695  51.182  1.00  0.00     0.035 C 
BRANCH   7   8
HETATM    8  C7  UNL     1      24.129   3.052  50.756  1.00  0.00     0.176 C 
BRANCH   8   9
HETATM    9  O2  UNL     1      25.247   2.951  49.879  1.00  0.00    -0.351 OA
BRANCH   9  10
HETATM   10  C8  UNL     1      25.763   4.135  49.378  1.00  0.00     0.070 A 
HETATM   11  C9  UNL     1      24.850   5.165  49.200  1.00  0.00     0.037 A 
HETATM   12  C10 UNL     1      25.326   6.361  48.703  1.00  0.00     0.004 A 
HETATM   13  C11 UNL     1      26.657   6.583  48.375  1.00  0.00     0.019 A 
HETATM   14  C12 UNL     1      27.511   5.515  48.578  1.00  0.00     0.013 A 
HETATM   15 BR1  UNL     1      29.363   5.688  48.169  1.00  0.00    -0.051 Br
HETATM   16  C13 UNL     1      27.099   4.310  49.066  1.00  0.00     0.055 A 
ENDBRANCH   9  10
ENDBRANCH   8   9
ENDBRANCH   7   8
ENDBRANCH   4   7
BRANCH   6  17
HETATM   17  O3  UNL     1      26.204  -1.300  53.641  1.00  0.00    -0.353 OA
HETATM   18  C16 UNL     1      26.921  -1.905  52.578  1.00  0.00     0.210 C 
ENDBRANCH   6  17
BRANCH   1  19
HETATM   19  O1  UNL     1      27.680   0.922  54.794  1.00  0.00    -0.353 OA
HETATM   20  C1  UNL     1      28.902   0.923  54.080  1.00  0.00     0.210 C 
ENDBRANCH   1  19
TORSDOF 6
ENDMDL
MODEL 2
REMARK VINA RESULT:      -7.0      1.653      2.443
REMARK  6 active torsions:
REMARK  status: ('A' for Active; 'I' for Inactive)
REMARK    1  A    between atoms: O1_2  and  C2_3 
REMARK    2  A    between atoms: C5_6  and  C6_7 
REMARK    3  A    between atoms: C6_7  and  C7_8 
REMARK    4  A    between atoms: C7_8  and  O2_9 
REMARK    5  A    between atoms: O2_9  and  C8_10 
REMARK    6  A    between atoms: C15_18  and  O3_19 
ROOT
HETATM    1  C2  UNL     1      25.429  -0.487  53.965  1.00  0.00     0.097 A 
HETATM    2  C3  UNL     1      24.553   0.230  53.282  1.00  0.00     0.013 A 
HETATM    3  C4  UNL     1      24.713   1.110  52.075  1.00  0.00     0.038 A 
HETATM    4  C5  UNL     1      26.125   1.157  51.593  1.00  0.00     0.016 A 
HETATM    5  C14 UNL     1      27.024   0.318  52.433  1.00  0.00     0.018 A 
HETATM    6  C15 UNL     1      26.808  -0.444  53.500  1.00  0.00     0.097 A 
ENDROOT
BRANCH   4   7
HETATM    7  C6  UNL     1      26.654   2.583  51.494  1.00  0.00     0.035 C 
BRANCH   7   8
HETATM    8  C7  UNL     1      26.195   3.153  50.176  1.00  0.00     0.176 C 
BRANCH   8   9
HETATM    9  O2  UNL     1      27.295   3.507  49.343  1.00  0.00    -0.351 OA
BRANCH   9  10
HETATM   10  C8  UNL     1      27.321   4.801  48.851  1.00  0.00     0.070 A 
HETATM   11  C9  UNL     1      26.114   5.487  48.888  1.00  0.00     0.037 A 
HETATM   12  C10 UNL     1      26.099   6.779  48.407  1.00  0.00     0.004 A 
HETATM   13  C11 UNL     1      27.216   7.422  47.892  1.00  0.00     0.019 A 
HETATM   14  C12 UNL     1      28.384   6.682  47.884  1.00  0.00     0.013 A 
HETATM   15 BR1  UNL     1      29.990   7.446  47.205  1.00  0.00    -0.051 Br
HETATM   16  C13 UNL     1      28.460   5.401  48.346  1.00  0.00     0.055 A 
ENDBRANCH   9  10
ENDBRANCH   8   9
ENDBRANCH   7   8
ENDBRANCH   4   7
BRANCH   6  17
HETATM   17  O3  UNL     1      27.896  -1.104  54.045  1.00  0.00    -0.353 OA
HETATM   18  C16 UNL     1      29.219  -0.821  53.619  1.00  0.00     0.210 C 
ENDBRANCH   6  17
BRANCH   1  19
HETATM   19  O1  UNL     1      25.192  -1.287  55.091  1.00  0.00    -0.353 OA
HETATM   20  C1  UNL     1      23.902  -1.326  55.671  1.00  0.00     0.210 C 
ENDBRANCH   1  19
TORSDOF 6
ENDMDL
MODEL 3
REMARK VINA RESULT:      -6.7      4.377      6.328
REMARK  6 active torsions:
REMARK  status: ('A' for Active; 'I' for Inactive)
REMARK    1  A    between atoms: O1_2  and  C2_3 
REMARK    2  A    between atoms: C5_6  and  C6_7 
REMARK    3  A    between atoms: C6_7  and  C7_8 
REMARK    4  A    between atoms: C7_8  and  O2_9 
REMARK    5  A    between atoms: O2_9  and  C8_10 
REMARK    6  A    between atoms: C15_18  and  O3_19 
ROOT
HETATM    1  C2  UNL     1      27.210  -0.386  53.210  1.00  0.00     0.097 A 
HETATM    2  C3  UNL     1      27.155   0.343  52.109  1.00  0.00     0.013 A 
HETATM    3  C4  UNL     1      26.461   1.642  51.809  1.00  0.00     0.038 A 
HETATM    4  C5  UNL     1      25.712   2.168  52.988  1.00  0.00     0.016 A 
HETATM    5  C14 UNL     1      25.841   1.270  54.170  1.00  0.00     0.018 A 
HETATM    6  C15 UNL     1      26.482   0.122  54.363  1.00  0.00     0.097 A 
ENDROOT
BRANCH   4   7
HETATM    7  C6  UNL     1      24.246   2.434  52.670  1.00  0.00     0.035 C 
BRANCH   7   8
HETATM    8  C7  UNL     1      23.804   1.415  51.650  1.00  0.00     0.176 C 
BRANCH   8   9
HETATM    9  O2  UNL     1      22.385   1.313  51.588  1.00  0.00    -0.351 OA
BRANCH   9  10
HETATM   10  C8  UNL     1      21.784   0.378  52.414  1.00  0.00     0.070 A 
HETATM   11  C9  UNL     1      22.636  -0.312  53.266  1.00  0.00     0.037 A 
HETATM   12  C10 UNL     1      22.075  -1.252  54.106  1.00  0.00     0.004 A 
HETATM   13  C11 UNL     1      20.718  -1.541  54.139  1.00  0.00     0.019 A 
HETATM   14  C12 UNL     1      19.928  -0.819  53.265  1.00  0.00     0.013 A 
HETATM   15 BR1  UNL     1      18.048  -1.118  53.211  1.00  0.00    -0.051 Br
HETATM   16  C13 UNL     1      20.425   0.123  52.412  1.00  0.00     0.055 A 
ENDBRANCH   9  10
ENDBRANCH   8   9
ENDBRANCH   7   8
ENDBRANCH   4   7
BRANCH   6  17
HETATM   17  O3  UNL     1      26.389  -0.457  55.617  1.00  0.00    -0.353 OA
HETATM   18  C16 UNL     1      25.148  -0.914  56.129  1.00  0.00     0.210 C 
ENDBRANCH   6  17
BRANCH   1  19
HETATM   19  O1  UNL     1      27.888  -1.597  53.404  1.00  0.00    -0.353 OA
HETATM   20  C1  UNL     1      29.302  -1.620  53.427  1.00  0.00     0.210 C 
ENDBRANCH   1  19
TORSDOF 6
ENDMDL
MODEL 4
REMARK VINA RESULT:      -6.7      1.720      2.489
REMARK  6 active torsions:
REMARK  status: ('A' for Active; 'I' for Inactive)
REMARK    1  A    between atoms: O1_2  and  C2_3 
REMARK    2  A    between atoms: C5_6  and  C6_7 
REMARK    3  A    between atoms: C6_7  and  C7_8 
REMARK    4  A    between atoms: C7_8  and  O2_9 
REMARK    5  A    between atoms: O2_9  and  C8_10 
REMARK    6  A    between atoms: C15_18  and  O3_19 
ROOT
HETATM    1  C2  UNL     1      26.698  -1.053  52.925  1.00  0.00     0.097 A 
HETATM    2  C3  UNL     1      26.975  -0.213  51.943  1.00  0.00     0.013 A 
HETATM    3  C4  UNL     1      26.453   1.161  51.632  1.00  0.00     0.038 A 
HETATM    4  C5  UNL     1      25.446   1.623  52.632  1.00  0.00     0.016 A 
HETATM    5  C14 UNL     1      25.210   0.602  53.690  1.00  0.00     0.018 A 
HETATM    6  C15 UNL     1      25.717  -0.608  53.903  1.00  0.00     0.097 A 
ENDROOT
BRANCH   4   7
HETATM    7  C6  UNL     1      24.133   2.038  51.980  1.00  0.00     0.035 C 
BRANCH   7   8
HETATM    8  C7  UNL     1      24.282   3.464  51.512  1.00  0.00     0.176 C 
BRANCH   8   9
HETATM    9  O2  UNL     1      24.291   3.554  50.091  1.00  0.00    -0.351 OA
BRANCH   9  10
HETATM   10  C8  UNL     1      25.238   4.387  49.519  1.00  0.00     0.070 A 
HETATM   11  C9  UNL     1      26.517   3.859  49.403  1.00  0.00     0.037 A 
HETATM   12  C10 UNL     1      27.489   4.658  48.838  1.00  0.00     0.004 A 
HETATM   13  C11 UNL     1      27.257   5.949  48.386  1.00  0.00     0.019 A 
HETATM   14  C12 UNL     1      25.963   6.413  48.533  1.00  0.00     0.013 A 
HETATM   15 BR1  UNL     1      25.509   8.169  47.952  1.00  0.00    -0.051 Br
HETATM   16  C13 UNL     1      24.960   5.670  49.083  1.00  0.00     0.055 A 
ENDBRANCH   9  10
ENDBRANCH   8   9
ENDBRANCH   7   8
ENDBRANCH   4   7
BRANCH   6  17
HETATM   17  O3  UNL     1      25.264  -1.304  55.012  1.00  0.00    -0.353 OA
HETATM   18  C16 UNL     1      23.895  -1.300  55.377  1.00  0.00     0.210 C 
ENDBRANCH   6  17
BRANCH   1  19
HETATM   19  O1  UNL     1      27.237  -2.329  53.141  1.00  0.00    -0.353 OA
HETATM   20  C1  UNL     1      28.639  -2.516  53.122  1.00  0.00     0.210 C 
ENDBRANCH   1  19
TORSDOF 6
ENDMDL
MODEL 5
REMARK VINA RESULT:      -6.5      2.824      3.956
REMARK  6 active torsions:
REMARK  status: ('A' for Active; 'I' for Inactive)
REMARK    1  A    between atoms: O1_2  and  C2_3 
REMARK    2  A    between atoms: C5_6  and  C6_7 
REMARK    3  A    between atoms: C6_7  and  C7_8 
REMARK    4  A    between atoms: C7_8  and  O2_9 
REMARK    5  A    between atoms: O2_9  and  C8_10 
REMARK    6  A    between atoms: C15_18  and  O3_19 
ROOT
HETATM    1  C2  UNL     1      25.625  -0.472  54.061  1.00  0.00     0.097 A 
HETATM    2  C3  UNL     1      24.756   0.138  53.273  1.00  0.00     0.013 A 
HETATM    3  C4  UNL     1      24.949   1.000  52.058  1.00  0.00     0.038 A 
HETATM    4  C5  UNL     1      26.390   1.175  51.712  1.00  0.00     0.016 A 
HETATM    5  C14 UNL     1      27.278   0.449  52.662  1.00  0.00     0.018 A 
HETATM    6  C15 UNL     1      27.032  -0.305  53.728  1.00  0.00     0.097 A 
ENDROOT
BRANCH   4   7
HETATM    7  C6  UNL     1      26.787   2.643  51.616  1.00  0.00     0.035 C 
BRANCH   7   8
HETATM    8  C7  UNL     1      26.484   3.110  50.215  1.00  0.00     0.176 C 
BRANCH   8   9
HETATM    9  O2  UNL     1      25.570   4.202  50.210  1.00  0.00    -0.351 OA
BRANCH   9  10
HETATM   10  C8  UNL     1      24.227   3.899  50.363  1.00  0.00     0.070 A 
HETATM   11  C9  UNL     1      23.588   4.510  51.433  1.00  0.00     0.037 A 
HETATM   12  C10 UNL     1      22.249   4.234  51.619  1.00  0.00     0.004 A 
HETATM   13  C11 UNL     1      21.517   3.385  50.800  1.00  0.00     0.019 A 
HETATM   14  C12 UNL     1      22.216   2.811  49.754  1.00  0.00     0.013 A 
HETATM   15 BR1  UNL     1      21.329   1.627  48.554  1.00  0.00    -0.051 Br
HETATM   16  C13 UNL     1      23.539   3.046  49.520  1.00  0.00     0.055 A 
ENDBRANCH   9  10
ENDBRANCH   8   9
ENDBRANCH   7   8
ENDBRANCH   4   7
BRANCH   6  17
HETATM   17  O3  UNL     1      28.120  -0.840  54.397  1.00  0.00    -0.353 OA
HETATM   18  C16 UNL     1      29.447  -0.587  53.968  1.00  0.00     0.210 C 
ENDBRANCH   6  17
BRANCH   1  19
HETATM   19  O1  UNL     1      25.355  -1.264  55.185  1.00  0.00    -0.353 OA
HETATM   20  C1  UNL     1      24.047  -1.310  55.721  1.00  0.00     0.210 C 
ENDBRANCH   1  19
TORSDOF 6
ENDMDL
MODEL 6
REMARK VINA RESULT:      -6.4      2.062      3.455
REMARK  6 active torsions:
REMARK  status: ('A' for Active; 'I' for Inactive)
REMARK    1  A    between atoms: O1_2  and  C2_3 
REMARK    2  A    between atoms: C5_6  and  C6_7 
REMARK    3  A    between atoms: C6_7  and  C7_8 
REMARK    4  A    between atoms: C7_8  and  O2_9 
REMARK    5  A    between atoms: O2_9  and  C8_10 
REMARK    6  A    between atoms: C15_18  and  O3_19 
ROOT
HETATM    1  C2  UNL     1      23.323  -0.432  53.231  1.00  0.00     0.097 A 
HETATM    2  C3  UNL     1      24.530  -0.774  53.647  1.00  0.00     0.013 A 
HETATM    3  C4  UNL     1      25.855  -0.073  53.542  1.00  0.00     0.038 A 
HETATM    4  C5  UNL     1      25.746   1.238  52.836  1.00  0.00     0.016 A 
HETATM    5  C14 UNL     1      24.347   1.522  52.411  1.00  0.00     0.018 A 
HETATM    6  C15 UNL     1      23.211   0.846  52.542  1.00  0.00     0.097 A 
ENDROOT
BRANCH   4   7
HETATM    7  C6  UNL     1      26.700   1.337  51.652  1.00  0.00     0.035 C 
BRANCH   7   8
HETATM    8  C7  UNL     1      26.749   2.781  51.221  1.00  0.00     0.176 C 
BRANCH   8   9
HETATM    9  O2  UNL     1      26.795   2.905  49.803  1.00  0.00    -0.351 OA
BRANCH   9  10
HETATM   10  C8  UNL     1      26.690   4.184  49.279  1.00  0.00     0.070 A 
HETATM   11  C9  UNL     1      25.422   4.747  49.312  1.00  0.00     0.037 A 
HETATM   12  C10 UNL     1      25.276   6.020  48.801  1.00  0.00     0.004 A 
HETATM   13  C11 UNL     1      26.320   6.757  48.260  1.00  0.00     0.019 A 
HETATM   14  C12 UNL     1      27.555   6.135  48.259  1.00  0.00     0.013 A 
HETATM   15 BR1  UNL     1      29.074   7.037  47.545  1.00  0.00    -0.051 Br
HETATM   16  C13 UNL     1      27.761   4.880  48.750  1.00  0.00     0.055 A 
ENDBRANCH   9  10
ENDBRANCH   8   9
ENDBRANCH   7   8
ENDBRANCH   4   7
BRANCH   6  17
HETATM   17  O3  UNL     1      22.063   1.417  52.018  1.00  0.00    -0.353 OA
HETATM   18  C16 UNL     1      21.552   1.022  50.756  1.00  0.00     0.210 C 
ENDBRANCH   6  17
BRANCH   1  19
HETATM   19  O1  UNL     1      22.130  -1.153  53.373  1.00  0.00    -0.353 OA
HETATM   20  C1  UNL     1      21.379  -1.050  54.568  1.00  0.00     0.210 C 
ENDBRANCH   1  19
TORSDOF 6
ENDMDL
MODEL 7
REMARK VINA RESULT:      -6.4      2.592      4.220
REMARK  6 active torsions:
REMARK  status: ('A' for Active; 'I' for Inactive)
REMARK    1  A    between atoms: O1_2  and  C2_3 
REMARK    2  A    between atoms: C5_6  and  C6_7 
REMARK    3  A    between atoms: C6_7  and  C7_8 
REMARK    4  A    between atoms: C7_8  and  O2_9 
REMARK    5  A    between atoms: O2_9  and  C8_10 
REMARK    6  A    between atoms: C15_18  and  O3_19 
ROOT
HETATM    1  C2  UNL     1      22.553   0.955  52.917  1.00  0.00     0.097 A 
HETATM    2  C3  UNL     1      23.372  -0.058  53.141  1.00  0.00     0.013 A 
HETATM    3  C4  UNL     1      24.872  -0.132  53.193  1.00  0.00     0.038 A 
HETATM    4  C5  UNL     1      25.513   1.192  52.943  1.00  0.00     0.016 A 
HETATM    5  C14 UNL     1      24.501   2.259  52.703  1.00  0.00     0.018 A 
HETATM    6  C15 UNL     1      23.173   2.250  52.673  1.00  0.00     0.097 A 
ENDROOT
BRANCH   4   7
HETATM    7  C6  UNL     1      26.522   1.139  51.803  1.00  0.00     0.035 C 
BRANCH   7   8
HETATM    8  C7  UNL     1      26.811   2.557  51.378  1.00  0.00     0.176 C 
BRANCH   8   9
HETATM    9  O2  UNL     1      26.802   2.694  49.960  1.00  0.00    -0.351 OA
BRANCH   9  10
HETATM   10  C8  UNL     1      26.488   3.944  49.452  1.00  0.00     0.070 A 
HETATM   11  C9  UNL     1      27.548   4.659  48.912  1.00  0.00     0.037 A 
HETATM   12  C10 UNL     1      27.277   5.909  48.394  1.00  0.00     0.004 A 
HETATM   13  C11 UNL     1      26.012   6.481  48.386  1.00  0.00     0.019 A 
HETATM   14  C12 UNL     1      25.003   5.714  48.939  1.00  0.00     0.013 A 
HETATM   15 BR1  UNL     1      23.220   6.381  48.991  1.00  0.00    -0.051 Br
HETATM   16  C13 UNL     1      25.211   4.473  49.466  1.00  0.00     0.055 A 
ENDBRANCH   9  10
ENDBRANCH   8   9
ENDBRANCH   7   8
ENDBRANCH   4   7
BRANCH   6  17
HETATM   17  O3  UNL     1      22.532   3.450  52.416  1.00  0.00    -0.353 OA
HETATM   18  C16 UNL     1      23.233   4.682  52.446  1.00  0.00     0.210 C 
ENDBRANCH   6  17
BRANCH   1  19
HETATM   19  O1  UNL     1      21.152   0.936  52.886  1.00  0.00    -0.353 OA
HETATM   20  C1  UNL     1      20.477   0.527  51.712  1.00  0.00     0.210 C 
ENDBRANCH   1  19
TORSDOF 6
ENDMDL
MODEL 8
REMARK VINA RESULT:      -6.3      1.990      3.352
REMARK  6 active torsions:
REMARK  status: ('A' for Active; 'I' for Inactive)
REMARK    1  A    between atoms: O1_2  and  C2_3 
REMARK    2  A    between atoms: C5_6  and  C6_7 
REMARK    3  A    between atoms: C6_7  and  C7_8 
REMARK    4  A    between atoms: C7_8  and  O2_9 
REMARK    5  A    between atoms: O2_9  and  C8_10 
REMARK    6  A    between atoms: C15_18  and  O3_19 
ROOT
HETATM    1  C2  UNL     1      22.600  -0.417  52.885  1.00  0.00     0.097 A 
HETATM    2  C3  UNL     1      21.967   0.366  52.029  1.00  0.00     0.013 A 
HETATM    3  C4  UNL     1      22.371   1.655  51.371  1.00  0.00     0.038 A 
HETATM    4  C5  UNL     1      23.736   2.095  51.784  1.00  0.00     0.016 A 
HETATM    5  C14 UNL     1      24.357   1.144  52.747  1.00  0.00     0.018 A 
HETATM    6  C15 UNL     1      23.932   0.008  53.290  1.00  0.00     0.097 A 
ENDROOT
BRANCH   4   7
HETATM    7  C6  UNL     1      23.741   3.512  52.345  1.00  0.00     0.035 C 
BRANCH   7   8
HETATM    8  C7  UNL     1      24.049   4.455  51.210  1.00  0.00     0.176 C 
BRANCH   8   9
HETATM    9  O2  UNL     1      24.937   3.869  50.263  1.00  0.00    -0.351 OA
BRANCH   9  10
HETATM   10  C8  UNL     1      25.808   4.721  49.604  1.00  0.00     0.070 A 
HETATM   11  C9  UNL     1      27.008   4.158  49.192  1.00  0.00     0.037 A 
HETATM   12  C10 UNL     1      27.902   4.975  48.531  1.00  0.00     0.004 A 
HETATM   13  C11 UNL     1      27.665   6.316  48.262  1.00  0.00     0.019 A 
HETATM   14  C12 UNL     1      26.451   6.811  48.700  1.00  0.00     0.013 A 
HETATM   15 BR1  UNL     1      26.002   8.636  48.394  1.00  0.00    -0.051 Br
HETATM   16  C13 UNL     1      25.528   6.053  49.358  1.00  0.00     0.055 A 
ENDBRANCH   9  10
ENDBRANCH   8   9
ENDBRANCH   7   8
ENDBRANCH   4   7
BRANCH   6  17
HETATM   17  O3  UNL     1      24.786  -0.638  54.168  1.00  0.00    -0.353 OA
HETATM   18  C16 UNL     1      26.016  -0.054  54.565  1.00  0.00     0.210 C 
ENDBRANCH   6  17
BRANCH   1  19
HETATM   19  O1  UNL     1      22.144  -1.614  53.454  1.00  0.00    -0.353 OA
HETATM   20  C1  UNL     1      21.227  -1.580  54.530  1.00  0.00     0.210 C 
ENDBRANCH   1  19
TORSDOF 6
ENDMDL
MODEL 9
REMARK VINA RESULT:      -6.3      3.446      7.490
REMARK  6 active torsions:
REMARK  status: ('A' for Active; 'I' for Inactive)
REMARK    1  A    between atoms: O1_2  and  C2_3 
REMARK    2  A    between atoms: C5_6  and  C6_7 
REMARK    3  A    between atoms: C6_7  and  C7_8 
REMARK    4  A    between atoms: C7_8  and  O2_9 
REMARK    5  A    between atoms: O2_9  and  C8_10 
REMARK    6  A    between atoms: C15_18  and  O3_19 
ROOT
HETATM    1  C2  UNL     1      26.849   7.414  49.124  1.00  0.00     0.097 A 
HETATM    2  C3  UNL     1      27.593   6.460  48.591  1.00  0.00     0.013 A 
HETATM    3  C4  UNL     1      27.428   4.967  48.564  1.00  0.00     0.038 A 
HETATM    4  C5  UNL     1      26.194   4.522  49.276  1.00  0.00     0.016 A 
HETATM    5  C14 UNL     1      25.434   5.673  49.837  1.00  0.00     0.018 A 
HETATM    6  C15 UNL     1      25.644   6.986  49.820  1.00  0.00     0.097 A 
ENDROOT
BRANCH   4   7
HETATM    7  C6  UNL     1      26.491   3.493  50.360  1.00  0.00     0.035 C 
BRANCH   7   8
HETATM    8  C7  UNL     1      25.246   3.329  51.193  1.00  0.00     0.176 C 
BRANCH   8   9
HETATM    9  O2  UNL     1      24.599   2.087  50.936  1.00  0.00    -0.351 OA
BRANCH   9  10
HETATM   10  C8  UNL     1      24.587   1.158  51.963  1.00  0.00     0.070 A 
HETATM   11  C9  UNL     1      25.819   0.618  52.304  1.00  0.00     0.037 A 
HETATM   12  C10 UNL     1      25.850  -0.311  53.323  1.00  0.00     0.004 A 
HETATM   13  C11 UNL     1      24.722  -0.729  54.017  1.00  0.00     0.019 A 
HETATM   14  C12 UNL     1      23.529  -0.151  53.626  1.00  0.00     0.013 A 
HETATM   15 BR1  UNL     1      21.906  -0.637  54.498  1.00  0.00    -0.051 Br
HETATM   16  C13 UNL     1      23.436   0.772  52.626  1.00  0.00     0.055 A 
ENDBRANCH   9  10
ENDBRANCH   8   9
ENDBRANCH   7   8
ENDBRANCH   4   7
BRANCH   6  17
HETATM   17  O3  UNL     1      24.712   7.790  50.454  1.00  0.00    -0.353 OA
HETATM   18  C16 UNL     1      23.403   7.322  50.734  1.00  0.00     0.210 C 
ENDBRANCH   6  17
BRANCH   1  19
HETATM   19  O1  UNL     1      27.079   8.796  49.102  1.00  0.00    -0.353 OA
HETATM   20  C1  UNL     1      28.210   9.335  49.760  1.00  0.00     0.210 C 
ENDBRANCH   1  19
TORSDOF 6
ENDMDL
