MODEL 1
REMARK VINA RESULT:      -9.4      0.000      0.000
REMARK  6 active torsions:
REMARK  status: ('A' for Active; 'I' for Inactive)
REMARK    1  A    between atoms: N1_1  and  C1_2 
REMARK    2  A    between atoms: C3_4  and  C4_5 
REMARK    3  A    between atoms: C5_7  and  C6_8 
REMARK    4  A    between atoms: C14_16  and  O2_17 
REMARK    5  A    between atoms: O2_17  and  C15_18 
REMARK    6  A    between atoms: C15_18  and  C16_19 
ROOT
HETATM    1  C6  UNL     1      25.407   0.296  53.396  1.00  0.00    -0.023 A 
HETATM    2  C7  UNL     1      24.726  -0.504  54.222  1.00  0.00     0.010 A 
HETATM    3  C8  UNL     1      23.295  -0.753  54.109  1.00  0.00    -0.002 A 
HETATM    4  C9  UNL     1      22.715  -0.113  53.111  1.00  0.00    -0.011 A 
HETATM    5  C10 UNL     1      23.310   0.795  52.124  1.00  0.00     0.020 A 
HETATM    6  C11 UNL     1      24.783   1.011  52.255  1.00  0.00     0.060 A 
HETATM    7  C12 UNL     1      22.658   1.021  50.836  1.00  0.00     0.021 A 
HETATM    8  C13 UNL     1      21.976   1.468  49.792  1.00  0.00     0.043 A 
HETATM    9  C14 UNL     1      21.323   2.786  50.088  1.00  0.00     0.172 A 
HETATM   10  C22 UNL     1      21.725   3.059  51.496  1.00  0.00     0.045 A 
HETATM   11 CL1  UNL     1      21.298   4.446  52.471  1.00  0.00    -0.086 Cl
HETATM   12  C23 UNL     1      22.471   2.035  51.853  1.00  0.00    -0.034 A 
ENDROOT
BRANCH   1  13
HETATM   13  C5  UNL     1      26.828   0.420  53.669  1.00  0.00     0.087 C 
HETATM   14  C3  UNL     1      27.730  -0.498  53.369  1.00  0.00     0.018 C 
HETATM   15  C2  UNL     1      29.117  -0.090  53.774  1.00  0.00     0.109 C 
HETATM   16  C1  UNL     1      28.786   1.054  54.711  1.00  0.00     0.364 C 
HETATM   17  O3  UNL     1      27.512   1.456  54.264  1.00  0.00    -0.315 OA
BRANCH  14  18
HETATM   18  C4  UNL     1      27.646  -1.782  52.743  1.00  0.00     0.268 C 
HETATM   19  O1  UNL     1      28.123  -2.914  52.999  1.00  0.00    -0.302 OA
ENDBRANCH  14  18
BRANCH  16  20
HETATM   20  N1  UNL     1      29.763   2.109  54.679  1.00  0.00     0.107 N 
HETATM   21  H1  UNL     1      29.552   2.751  55.489  1.00  0.00     0.316 HD
HETATM   22  H2  UNL     1      30.697   1.682  54.897  1.00  0.00     0.316 HD
ENDBRANCH  16  20
ENDBRANCH   1  13
BRANCH   9  23
HETATM   23  O2  UNL     1      19.973   2.749  49.928  1.00  0.00    -0.375 OA
BRANCH  23  24
HETATM   24  C15 UNL     1      19.461   1.564  49.460  1.00  0.00     0.207 C 
BRANCH  24  25
HETATM   25  C16 UNL     1      18.778   0.722  50.457  1.00  0.00    -0.032 A 
HETATM   26  C17 UNL     1      17.479   0.343  50.092  1.00  0.00     0.009 A 
HETATM   27  C18 UNL     1      16.645  -0.434  50.869  1.00  0.00     0.004 A 
HETATM   28  C19 UNL     1      17.079  -0.888  52.093  1.00  0.00     0.042 A 
HETATM   29  C20 UNL     1      18.354  -0.524  52.467  1.00  0.00     0.117 A 
HETATM   30  F1  UNL     1      18.859  -0.934  53.666  1.00  0.00    -0.206 F 
HETATM   31  C21 UNL     1      19.181   0.250  51.689  1.00  0.00     0.051 A 
ENDBRANCH  24  25
ENDBRANCH  23  24
ENDBRANCH   9  23
TORSDOF 6
ENDMDL
MODEL 2
REMARK VINA RESULT:      -9.0      1.662      2.428
REMARK  6 active torsions:
REMARK  status: ('A' for Active; 'I' for Inactive)
REMARK    1  A    between atoms: N1_1  and  C1_2 
REMARK    2  A    between atoms: C3_4  and  C4_5 
REMARK    3  A    between atoms: C5_7  and  C6_8 
REMARK    4  A    between atoms: C14_16  and  O2_17 
REMARK    5  A    between atoms: O2_17  and  C15_18 
REMARK    6  A    between atoms: C15_18  and  C16_19 
ROOT
HETATM    1  C6  UNL     1      25.565  -0.205  53.240  1.00  0.00    -0.023 A 
HETATM    2  C7  UNL     1      24.734  -0.774  54.118  1.00  0.00     0.010 A 
HETATM    3  C8  UNL     1      23.293  -0.559  54.124  1.00  0.00    -0.002 A 
HETATM    4  C9  UNL     1      22.868   0.258  53.179  1.00  0.00    -0.011 A 
HETATM    5  C10 UNL     1      23.638   0.962  52.148  1.00  0.00     0.020 A 
HETATM    6  C11 UNL     1      25.110   0.702  52.156  1.00  0.00     0.060 A 
HETATM    7  C12 UNL     1      22.992   1.416  50.919  1.00  0.00     0.021 A 
HETATM    8  C13 UNL     1      22.405   2.083  49.936  1.00  0.00     0.043 A 
HETATM    9  C14 UNL     1      22.224   3.531  50.289  1.00  0.00     0.172 A 
HETATM   10  C22 UNL     1      22.802   3.625  51.659  1.00  0.00     0.045 A 
HETATM   11 CL1  UNL     1      22.910   5.048  52.669  1.00  0.00    -0.086 Cl
HETATM   12  C23 UNL     1      23.213   2.410  51.950  1.00  0.00    -0.034 A 
ENDROOT
BRANCH   1  13
HETATM   13  C5  UNL     1      26.970  -0.540  53.394  1.00  0.00     0.087 C 
HETATM   14  C3  UNL     1      27.925   0.338  53.643  1.00  0.00     0.018 C 
HETATM   15  C2  UNL     1      29.278  -0.304  53.748  1.00  0.00     0.109 C 
HETATM   16  C1  UNL     1      28.972  -1.652  53.126  1.00  0.00     0.364 C 
HETATM   17  O3  UNL     1      27.582  -1.770  53.321  1.00  0.00    -0.315 OA
BRANCH  14  18
HETATM   18  C4  UNL     1      27.924   1.757  53.830  1.00  0.00     0.268 C 
HETATM   19  O1  UNL     1      28.784   2.592  54.201  1.00  0.00    -0.302 OA
ENDBRANCH  14  18
BRANCH  16  20
HETATM   20  N1  UNL     1      29.727  -2.727  53.712  1.00  0.00     0.107 N 
HETATM   21  H1  UNL     1      29.368  -3.624  53.290  1.00  0.00     0.316 HD
HETATM   22  H2  UNL     1      30.718  -2.638  53.378  1.00  0.00     0.316 HD
ENDBRANCH  16  20
ENDBRANCH   1  13
BRANCH   9  23
HETATM   23  O2  UNL     1      20.923   3.923  50.242  1.00  0.00    -0.375 OA
BRANCH  23  24
HETATM   24  C15 UNL     1      20.156   3.577  51.327  1.00  0.00     0.207 C 
BRANCH  24  25
HETATM   25  C16 UNL     1      19.410   2.314  51.209  1.00  0.00    -0.032 A 
HETATM   26  C17 UNL     1      19.616   1.425  52.273  1.00  0.00     0.009 A 
HETATM   27  C18 UNL     1      19.032   0.180  52.375  1.00  0.00     0.004 A 
HETATM   28  C19 UNL     1      18.183  -0.259  51.385  1.00  0.00     0.042 A 
HETATM   29  C20 UNL     1      17.970   0.602  50.331  1.00  0.00     0.117 A 
HETATM   30  F1  UNL     1      17.141   0.242  49.309  1.00  0.00    -0.206 F 
HETATM   31  C21 UNL     1      18.554   1.842  50.235  1.00  0.00     0.051 A 
ENDBRANCH  24  25
ENDBRANCH  23  24
ENDBRANCH   9  23
TORSDOF 6
ENDMDL
MODEL 3
REMARK VINA RESULT:      -8.8      2.679      3.981
REMARK  6 active torsions:
REMARK  status: ('A' for Active; 'I' for Inactive)
REMARK    1  A    between atoms: N1_1  and  C1_2 
REMARK    2  A    between atoms: C3_4  and  C4_5 
REMARK    3  A    between atoms: C5_7  and  C6_8 
REMARK    4  A    between atoms: C14_16  and  O2_17 
REMARK    5  A    between atoms: O2_17  and  C15_18 
REMARK    6  A    between atoms: C15_18  and  C16_19 
ROOT
HETATM    1  C6  UNL     1      25.767   0.605  53.139  1.00  0.00    -0.023 A 
HETATM    2  C7  UNL     1      25.987   1.910  53.328  1.00  0.00     0.010 A 
HETATM    3  C8  UNL     1      24.941   2.923  53.259  1.00  0.00    -0.002 A 
HETATM    4  C9  UNL     1      23.743   2.442  52.989  1.00  0.00    -0.011 A 
HETATM    5  C10 UNL     1      23.335   1.053  52.754  1.00  0.00     0.020 A 
HETATM    6  C11 UNL     1      24.426   0.036  52.853  1.00  0.00     0.060 A 
HETATM    7  C12 UNL     1      21.946   0.644  52.953  1.00  0.00     0.021 A 
HETATM    8  C13 UNL     1      20.672   0.294  52.847  1.00  0.00     0.043 A 
HETATM    9  C14 UNL     1      20.221   0.298  51.417  1.00  0.00     0.172 A 
HETATM   10  C22 UNL     1      21.442   0.714  50.672  1.00  0.00     0.045 A 
HETATM   11 CL1  UNL     1      21.611   0.924  48.945  1.00  0.00    -0.086 Cl
HETATM   12  C23 UNL     1      22.368   0.890  51.589  1.00  0.00    -0.034 A 
ENDROOT
BRANCH   1  13
HETATM   13  C5  UNL     1      26.935  -0.252  53.246  1.00  0.00     0.087 C 
HETATM   14  C3  UNL     1      28.148   0.173  53.555  1.00  0.00     0.018 C 
HETATM   15  C2  UNL     1      29.152  -0.943  53.589  1.00  0.00     0.109 C 
HETATM   16  C1  UNL     1      28.369  -2.016  52.860  1.00  0.00     0.364 C 
HETATM   17  O3  UNL     1      27.035  -1.612  53.063  1.00  0.00    -0.315 OA
BRANCH  14  18
HETATM   18  C4  UNL     1      28.682   1.465  53.860  1.00  0.00     0.268 C 
HETATM   19  O1  UNL     1      29.338   1.937  54.821  1.00  0.00    -0.302 OA
ENDBRANCH  14  18
BRANCH  16  20
HETATM   20  N1  UNL     1      28.645  -3.342  53.345  1.00  0.00     0.107 N 
HETATM   21  H1  UNL     1      29.466  -3.709  52.794  1.00  0.00     0.316 HD
HETATM   22  H2  UNL     1      28.989  -3.252  54.333  1.00  0.00     0.316 HD
ENDBRANCH  16  20
ENDBRANCH   1  13
BRANCH   9  23
HETATM   23  O2  UNL     1      19.168   1.132  51.202  1.00  0.00    -0.375 OA
BRANCH  23  24
HETATM   24  C15 UNL     1      19.140   2.267  51.974  1.00  0.00     0.207 C 
BRANCH  24  25
HETATM   25  C16 UNL     1      19.730   3.471  51.366  1.00  0.00    -0.032 A 
HETATM   26  C17 UNL     1      19.138   3.848  50.153  1.00  0.00     0.009 A 
HETATM   27  C18 UNL     1      19.528   4.934  49.398  1.00  0.00     0.004 A 
HETATM   28  C19 UNL     1      20.567   5.727  49.829  1.00  0.00     0.042 A 
HETATM   29  C20 UNL     1      21.161   5.369  51.020  1.00  0.00     0.117 A 
HETATM   30  F1  UNL     1      22.197   6.104  51.516  1.00  0.00    -0.206 F 
HETATM   31  C21 UNL     1      20.767   4.286  51.768  1.00  0.00     0.051 A 
ENDBRANCH  24  25
ENDBRANCH  23  24
ENDBRANCH   9  23
TORSDOF 6
ENDMDL
MODEL 4
REMARK VINA RESULT:      -8.8      2.047      2.987
REMARK  6 active torsions:
REMARK  status: ('A' for Active; 'I' for Inactive)
REMARK    1  A    between atoms: N1_1  and  C1_2 
REMARK    2  A    between atoms: C3_4  and  C4_5 
REMARK    3  A    between atoms: C5_7  and  C6_8 
REMARK    4  A    between atoms: C14_16  and  O2_17 
REMARK    5  A    between atoms: O2_17  and  C15_18 
REMARK    6  A    between atoms: C15_18  and  C16_19 
ROOT
HETATM    1  C6  UNL     1      25.954   0.561  53.252  1.00  0.00    -0.023 A 
HETATM    2  C7  UNL     1      26.213   1.872  53.298  1.00  0.00     0.010 A 
HETATM    3  C8  UNL     1      25.183   2.901  53.247  1.00  0.00    -0.002 A 
HETATM    4  C9  UNL     1      23.955   2.429  53.150  1.00  0.00    -0.011 A 
HETATM    5  C10 UNL     1      23.502   1.035  53.087  1.00  0.00     0.020 A 
HETATM    6  C11 UNL     1      24.581   0.004  53.163  1.00  0.00     0.060 A 
HETATM    7  C12 UNL     1      22.136   0.681  53.467  1.00  0.00     0.021 A 
HETATM    8  C13 UNL     1      20.853   0.356  53.529  1.00  0.00     0.043 A 
HETATM    9  C14 UNL     1      20.251   0.244  52.159  1.00  0.00     0.172 A 
HETATM   10  C22 UNL     1      21.392   0.560  51.255  1.00  0.00     0.045 A 
HETATM   11 CL1  UNL     1      21.378   0.612  49.508  1.00  0.00    -0.086 Cl
HETATM   12  C23 UNL     1      22.414   0.793  52.050  1.00  0.00    -0.034 A 
ENDROOT
BRANCH   1  13
HETATM   13  C5  UNL     1      27.113  -0.312  53.314  1.00  0.00     0.087 C 
HETATM   14  C3  UNL     1      28.343   0.095  53.573  1.00  0.00     0.018 C 
HETATM   15  C2  UNL     1      29.332  -1.035  53.568  1.00  0.00     0.109 C 
HETATM   16  C1  UNL     1      28.505  -2.097  52.873  1.00  0.00     0.364 C 
HETATM   17  O3  UNL     1      27.186  -1.673  53.129  1.00  0.00    -0.315 OA
BRANCH  14  18
HETATM   18  C4  UNL     1      28.908   1.380  53.855  1.00  0.00     0.268 C 
HETATM   19  O1  UNL     1      29.292   1.957  54.901  1.00  0.00    -0.302 OA
ENDBRANCH  14  18
BRANCH  16  20
HETATM   20  N1  UNL     1      28.782  -3.426  53.348  1.00  0.00     0.107 N 
HETATM   21  H1  UNL     1      27.853  -3.897  53.511  1.00  0.00     0.316 HD
HETATM   22  H2  UNL     1      29.231  -3.957  52.561  1.00  0.00     0.316 HD
ENDBRANCH  16  20
ENDBRANCH   1  13
BRANCH   9  23
HETATM   23  O2  UNL     1      19.194   1.082  51.981  1.00  0.00    -0.375 OA
BRANCH  23  24
HETATM   24  C15 UNL     1      18.176   0.598  51.198  1.00  0.00     0.207 C 
BRANCH  24  25
HETATM   25  C16 UNL     1      17.441  -0.556  51.742  1.00  0.00    -0.032 A 
HETATM   26  C17 UNL     1      16.198  -0.780  51.134  1.00  0.00     0.009 A 
HETATM   27  C18 UNL     1      15.331  -1.794  51.482  1.00  0.00     0.004 A 
HETATM   28  C19 UNL     1      15.670  -2.667  52.490  1.00  0.00     0.042 A 
HETATM   29  C20 UNL     1      16.889  -2.460  53.099  1.00  0.00     0.117 A 
HETATM   30  F1  UNL     1      17.299  -3.282  54.107  1.00  0.00    -0.206 F 
HETATM   31  C21 UNL     1      17.750  -1.448  52.747  1.00  0.00     0.051 A 
ENDBRANCH  24  25
ENDBRANCH  23  24
ENDBRANCH   9  23
TORSDOF 6
ENDMDL
MODEL 5
REMARK VINA RESULT:      -8.5      1.268      1.447
REMARK  6 active torsions:
REMARK  status: ('A' for Active; 'I' for Inactive)
REMARK    1  A    between atoms: N1_1  and  C1_2 
REMARK    2  A    between atoms: C3_4  and  C4_5 
REMARK    3  A    between atoms: C5_7  and  C6_8 
REMARK    4  A    between atoms: C14_16  and  O2_17 
REMARK    5  A    between atoms: O2_17  and  C15_18 
REMARK    6  A    between atoms: C15_18  and  C16_19 
ROOT
HETATM    1  C6  UNL     1      25.156   0.025  53.636  1.00  0.00    -0.023 A 
HETATM    2  C7  UNL     1      24.565  -0.664  54.617  1.00  0.00     0.010 A 
HETATM    3  C8  UNL     1      23.135  -0.940  54.662  1.00  0.00    -0.002 A 
HETATM    4  C9  UNL     1      22.459  -0.446  53.643  1.00  0.00    -0.011 A 
HETATM    5  C10 UNL     1      22.948   0.328  52.497  1.00  0.00     0.020 A 
HETATM    6  C11 UNL     1      24.422   0.575  52.469  1.00  0.00     0.060 A 
HETATM    7  C12 UNL     1      22.184   0.373  51.252  1.00  0.00     0.021 A 
HETATM    8  C13 UNL     1      21.406   0.669  50.221  1.00  0.00     0.043 A 
HETATM    9  C14 UNL     1      20.751   2.008  50.396  1.00  0.00     0.172 A 
HETATM   10  C22 UNL     1      21.266   2.472  51.716  1.00  0.00     0.045 A 
HETATM   11 CL1  UNL     1      20.893   3.972  52.532  1.00  0.00    -0.086 Cl
HETATM   12  C23 UNL     1      22.061   1.512  52.138  1.00  0.00    -0.034 A 
ENDROOT
BRANCH   1  13
HETATM   13  C5  UNL     1      26.592   0.199  53.766  1.00  0.00     0.087 C 
HETATM   14  C3  UNL     1      27.492  -0.653  53.311  1.00  0.00     0.018 C 
HETATM   15  C2  UNL     1      28.898  -0.206  53.594  1.00  0.00     0.109 C 
HETATM   16  C1  UNL     1      28.623   0.859  54.636  1.00  0.00     0.364 C 
HETATM   17  O3  UNL     1      27.293   1.227  54.354  1.00  0.00    -0.315 OA
BRANCH  14  18
HETATM   18  C4  UNL     1      27.393  -1.898  52.611  1.00  0.00     0.268 C 
HETATM   19  O1  UNL     1      27.915  -3.030  52.758  1.00  0.00    -0.302 OA
ENDBRANCH  14  18
BRANCH  16  20
HETATM   20  N1  UNL     1      29.547   1.959  54.573  1.00  0.00     0.107 N 
HETATM   21  H1  UNL     1      30.369   1.642  53.995  1.00  0.00     0.316 HD
HETATM   22  H2  UNL     1      29.092   2.724  54.016  1.00  0.00     0.316 HD
ENDBRANCH  16  20
ENDBRANCH   1  13
BRANCH   9  23
HETATM   23  O2  UNL     1      19.394   1.936  50.361  1.00  0.00    -0.375 OA
BRANCH  23  24
HETATM   24  C15 UNL     1      18.862   0.673  50.442  1.00  0.00     0.207 C 
BRANCH  24  25
HETATM   25  C16 UNL     1      17.564   0.566  51.128  1.00  0.00    -0.032 A 
HETATM   26  C17 UNL     1      16.929   1.796  51.345  1.00  0.00     0.009 A 
HETATM   27  C18 UNL     1      15.712   1.946  51.977  1.00  0.00     0.004 A 
HETATM   28  C19 UNL     1      15.043   0.836  52.441  1.00  0.00     0.042 A 
HETATM   29  C20 UNL     1      15.655  -0.381  52.236  1.00  0.00     0.117 A 
HETATM   30  F1  UNL     1      15.056  -1.529  52.667  1.00  0.00    -0.206 F 
HETATM   31  C21 UNL     1      16.867  -0.524  51.606  1.00  0.00     0.051 A 
ENDBRANCH  24  25
ENDBRANCH  23  24
ENDBRANCH   9  23
TORSDOF 6
ENDMDL
MODEL 6
REMARK VINA RESULT:      -8.5      3.187      4.940
REMARK  6 active torsions:
REMARK  status: ('A' for Active; 'I' for Inactive)
REMARK    1  A    between atoms: N1_1  and  C1_2 
REMARK    2  A    between atoms: C3_4  and  C4_5 
REMARK    3  A    between atoms: C5_7  and  C6_8 
REMARK    4  A    between atoms: C14_16  and  O2_17 
REMARK    5  A    between atoms: O2_17  and  C15_18 
REMARK    6  A    between atoms: C15_18  and  C16_19 
ROOT
HETATM    1  C6  UNL     1      26.364   1.145  52.030  1.00  0.00    -0.023 A 
HETATM    2  C7  UNL     1      26.967   2.116  51.336  1.00  0.00     0.010 A 
HETATM    3  C8  UNL     1      26.255   3.220  50.707  1.00  0.00    -0.002 A 
HETATM    4  C9  UNL     1      24.947   3.183  50.876  1.00  0.00    -0.011 A 
HETATM    5  C10 UNL     1      24.135   2.199  51.599  1.00  0.00     0.020 A 
HETATM    6  C11 UNL     1      24.898   1.091  52.252  1.00  0.00     0.060 A 
HETATM    7  C12 UNL     1      22.808   2.552  52.097  1.00  0.00     0.021 A 
HETATM    8  C13 UNL     1      21.513   2.733  52.316  1.00  0.00     0.043 A 
HETATM    9  C14 UNL     1      20.683   2.103  51.237  1.00  0.00     0.172 A 
HETATM   10  C22 UNL     1      21.700   1.509  50.324  1.00  0.00     0.045 A 
HETATM   11 CL1  UNL     1      21.409   0.621  48.847  1.00  0.00    -0.086 Cl
HETATM   12  C23 UNL     1      22.865   1.796  50.863  1.00  0.00    -0.034 A 
ENDROOT
BRANCH   1  13
HETATM   13  C5  UNL     1      27.242   0.129  52.583  1.00  0.00     0.087 C 
HETATM   14  C3  UNL     1      28.245   0.375  53.407  1.00  0.00     0.018 C 
HETATM   15  C2  UNL     1      28.974  -0.875  53.809  1.00  0.00     0.109 C 
HETATM   16  C1  UNL     1      28.450  -1.829  52.755  1.00  0.00     0.364 C 
HETATM   17  O3  UNL     1      27.228  -1.233  52.385  1.00  0.00    -0.315 OA
BRANCH  14  18
HETATM   18  C4  UNL     1      28.762   1.578  53.985  1.00  0.00     0.268 C 
HETATM   19  O1  UNL     1      29.284   1.865  55.089  1.00  0.00    -0.302 OA
ENDBRANCH  14  18
BRANCH  16  20
HETATM   20  N1  UNL     1      28.306  -3.176  53.238  1.00  0.00     0.107 N 
HETATM   21  H1  UNL     1      28.477  -3.819  52.419  1.00  0.00     0.316 HD
HETATM   22  H2  UNL     1      29.096  -3.359  53.906  1.00  0.00     0.316 HD
ENDBRANCH  16  20
ENDBRANCH   1  13
BRANCH   9  23
HETATM   23  O2  UNL     1      19.874   2.997  50.608  1.00  0.00    -0.375 OA
BRANCH  23  24
HETATM   24  C15 UNL     1      20.272   4.309  50.675  1.00  0.00     0.207 C 
BRANCH  24  25
HETATM   25  C16 UNL     1      21.210   4.748  49.629  1.00  0.00    -0.032 A 
HETATM   26  C17 UNL     1      22.198   5.633  50.082  1.00  0.00     0.009 A 
HETATM   27  C18 UNL     1      23.178   6.185  49.283  1.00  0.00     0.004 A 
HETATM   28  C19 UNL     1      23.224   5.871  47.945  1.00  0.00     0.042 A 
HETATM   29  C20 UNL     1      22.260   5.002  47.483  1.00  0.00     0.117 A 
HETATM   30  F1  UNL     1      22.237   4.641  46.168  1.00  0.00    -0.206 F 
HETATM   31  C21 UNL     1      21.286   4.455  48.283  1.00  0.00     0.051 A 
ENDBRANCH  24  25
ENDBRANCH  23  24
ENDBRANCH   9  23
TORSDOF 6
ENDMDL
MODEL 7
REMARK VINA RESULT:      -8.4      2.543      3.337
REMARK  6 active torsions:
REMARK  status: ('A' for Active; 'I' for Inactive)
REMARK    1  A    between atoms: N1_1  and  C1_2 
REMARK    2  A    between atoms: C3_4  and  C4_5 
REMARK    3  A    between atoms: C5_7  and  C6_8 
REMARK    4  A    between atoms: C14_16  and  O2_17 
REMARK    5  A    between atoms: O2_17  and  C15_18 
REMARK    6  A    between atoms: C15_18  and  C16_19 
ROOT
HETATM    1  C6  UNL     1      25.699   0.662  53.072  1.00  0.00    -0.023 A 
HETATM    2  C7  UNL     1      25.892   1.972  53.257  1.00  0.00     0.010 A 
HETATM    3  C8  UNL     1      24.825   2.963  53.192  1.00  0.00    -0.002 A 
HETATM    4  C9  UNL     1      23.636   2.456  52.930  1.00  0.00    -0.011 A 
HETATM    5  C10 UNL     1      23.255   1.058  52.701  1.00  0.00     0.020 A 
HETATM    6  C11 UNL     1      24.368   0.065  52.796  1.00  0.00     0.060 A 
HETATM    7  C12 UNL     1      21.877   0.620  52.908  1.00  0.00     0.021 A 
HETATM    8  C13 UNL     1      20.610   0.244  52.811  1.00  0.00     0.043 A 
HETATM    9  C14 UNL     1      20.150   0.235  51.383  1.00  0.00     0.172 A 
HETATM   10  C22 UNL     1      21.358   0.674  50.631  1.00  0.00     0.045 A 
HETATM   11 CL1  UNL     1      21.512   0.885  48.902  1.00  0.00    -0.086 Cl
HETATM   12  C23 UNL     1      22.286   0.872  51.542  1.00  0.00    -0.034 A 
ENDROOT
BRANCH   1  13
HETATM   13  C5  UNL     1      26.885  -0.169  53.174  1.00  0.00     0.087 C 
HETATM   14  C3  UNL     1      28.104   0.291  53.393  1.00  0.00     0.018 C 
HETATM   15  C2  UNL     1      29.128  -0.806  53.447  1.00  0.00     0.109 C 
HETATM   16  C1  UNL     1      28.327  -1.936  52.830  1.00  0.00     0.364 C 
HETATM   17  O3  UNL     1      26.998  -1.537  53.075  1.00  0.00    -0.315 OA
BRANCH  14  18
HETATM   18  C4  UNL     1      28.631   1.607  53.586  1.00  0.00     0.268 C 
HETATM   19  O1  UNL     1      28.944   2.286  54.594  1.00  0.00    -0.302 OA
ENDBRANCH  14  18
BRANCH  16  20
HETATM   20  N1  UNL     1      28.650  -3.223  53.385  1.00  0.00     0.107 N 
HETATM   21  H1  UNL     1      27.752  -3.773  53.434  1.00  0.00     0.316 HD
HETATM   22  H2  UNL     1      29.250  -3.727  52.686  1.00  0.00     0.316 HD
ENDBRANCH  16  20
ENDBRANCH   1  13
BRANCH   9  23
HETATM   23  O2  UNL     1      19.078   1.046  51.173  1.00  0.00    -0.375 OA
BRANCH  23  24
HETATM   24  C15 UNL     1      17.860   0.417  51.101  1.00  0.00     0.207 C 
BRANCH  24  25
HETATM   25  C16 UNL     1      16.722   1.156  51.671  1.00  0.00    -0.032 A 
HETATM   26  C17 UNL     1      16.833   2.549  51.564  1.00  0.00     0.009 A 
HETATM   27  C18 UNL     1      15.896   3.446  52.034  1.00  0.00     0.004 A 
HETATM   28  C19 UNL     1      14.761   2.982  52.658  1.00  0.00     0.042 A 
HETATM   29  C20 UNL     1      14.637   1.614  52.772  1.00  0.00     0.117 A 
HETATM   30  F1  UNL     1      13.540   1.075  53.378  1.00  0.00    -0.206 F 
HETATM   31  C21 UNL     1      15.573   0.726  52.301  1.00  0.00     0.051 A 
ENDBRANCH  24  25
ENDBRANCH  23  24
ENDBRANCH   9  23
TORSDOF 6
ENDMDL
MODEL 8
REMARK VINA RESULT:      -8.4      5.865      8.256
REMARK  6 active torsions:
REMARK  status: ('A' for Active; 'I' for Inactive)
REMARK    1  A    between atoms: N1_1  and  C1_2 
REMARK    2  A    between atoms: C3_4  and  C4_5 
REMARK    3  A    between atoms: C5_7  and  C6_8 
REMARK    4  A    between atoms: C14_16  and  O2_17 
REMARK    5  A    between atoms: O2_17  and  C15_18 
REMARK    6  A    between atoms: C15_18  and  C16_19 
ROOT
HETATM    1  C6  UNL     1      26.281   6.692  48.208  1.00  0.00    -0.023 A 
HETATM    2  C7  UNL     1      27.438   6.032  48.318  1.00  0.00     0.010 A 
HETATM    3  C8  UNL     1      27.559   4.708  48.913  1.00  0.00    -0.002 A 
HETATM    4  C9  UNL     1      26.418   4.205  49.344  1.00  0.00    -0.011 A 
HETATM    5  C10 UNL     1      25.075   4.791  49.303  1.00  0.00     0.020 A 
HETATM    6  C11 UNL     1      24.981   6.140  48.666  1.00  0.00     0.060 A 
HETATM    7  C12 UNL     1      23.890   3.938  49.364  1.00  0.00     0.021 A 
HETATM    8  C13 UNL     1      22.810   3.244  49.695  1.00  0.00     0.043 A 
HETATM    9  C14 UNL     1      22.464   3.429  51.142  1.00  0.00     0.172 A 
HETATM   10  C22 UNL     1      23.523   4.355  51.634  1.00  0.00     0.045 A 
HETATM   11 CL1  UNL     1      23.715   4.983  53.254  1.00  0.00    -0.086 Cl
HETATM   12  C23 UNL     1      24.285   4.599  50.590  1.00  0.00    -0.034 A 
ENDROOT
BRANCH   1  13
HETATM   13  C5  UNL     1      26.360   8.002  47.586  1.00  0.00     0.087 C 
HETATM   14  C3  UNL     1      26.403   9.143  48.250  1.00  0.00     0.018 C 
HETATM   15  C2  UNL     1      26.481  10.333  47.338  1.00  0.00     0.109 C 
HETATM   16  C1  UNL     1      26.078   9.681  46.031  1.00  0.00     0.364 C 
HETATM   17  O3  UNL     1      26.405   8.328  46.251  1.00  0.00    -0.315 OA
BRANCH  14  18
HETATM   18  C4  UNL     1      26.393   9.463  49.645  1.00  0.00     0.268 C 
HETATM   19  O1  UNL     1      27.278   9.550  50.531  1.00  0.00    -0.302 OA
ENDBRANCH  14  18
BRANCH  16  20
HETATM   20  N1  UNL     1      26.741  10.252  44.889  1.00  0.00     0.107 N 
HETATM   21  H1  UNL     1      26.024  10.330  44.120  1.00  0.00     0.316 HD
HETATM   22  H2  UNL     1      26.998  11.241  45.133  1.00  0.00     0.316 HD
ENDBRANCH  16  20
ENDBRANCH   1  13
BRANCH   9  23
HETATM   23  O2  UNL     1      22.435   2.255  51.829  1.00  0.00    -0.375 OA
BRANCH  23  24
HETATM   24  C15 UNL     1      23.257   1.266  51.350  1.00  0.00     0.207 C 
BRANCH  24  25
HETATM   25  C16 UNL     1      24.415   0.929  52.194  1.00  0.00    -0.032 A 
HETATM   26  C17 UNL     1      25.647   1.334  51.663  1.00  0.00     0.009 A 
HETATM   27  C18 UNL     1      26.867   1.119  52.269  1.00  0.00     0.004 A 
HETATM   28  C19 UNL     1      26.922   0.465  53.478  1.00  0.00     0.042 A 
HETATM   29  C20 UNL     1      25.720   0.060  54.014  1.00  0.00     0.117 A 
HETATM   30  F1  UNL     1      25.689  -0.594  55.211  1.00  0.00    -0.206 F 
HETATM   31  C21 UNL     1      24.507   0.278  53.406  1.00  0.00     0.051 A 
ENDBRANCH  24  25
ENDBRANCH  23  24
ENDBRANCH   9  23
TORSDOF 6
ENDMDL
MODEL 9
REMARK VINA RESULT:      -8.1      6.335      7.375
REMARK  6 active torsions:
REMARK  status: ('A' for Active; 'I' for Inactive)
REMARK    1  A    between atoms: N1_1  and  C1_2 
REMARK    2  A    between atoms: C3_4  and  C4_5 
REMARK    3  A    between atoms: C5_7  and  C6_8 
REMARK    4  A    between atoms: C14_16  and  O2_17 
REMARK    5  A    between atoms: O2_17  and  C15_18 
REMARK    6  A    between atoms: C15_18  and  C16_19 
ROOT
HETATM    1  C6  UNL     1      27.715   7.000  48.381  1.00  0.00    -0.023 A 
HETATM    2  C7  UNL     1      27.324   8.088  49.052  1.00  0.00     0.010 A 
HETATM    3  C8  UNL     1      26.245   8.089  50.031  1.00  0.00    -0.002 A 
HETATM    4  C9  UNL     1      25.675   6.912  50.205  1.00  0.00    -0.011 A 
HETATM    5  C10 UNL     1      25.978   5.633  49.555  1.00  0.00     0.020 A 
HETATM    6  C11 UNL     1      27.103   5.661  48.572  1.00  0.00     0.060 A 
HETATM    7  C12 UNL     1      25.606   4.371  50.192  1.00  0.00     0.021 A 
HETATM    8  C13 UNL     1      25.049   3.234  50.585  1.00  0.00     0.043 A 
HETATM    9  C14 UNL     1      23.805   2.935  49.801  1.00  0.00     0.172 A 
HETATM   10  C22 UNL     1      23.702   4.090  48.866  1.00  0.00     0.045 A 
HETATM   11 CL1  UNL     1      22.466   4.374  47.663  1.00  0.00    -0.086 Cl
HETATM   12  C23 UNL     1      24.739   4.853  49.136  1.00  0.00    -0.034 A 
ENDROOT
BRANCH   1  13
HETATM   13  C5  UNL     1      28.807   7.196  47.445  1.00  0.00     0.087 C 
HETATM   14  C3  UNL     1      30.050   6.796  47.650  1.00  0.00     0.018 C 
HETATM   15  C2  UNL     1      30.958   7.141  46.506  1.00  0.00     0.109 C 
HETATM   16  C1  UNL     1      30.092   8.155  45.786  1.00  0.00     0.364 C 
HETATM   17  O3  UNL     1      28.795   7.804  46.210  1.00  0.00    -0.315 OA
BRANCH  14  18
HETATM   18  C4  UNL     1      30.689   6.109  48.731  1.00  0.00     0.268 C 
HETATM   19  O1  UNL     1      31.293   5.014  48.838  1.00  0.00    -0.302 OA
ENDBRANCH  14  18
BRANCH  16  20
HETATM   20  N1  UNL     1      30.255   8.122  44.358  1.00  0.00     0.107 N 
HETATM   21  H1  UNL     1      31.028   8.798  44.118  1.00  0.00     0.316 HD
HETATM   22  H2  UNL     1      30.625   7.173  44.103  1.00  0.00     0.316 HD
ENDBRANCH  16  20
ENDBRANCH   1  13
BRANCH   9  23
HETATM   23  O2  UNL     1      22.707   2.803  50.593  1.00  0.00    -0.375 OA
BRANCH  23  24
HETATM   24  C15 UNL     1      22.149   1.550  50.634  1.00  0.00     0.207 C 
BRANCH  24  25
HETATM   25  C16 UNL     1      22.447   0.755  51.837  1.00  0.00    -0.032 A 
HETATM   26  C17 UNL     1      21.349   0.039  52.336  1.00  0.00     0.009 A 
HETATM   27  C18 UNL     1      21.385  -0.764  53.456  1.00  0.00     0.004 A 
HETATM   28  C19 UNL     1      22.558  -0.899  54.162  1.00  0.00     0.042 A 
HETATM   29  C20 UNL     1      23.647  -0.202  53.685  1.00  0.00     0.117 A 
HETATM   30  F1  UNL     1      24.847  -0.284  54.328  1.00  0.00    -0.206 F 
HETATM   31  C21 UNL     1      23.605   0.596  52.568  1.00  0.00     0.051 A 
ENDBRANCH  24  25
ENDBRANCH  23  24
ENDBRANCH   9  23
TORSDOF 6
ENDMDL
