MODEL 1
REMARK VINA RESULT:      -8.6      0.000      0.000
REMARK  7 active torsions:
REMARK  status: ('A' for Active; 'I' for Inactive)
REMARK    1  A    between atoms: C2_2  and  C3_3 
REMARK    2  A    between atoms: C2_2  and  N1_9 
REMARK    3  A    between atoms: C4_4  and  C5_5 
REMARK    4  A    between atoms: C5_5  and  O1_6 
REMARK    5  A    between atoms: N1_9  and  C6_10 
REMARK    6  A    between atoms: C11_17  and  N4_18 
REMARK    7  A    between atoms: N4_18  and  C12_19 
ROOT
HETATM    1  C6  UNL     1      27.126   1.843  52.085  1.00  0.00     0.012 C 
HETATM    2  C7  UNL     1      28.031   2.044  53.017  1.00  0.00     0.023 C 
HETATM    3  C8  UNL     1      28.749   0.875  53.621  1.00  0.00     0.001 C 
HETATM    4  C9  UNL     1      28.987  -0.463  53.690  1.00  0.00     0.117 C 
HETATM    5  N2  UNL     1      28.790  -1.806  53.290  1.00  0.00    -0.412 NA
HETATM    6  C10 UNL     1      27.605  -2.323  53.140  1.00  0.00     0.438 C 
HETATM    7  N3  UNL     1      26.566  -1.412  53.416  1.00  0.00    -0.245 NA
HETATM    8  C11 UNL     1      26.326  -0.381  52.692  1.00  0.00     0.107 C 
HETATM    9  C18 UNL     1      26.504   0.614  51.570  1.00  0.00     0.134 C 
ENDROOT
BRANCH   1  10
HETATM   10  N1  UNL     1      26.597   3.116  51.654  1.00  0.00    -0.385 N 
HETATM   11  H8  UNL     1      26.772   3.905  52.327  1.00  0.00     0.160 HD
BRANCH  10  12
HETATM   12  C2  UNL     1      25.883   3.280  50.394  1.00  0.00     0.100 C 
HETATM   13  C1  UNL     1      26.741   4.134  49.489  1.00  0.00     0.036 C 
BRANCH  12  14
HETATM   14  C3  UNL     1      24.648   4.037  50.689  1.00  0.00     0.002 C 
HETATM   15  C4  UNL     1      23.823   3.618  51.644  1.00  0.00     0.081 C 
BRANCH  15  16
HETATM   16  C5  UNL     1      22.578   4.351  51.966  1.00  0.00     0.372 C 
HETATM   17  F1  UNL     1      21.678   3.513  52.599  1.00  0.00    -0.172 F 
HETATM   18  F2  UNL     1      22.010   4.876  50.823  1.00  0.00    -0.172 F 
BRANCH  16  19
HETATM   19  O1  UNL     1      22.892   5.363  52.864  1.00  0.00    -0.333 OA
HETATM   20  H7  UNL     1      23.555   5.992  52.520  1.00  0.00     0.216 HD
ENDBRANCH  16  19
ENDBRANCH  15  16
ENDBRANCH  12  14
ENDBRANCH  10  12
ENDBRANCH   1  10
BRANCH   8  21
HETATM   21  N4  UNL     1      25.200   0.141  53.444  1.00  0.00    -0.344 N 
HETATM   22  H13 UNL     1      25.098   0.948  54.143  1.00  0.00     0.167 HD
BRANCH  21  23
HETATM   23  C12 UNL     1      23.802  -0.196  53.559  1.00  0.00     0.034 A 
HETATM   24  C13 UNL     1      23.279  -0.937  54.624  1.00  0.00     0.029 A 
HETATM   25  C14 UNL     1      21.927  -1.226  54.677  1.00  0.00     0.004 A 
HETATM   26  C15 UNL     1      21.111  -0.772  53.666  1.00  0.00     0.019 A 
HETATM   27  C16 UNL     1      21.550  -0.037  52.585  1.00  0.00     0.013 A 
HETATM   28 BR1  UNL     1      20.408   0.586  51.192  1.00  0.00    -0.051 Br
HETATM   29  C17 UNL     1      22.903   0.225  52.577  1.00  0.00     0.048 A 
ENDBRANCH  21  23
ENDBRANCH   8  21
TORSDOF 7
ENDMDL
MODEL 2
REMARK VINA RESULT:      -8.2      2.667      5.068
REMARK  7 active torsions:
REMARK  status: ('A' for Active; 'I' for Inactive)
REMARK    1  A    between atoms: C2_2  and  C3_3 
REMARK    2  A    between atoms: C2_2  and  N1_9 
REMARK    3  A    between atoms: C4_4  and  C5_5 
REMARK    4  A    between atoms: C5_5  and  O1_6 
REMARK    5  A    between atoms: N1_9  and  C6_10 
REMARK    6  A    between atoms: C11_17  and  N4_18 
REMARK    7  A    between atoms: N4_18  and  C12_19 
ROOT
HETATM    1  C6  UNL     1      25.396  -0.040  53.366  1.00  0.00     0.012 C 
HETATM    2  C7  UNL     1      26.243  -1.032  53.206  1.00  0.00     0.023 C 
HETATM    3  C8  UNL     1      27.705  -0.807  53.446  1.00  0.00     0.001 C 
HETATM    4  C9  UNL     1      28.735   0.005  53.813  1.00  0.00     0.117 C 
HETATM    5  N2  UNL     1      29.285   1.231  54.253  1.00  0.00    -0.412 NA
HETATM    6  C10 UNL     1      28.968   2.372  53.715  1.00  0.00     0.438 C 
HETATM    7  N3  UNL     1      28.034   2.247  52.667  1.00  0.00    -0.245 NA
HETATM    8  C11 UNL     1      26.822   1.871  52.848  1.00  0.00     0.107 C 
HETATM    9  C18 UNL     1      25.600   1.398  53.600  1.00  0.00     0.134 C 
ENDROOT
BRANCH   1  10
HETATM   10  N1  UNL     1      24.057  -0.511  53.097  1.00  0.00    -0.385 N 
HETATM   11  H8  UNL     1      23.991  -1.184  52.291  1.00  0.00     0.160 HD
BRANCH  10  12
HETATM   12  C2  UNL     1      22.905  -0.083  53.881  1.00  0.00     0.100 C 
HETATM   13  C1  UNL     1      22.241  -1.322  54.434  1.00  0.00     0.036 C 
BRANCH  12  14
HETATM   14  C3  UNL     1      21.956   0.556  52.944  1.00  0.00     0.002 C 
HETATM   15  C4  UNL     1      21.862   0.119  51.693  1.00  0.00     0.081 C 
BRANCH  15  16
HETATM   16  C5  UNL     1      20.923   0.735  50.728  1.00  0.00     0.372 C 
HETATM   17  F1  UNL     1      19.684   0.126  50.808  1.00  0.00    -0.172 F 
HETATM   18  F2  UNL     1      21.413   0.640  49.441  1.00  0.00    -0.172 F 
BRANCH  16  19
HETATM   19  O1  UNL     1      20.745   2.066  51.084  1.00  0.00    -0.333 OA
HETATM   20  H7  UNL     1      21.400   2.380  51.737  1.00  0.00     0.216 HD
ENDBRANCH  16  19
ENDBRANCH  15  16
ENDBRANCH  12  14
ENDBRANCH  10  12
ENDBRANCH   1  10
BRANCH   8  21
HETATM   21  N4  UNL     1      26.379   1.930  51.467  1.00  0.00    -0.344 N 
HETATM   22  H13 UNL     1      26.495   1.267  50.633  1.00  0.00     0.167 HD
BRANCH  21  23
HETATM   23  C12 UNL     1      25.626   2.870  50.674  1.00  0.00     0.034 A 
HETATM   24  C13 UNL     1      24.247   2.760  50.461  1.00  0.00     0.029 A 
HETATM   25  C14 UNL     1      23.581   3.697  49.690  1.00  0.00     0.004 A 
HETATM   26  C15 UNL     1      24.300   4.733  49.138  1.00  0.00     0.019 A 
HETATM   27  C16 UNL     1      25.657   4.910  49.301  1.00  0.00     0.013 A 
HETATM   28 BR1  UNL     1      26.639   6.351  48.530  1.00  0.00    -0.051 Br
HETATM   29  C17 UNL     1      26.274   3.952  50.076  1.00  0.00     0.048 A 
ENDBRANCH  21  23
ENDBRANCH   8  21
TORSDOF 7
ENDMDL
MODEL 3
REMARK VINA RESULT:      -8.0      3.424      5.859
REMARK  7 active torsions:
REMARK  status: ('A' for Active; 'I' for Inactive)
REMARK    1  A    between atoms: C2_2  and  C3_3 
REMARK    2  A    between atoms: C2_2  and  N1_9 
REMARK    3  A    between atoms: C4_4  and  C5_5 
REMARK    4  A    between atoms: C5_5  and  O1_6 
REMARK    5  A    between atoms: N1_9  and  C6_10 
REMARK    6  A    between atoms: C11_17  and  N4_18 
REMARK    7  A    between atoms: N4_18  and  C12_19 
ROOT
HETATM    1  C6  UNL     1      23.366   3.585  51.410  1.00  0.00     0.012 C 
HETATM    2  C7  UNL     1      23.429   4.870  51.681  1.00  0.00     0.023 C 
HETATM    3  C8  UNL     1      24.396   5.740  50.936  1.00  0.00     0.001 C 
HETATM    4  C9  UNL     1      25.354   5.901  49.983  1.00  0.00     0.117 C 
HETATM    5  N2  UNL     1      26.201   5.438  48.948  1.00  0.00    -0.412 NA
HETATM    6  C10 UNL     1      26.914   4.356  49.061  1.00  0.00     0.438 C 
HETATM    7  N3  UNL     1      26.748   3.713  50.304  1.00  0.00    -0.245 NA
HETATM    8  C11 UNL     1      25.651   3.158  50.667  1.00  0.00     0.107 C 
HETATM    9  C18 UNL     1      24.210   2.714  50.577  1.00  0.00     0.134 C 
ENDROOT
BRANCH   1  10
HETATM   10  N1  UNL     1      22.353   2.974  52.239  1.00  0.00    -0.385 N 
HETATM   11  H8  UNL     1      22.432   3.211  53.260  1.00  0.00     0.160 HD
BRANCH  10  12
HETATM   12  C2  UNL     1      21.317   2.105  51.695  1.00  0.00     0.100 C 
HETATM   13  C1  UNL     1      19.987   2.588  52.226  1.00  0.00     0.036 C 
BRANCH  12  14
HETATM   14  C3  UNL     1      21.555   0.752  52.241  1.00  0.00     0.002 C 
HETATM   15  C4  UNL     1      21.342   0.509  53.531  1.00  0.00     0.081 C 
BRANCH  15  16
HETATM   16  C5  UNL     1      21.569  -0.834  54.112  1.00  0.00     0.372 C 
HETATM   17  F1  UNL     1      22.269  -0.730  55.300  1.00  0.00    -0.172 F 
HETATM   18  F2  UNL     1      22.259  -1.639  53.228  1.00  0.00    -0.172 F 
BRANCH  16  19
HETATM   19  O1  UNL     1      20.333  -1.390  54.415  1.00  0.00    -0.333 OA
HETATM   20  H7  UNL     1      19.669  -0.728  54.689  1.00  0.00     0.216 HD
ENDBRANCH  16  19
ENDBRANCH  15  16
ENDBRANCH  12  14
ENDBRANCH  10  12
ENDBRANCH   1  10
BRANCH   8  21
HETATM   21  N4  UNL     1      26.076   2.696  51.975  1.00  0.00    -0.344 N 
HETATM   22  H13 UNL     1      26.408   3.205  52.859  1.00  0.00     0.167 HD
BRANCH  21  23
HETATM   23  C12 UNL     1      26.221   1.408  52.608  1.00  0.00     0.034 A 
HETATM   24  C13 UNL     1      25.139   0.673  53.104  1.00  0.00     0.029 A 
HETATM   25  C14 UNL     1      25.345  -0.560  53.699  1.00  0.00     0.004 A 
HETATM   26  C15 UNL     1      26.629  -1.045  53.793  1.00  0.00     0.019 A 
HETATM   27  C16 UNL     1      27.746  -0.382  53.329  1.00  0.00     0.013 A 
HETATM   28 BR1  UNL     1      29.519  -1.067  53.466  1.00  0.00    -0.051 Br
HETATM   29  C17 UNL     1      27.489   0.840  52.746  1.00  0.00     0.048 A 
ENDBRANCH  21  23
ENDBRANCH   8  21
TORSDOF 7
ENDMDL
MODEL 4
REMARK VINA RESULT:      -7.8      3.324      5.550
REMARK  7 active torsions:
REMARK  status: ('A' for Active; 'I' for Inactive)
REMARK    1  A    between atoms: C2_2  and  C3_3 
REMARK    2  A    between atoms: C2_2  and  N1_9 
REMARK    3  A    between atoms: C4_4  and  C5_5 
REMARK    4  A    between atoms: C5_5  and  O1_6 
REMARK    5  A    between atoms: N1_9  and  C6_10 
REMARK    6  A    between atoms: C11_17  and  N4_18 
REMARK    7  A    between atoms: N4_18  and  C12_19 
ROOT
HETATM    1  C6  UNL     1      25.645   2.956  51.314  1.00  0.00     0.012 C 
HETATM    2  C7  UNL     1      25.729   3.087  50.009  1.00  0.00     0.023 C 
HETATM    3  C8  UNL     1      24.673   3.849  49.268  1.00  0.00     0.001 C 
HETATM    4  C9  UNL     1      23.530   4.589  49.261  1.00  0.00     0.117 C 
HETATM    5  N2  UNL     1      22.437   5.236  49.884  1.00  0.00    -0.412 NA
HETATM    6  C10 UNL     1      21.703   4.652  50.787  1.00  0.00     0.438 C 
HETATM    7  N3  UNL     1      22.114   3.333  51.064  1.00  0.00    -0.245 NA
HETATM    8  C11 UNL     1      23.228   3.049  51.631  1.00  0.00     0.107 C 
HETATM    9  C18 UNL     1      24.576   3.290  52.267  1.00  0.00     0.134 C 
ENDROOT
BRANCH   1  10
HETATM   10  N1  UNL     1      26.783   2.204  51.790  1.00  0.00    -0.385 N 
HETATM   11  H8  UNL     1      27.383   1.801  51.027  1.00  0.00     0.160 HD
BRANCH  10  12
HETATM   12  C2  UNL     1      27.064   2.027  53.209  1.00  0.00     0.100 C 
HETATM   13  C1  UNL     1      28.501   2.429  53.446  1.00  0.00     0.036 C 
BRANCH  12  14
HETATM   14  C3  UNL     1      26.949   0.581  53.497  1.00  0.00     0.002 C 
HETATM   15  C4  UNL     1      27.031  -0.302  52.507  1.00  0.00     0.081 C 
BRANCH  15  16
HETATM   16  C5  UNL     1      26.920  -1.757  52.758  1.00  0.00     0.372 C 
HETATM   17  F1  UNL     1      26.622  -2.425  51.585  1.00  0.00    -0.172 F 
HETATM   18  F2  UNL     1      25.952  -2.017  53.707  1.00  0.00    -0.172 F 
BRANCH  16  19
HETATM   19  O1  UNL     1      28.158  -2.219  53.186  1.00  0.00    -0.333 OA
HETATM   20  H7  UNL     1      28.238  -2.265  54.158  1.00  0.00     0.216 HD
ENDBRANCH  16  19
ENDBRANCH  15  16
ENDBRANCH  12  14
ENDBRANCH  10  12
ENDBRANCH   1  10
BRANCH   8  21
HETATM   21  N4  UNL     1      23.092   1.604  51.641  1.00  0.00    -0.344 N 
HETATM   22  H13 UNL     1      23.366   0.839  50.941  1.00  0.00     0.167 HD
BRANCH  21  23
HETATM   23  C12 UNL     1      22.554   0.633  52.561  1.00  0.00     0.034 A 
HETATM   24  C13 UNL     1      23.330  -0.020  53.524  1.00  0.00     0.029 A 
HETATM   25  C14 UNL     1      22.753  -0.942  54.381  1.00  0.00     0.004 A 
HETATM   26  C15 UNL     1      21.406  -1.201  54.266  1.00  0.00     0.019 A 
HETATM   27  C16 UNL     1      20.576  -0.599  53.345  1.00  0.00     0.013 A 
HETATM   28 BR1  UNL     1      18.711  -0.968  53.198  1.00  0.00    -0.051 Br
HETATM   29  C17 UNL     1      21.196   0.309  52.516  1.00  0.00     0.048 A 
ENDBRANCH  21  23
ENDBRANCH   8  21
TORSDOF 7
ENDMDL
MODEL 5
REMARK VINA RESULT:      -7.8      3.600      5.840
REMARK  7 active torsions:
REMARK  status: ('A' for Active; 'I' for Inactive)
REMARK    1  A    between atoms: C2_2  and  C3_3 
REMARK    2  A    between atoms: C2_2  and  N1_9 
REMARK    3  A    between atoms: C4_4  and  C5_5 
REMARK    4  A    between atoms: C5_5  and  O1_6 
REMARK    5  A    between atoms: N1_9  and  C6_10 
REMARK    6  A    between atoms: C11_17  and  N4_18 
REMARK    7  A    between atoms: N4_18  and  C12_19 
ROOT
HETATM    1  C6  UNL     1      23.886   3.156  51.258  1.00  0.00     0.012 C 
HETATM    2  C7  UNL     1      23.200   2.603  50.283  1.00  0.00     0.023 C 
HETATM    3  C8  UNL     1      22.277   1.460  50.579  1.00  0.00     0.001 C 
HETATM    4  C9  UNL     1      21.696   0.604  51.464  1.00  0.00     0.117 C 
HETATM    5  N2  UNL     1      21.468   0.087  52.760  1.00  0.00    -0.412 NA
HETATM    6  C10 UNL     1      22.437  -0.189  53.583  1.00  0.00     0.438 C 
HETATM    7  N3  UNL     1      23.711   0.082  53.045  1.00  0.00    -0.245 NA
HETATM    8  C11 UNL     1      24.125   1.267  52.783  1.00  0.00     0.107 C 
HETATM    9  C18 UNL     1      24.078   2.772  52.665  1.00  0.00     0.134 C 
ENDROOT
BRANCH   1  10
HETATM   10  N1  UNL     1      24.680   4.240  50.725  1.00  0.00    -0.385 N 
HETATM   11  H8  UNL     1      24.622   5.130  51.282  1.00  0.00     0.160 HD
BRANCH  10  12
HETATM   12  C2  UNL     1      25.485   4.098  49.518  1.00  0.00     0.100 C 
HETATM   13  C1  UNL     1      26.498   3.004  49.769  1.00  0.00     0.036 C 
BRANCH  12  14
HETATM   14  C3  UNL     1      26.227   5.365  49.341  1.00  0.00     0.002 C 
HETATM   15  C4  UNL     1      27.335   5.389  48.607  1.00  0.00     0.081 C 
BRANCH  15  16
HETATM   16  C5  UNL     1      28.103   6.639  48.408  1.00  0.00     0.372 C 
HETATM   17  F1  UNL     1      27.830   7.178  47.165  1.00  0.00    -0.172 F 
HETATM   18  F2  UNL     1      29.457   6.405  48.533  1.00  0.00    -0.172 F 
BRANCH  16  19
HETATM   19  O1  UNL     1      27.679   7.564  49.355  1.00  0.00    -0.333 OA
HETATM   20  H7  UNL     1      27.608   8.472  49.002  1.00  0.00     0.216 HD
ENDBRANCH  16  19
ENDBRANCH  15  16
ENDBRANCH  12  14
ENDBRANCH  10  12
ENDBRANCH   1  10
BRANCH   8  21
HETATM   21  N4  UNL     1      25.439   0.919  52.274  1.00  0.00    -0.344 N 
HETATM   22  H13 UNL     1      25.782   0.545  51.330  1.00  0.00     0.167 HD
BRANCH  21  23
HETATM   23  C12 UNL     1      26.779   0.931  52.808  1.00  0.00     0.034 A 
HETATM   24  C13 UNL     1      27.411   2.095  53.261  1.00  0.00     0.029 A 
HETATM   25  C14 UNL     1      28.699   2.040  53.764  1.00  0.00     0.004 A 
HETATM   26  C15 UNL     1      29.342   0.824  53.810  1.00  0.00     0.019 A 
HETATM   27  C16 UNL     1      28.788  -0.364  53.384  1.00  0.00     0.013 A 
HETATM   28 BR1  UNL     1      29.691  -2.041  53.454  1.00  0.00    -0.051 Br
HETATM   29  C17 UNL     1      27.505  -0.258  52.892  1.00  0.00     0.048 A 
ENDBRANCH  21  23
ENDBRANCH   8  21
TORSDOF 7
ENDMDL
MODEL 6
REMARK VINA RESULT:      -7.8      3.614      6.536
REMARK  7 active torsions:
REMARK  status: ('A' for Active; 'I' for Inactive)
REMARK    1  A    between atoms: C2_2  and  C3_3 
REMARK    2  A    between atoms: C2_2  and  N1_9 
REMARK    3  A    between atoms: C4_4  and  C5_5 
REMARK    4  A    between atoms: C5_5  and  O1_6 
REMARK    5  A    between atoms: N1_9  and  C6_10 
REMARK    6  A    between atoms: C11_17  and  N4_18 
REMARK    7  A    between atoms: N4_18  and  C12_19 
ROOT
HETATM    1  C6  UNL     1      23.794  -0.598  53.504  1.00  0.00     0.012 C 
HETATM    2  C7  UNL     1      23.249  -0.830  54.678  1.00  0.00     0.023 C 
HETATM    3  C8  UNL     1      21.758  -0.805  54.823  1.00  0.00     0.001 C 
HETATM    4  C9  UNL     1      20.516  -0.665  54.282  1.00  0.00     0.117 C 
HETATM    5  N2  UNL     1      19.620  -0.446  53.210  1.00  0.00    -0.412 NA
HETATM    6  C10 UNL     1      19.779   0.521  52.353  1.00  0.00     0.438 C 
HETATM    7  N3  UNL     1      20.921   1.306  52.613  1.00  0.00    -0.245 NA
HETATM    8  C11 UNL     1      22.118   0.862  52.499  1.00  0.00     0.107 C 
HETATM    9  C18 UNL     1      23.224  -0.132  52.232  1.00  0.00     0.134 C 
ENDROOT
BRANCH   1  10
HETATM   10  N1  UNL     1      25.231  -0.698  53.620  1.00  0.00    -0.385 N 
HETATM   11  H8  UNL     1      25.581  -0.745  54.611  1.00  0.00     0.160 HD
BRANCH  10  12
HETATM   12  C2  UNL     1      26.108  -0.730  52.457  1.00  0.00     0.100 C 
HETATM   13  C1  UNL     1      26.709  -2.114  52.373  1.00  0.00     0.036 C 
BRANCH  12  14
HETATM   14  C3  UNL     1      27.209   0.223  52.717  1.00  0.00     0.002 C 
HETATM   15  C4  UNL     1      28.182  -0.100  53.563  1.00  0.00     0.081 C 
BRANCH  15  16
HETATM   16  C5  UNL     1      29.299   0.829  53.847  1.00  0.00     0.372 C 
HETATM   17  F1  UNL     1      30.507   0.240  53.524  1.00  0.00    -0.172 F 
HETATM   18  F2  UNL     1      29.297   1.201  55.176  1.00  0.00    -0.172 F 
BRANCH  16  19
HETATM   19  O1  UNL     1      29.156   1.942  53.029  1.00  0.00    -0.333 OA
HETATM   20  H7  UNL     1      29.726   1.913  52.236  1.00  0.00     0.216 HD
ENDBRANCH  16  19
ENDBRANCH  15  16
ENDBRANCH  12  14
ENDBRANCH  10  12
ENDBRANCH   1  10
BRANCH   8  21
HETATM   21  N4  UNL     1      22.823   2.071  52.884  1.00  0.00    -0.344 N 
HETATM   22  H13 UNL     1      23.151   2.457  53.829  1.00  0.00     0.167 HD
BRANCH  21  23
HETATM   23  C12 UNL     1      23.357   3.212  52.181  1.00  0.00     0.034 A 
HETATM   24  C13 UNL     1      22.811   4.496  52.282  1.00  0.00     0.029 A 
HETATM   25  C14 UNL     1      23.371   5.551  51.583  1.00  0.00     0.004 A 
HETATM   26  C15 UNL     1      24.470   5.312  50.789  1.00  0.00     0.019 A 
HETATM   27  C16 UNL     1      25.064   4.077  50.637  1.00  0.00     0.013 A 
HETATM   28 BR1  UNL     1      26.586   3.761  49.534  1.00  0.00    -0.051 Br
HETATM   29  C17 UNL     1      24.471   3.060  51.353  1.00  0.00     0.048 A 
ENDBRANCH  21  23
ENDBRANCH   8  21
TORSDOF 7
ENDMDL
MODEL 7
REMARK VINA RESULT:      -7.6      3.655      5.956
REMARK  7 active torsions:
REMARK  status: ('A' for Active; 'I' for Inactive)
REMARK    1  A    between atoms: C2_2  and  C3_3 
REMARK    2  A    between atoms: C2_2  and  N1_9 
REMARK    3  A    between atoms: C4_4  and  C5_5 
REMARK    4  A    between atoms: C5_5  and  O1_6 
REMARK    5  A    between atoms: N1_9  and  C6_10 
REMARK    6  A    between atoms: C11_17  and  N4_18 
REMARK    7  A    between atoms: N4_18  and  C12_19 
ROOT
HETATM    1  C6  UNL     1      24.545   3.476  51.458  1.00  0.00     0.012 C 
HETATM    2  C7  UNL     1      24.895   3.487  50.191  1.00  0.00     0.023 C 
HETATM    3  C8  UNL     1      23.913   3.938  49.153  1.00  0.00     0.001 C 
HETATM    4  C9  UNL     1      22.689   4.424  48.811  1.00  0.00     0.117 C 
HETATM    5  N2  UNL     1      21.387   4.894  49.103  1.00  0.00    -0.412 NA
HETATM    6  C10 UNL     1      20.584   4.269  49.914  1.00  0.00     0.438 C 
HETATM    7  N3  UNL     1      21.150   3.097  50.455  1.00  0.00    -0.245 NA
HETATM    8  C11 UNL     1      22.141   3.106  51.268  1.00  0.00     0.107 C 
HETATM    9  C18 UNL     1      23.248   3.681  52.120  1.00  0.00     0.134 C 
ENDROOT
BRANCH   1  10
HETATM   10  N1  UNL     1      25.662   3.025  52.256  1.00  0.00    -0.385 N 
HETATM   11  H8  UNL     1      25.767   3.529  53.173  1.00  0.00     0.160 HD
BRANCH  10  12
HETATM   12  C2  UNL     1      26.558   1.963  51.816  1.00  0.00     0.100 C 
HETATM   13  C1  UNL     1      25.820   0.652  51.959  1.00  0.00     0.036 C 
BRANCH  12  14
HETATM   14  C3  UNL     1      27.699   1.942  52.755  1.00  0.00     0.002 C 
HETATM   15  C4  UNL     1      28.173   0.782  53.199  1.00  0.00     0.081 C 
BRANCH  15  16
HETATM   16  C5  UNL     1      29.314   0.723  54.141  1.00  0.00     0.372 C 
HETATM   17  F1  UNL     1      30.396   0.103  53.545  1.00  0.00    -0.172 F 
HETATM   18  F2  UNL     1      28.961   0.050  55.294  1.00  0.00    -0.172 F 
BRANCH  16  19
HETATM   19  O1  UNL     1      29.702   2.024  54.435  1.00  0.00    -0.333 OA
HETATM   20  H7  UNL     1      30.671   2.137  54.477  1.00  0.00     0.216 HD
ENDBRANCH  16  19
ENDBRANCH  15  16
ENDBRANCH  12  14
ENDBRANCH  10  12
ENDBRANCH   1  10
BRANCH   8  21
HETATM   21  N4  UNL     1      22.265   1.673  51.458  1.00  0.00    -0.344 N 
HETATM   22  H13 UNL     1      22.737   0.897  50.888  1.00  0.00     0.167 HD
BRANCH  21  23
HETATM   23  C12 UNL     1      21.821   0.731  52.457  1.00  0.00     0.034 A 
HETATM   24  C13 UNL     1      22.647   0.257  53.482  1.00  0.00     0.029 A 
HETATM   25  C14 UNL     1      22.160  -0.646  54.411  1.00  0.00     0.004 A 
HETATM   26  C15 UNL     1      20.854  -1.066  54.307  1.00  0.00     0.019 A 
HETATM   27  C16 UNL     1      19.979  -0.647  53.327  1.00  0.00     0.013 A 
HETATM   28 BR1  UNL     1      18.172  -1.237  53.195  1.00  0.00    -0.051 Br
HETATM   29  C17 UNL     1      20.510   0.251  52.426  1.00  0.00     0.048 A 
ENDBRANCH  21  23
ENDBRANCH   8  21
TORSDOF 7
ENDMDL
MODEL 8
REMARK VINA RESULT:      -7.5      3.900      7.108
REMARK  7 active torsions:
REMARK  status: ('A' for Active; 'I' for Inactive)
REMARK    1  A    between atoms: C2_2  and  C3_3 
REMARK    2  A    between atoms: C2_2  and  N1_9 
REMARK    3  A    between atoms: C4_4  and  C5_5 
REMARK    4  A    between atoms: C5_5  and  O1_6 
REMARK    5  A    between atoms: N1_9  and  C6_10 
REMARK    6  A    between atoms: C11_17  and  N4_18 
REMARK    7  A    between atoms: N4_18  and  C12_19 
ROOT
HETATM    1  C6  UNL     1      23.700   2.607  52.489  1.00  0.00     0.012 C 
HETATM    2  C7  UNL     1      23.712   3.886  52.789  1.00  0.00     0.023 C 
HETATM    3  C8  UNL     1      22.568   4.759  52.370  1.00  0.00     0.001 C 
HETATM    4  C9  UNL     1      21.354   4.917  51.774  1.00  0.00     0.117 C 
HETATM    5  N2  UNL     1      20.207   4.445  51.094  1.00  0.00    -0.412 NA
HETATM    6  C10 UNL     1      20.281   3.660  50.060  1.00  0.00     0.438 C 
HETATM    7  N3  UNL     1      21.607   3.341  49.704  1.00  0.00    -0.245 NA
HETATM    8  C11 UNL     1      22.379   2.627  50.438  1.00  0.00     0.107 C 
HETATM    9  C18 UNL     1      22.813   1.808  51.630  1.00  0.00     0.134 C 
ENDROOT
BRANCH   1  10
HETATM   10  N1  UNL     1      24.893   1.985  53.016  1.00  0.00    -0.385 N 
HETATM   11  H8  UNL     1      25.392   2.558  53.743  1.00  0.00     0.160 HD
BRANCH  10  12
HETATM   12  C2  UNL     1      25.354   0.675  52.570  1.00  0.00     0.100 C 
HETATM   13  C1  UNL     1      24.758  -0.360  53.496  1.00  0.00     0.036 C 
BRANCH  12  14
HETATM   14  C3  UNL     1      26.821   0.648  52.751  1.00  0.00     0.002 C 
HETATM   15  C4  UNL     1      27.407   1.513  53.572  1.00  0.00     0.081 C 
BRANCH  15  16
HETATM   16  C5  UNL     1      28.873   1.514  53.776  1.00  0.00     0.372 C 
HETATM   17  F1  UNL     1      29.470   0.560  52.974  1.00  0.00    -0.172 F 
HETATM   18  F2  UNL     1      29.182   1.277  55.100  1.00  0.00    -0.172 F 
BRANCH  16  19
HETATM   19  O1  UNL     1      29.365   2.750  53.375  1.00  0.00    -0.333 OA
HETATM   20  H7  UNL     1      28.676   3.439  53.318  1.00  0.00     0.216 HD
ENDBRANCH  16  19
ENDBRANCH  15  16
ENDBRANCH  12  14
ENDBRANCH  10  12
ENDBRANCH   1  10
BRANCH   8  21
HETATM   21  N4  UNL     1      23.553   2.651  49.586  1.00  0.00    -0.344 N 
HETATM   22  H13 UNL     1      23.940   1.970  48.854  1.00  0.00     0.167 HD
BRANCH  21  23
HETATM   23  C12 UNL     1      24.648   3.567  49.378  1.00  0.00     0.034 A 
HETATM   24  C13 UNL     1      25.990   3.202  49.530  1.00  0.00     0.029 A 
HETATM   25  C14 UNL     1      26.996   4.128  49.313  1.00  0.00     0.004 A 
HETATM   26  C15 UNL     1      26.650   5.410  48.948  1.00  0.00     0.019 A 
HETATM   27  C16 UNL     1      25.353   5.845  48.778  1.00  0.00     0.013 A 
HETATM   28 BR1  UNL     1      24.889   7.623  48.271  1.00  0.00    -0.051 Br
HETATM   29  C17 UNL     1      24.389   4.887  49.005  1.00  0.00     0.048 A 
ENDBRANCH  21  23
ENDBRANCH   8  21
TORSDOF 7
ENDMDL
MODEL 9
REMARK VINA RESULT:      -7.5      3.714      6.020
REMARK  7 active torsions:
REMARK  status: ('A' for Active; 'I' for Inactive)
REMARK    1  A    between atoms: C2_2  and  C3_3 
REMARK    2  A    between atoms: C2_2  and  N1_9 
REMARK    3  A    between atoms: C4_4  and  C5_5 
REMARK    4  A    between atoms: C5_5  and  O1_6 
REMARK    5  A    between atoms: N1_9  and  C6_10 
REMARK    6  A    between atoms: C11_17  and  N4_18 
REMARK    7  A    between atoms: N4_18  and  C12_19 
ROOT
HETATM    1  C6  UNL     1      25.321   2.641  52.071  1.00  0.00     0.012 C 
HETATM    2  C7  UNL     1      26.380   2.451  51.316  1.00  0.00     0.023 C 
HETATM    3  C8  UNL     1      26.586   3.300  50.098  1.00  0.00     0.001 C 
HETATM    4  C9  UNL     1      26.193   4.314  49.279  1.00  0.00     0.117 C 
HETATM    5  N2  UNL     1      25.330   5.366  48.892  1.00  0.00    -0.412 NA
HETATM    6  C10 UNL     1      24.036   5.230  48.855  1.00  0.00     0.438 C 
HETATM    7  N3  UNL     1      23.606   3.943  49.236  1.00  0.00    -0.245 NA
HETATM    8  C11 UNL     1      23.728   3.487  50.428  1.00  0.00     0.107 C 
HETATM    9  C18 UNL     1      24.119   3.467  51.887  1.00  0.00     0.134 C 
ENDROOT
BRANCH   1  10
HETATM   10  N1  UNL     1      25.361   1.721  53.184  1.00  0.00    -0.385 N 
HETATM   11  H8  UNL     1      25.207   2.172  54.121  1.00  0.00     0.160 HD
BRANCH  10  12
HETATM   12  C2  UNL     1      25.596   0.293  53.009  1.00  0.00     0.100 C 
HETATM   13  C1  UNL     1      24.458  -0.444  53.678  1.00  0.00     0.036 C 
BRANCH  12  14
HETATM   14  C3  UNL     1      26.836  -0.036  53.744  1.00  0.00     0.002 C 
HETATM   15  C4  UNL     1      27.991  -0.125  53.092  1.00  0.00     0.081 C 
BRANCH  15  16
HETATM   16  C5  UNL     1      29.252  -0.452  53.794  1.00  0.00     0.372 C 
HETATM   17  F1  UNL     1      29.645  -1.745  53.499  1.00  0.00    -0.172 F 
HETATM   18  F2  UNL     1      29.104  -0.305  55.158  1.00  0.00    -0.172 F 
BRANCH  16  19
HETATM   19  O1  UNL     1      30.246   0.394  53.318  1.00  0.00    -0.333 OA
HETATM   20  H7  UNL     1      30.566   1.028  53.988  1.00  0.00     0.216 HD
ENDBRANCH  16  19
ENDBRANCH  15  16
ENDBRANCH  12  14
ENDBRANCH  10  12
ENDBRANCH   1  10
BRANCH   8  21
HETATM   21  N4  UNL     1      23.137   2.179  50.209  1.00  0.00    -0.344 N 
HETATM   22  H13 UNL     1      23.491   1.287  49.732  1.00  0.00     0.167 HD
BRANCH  21  23
HETATM   23  C12 UNL     1      21.875   1.560  50.533  1.00  0.00     0.034 A 
HETATM   24  C13 UNL     1      20.747   1.646  49.710  1.00  0.00     0.029 A 
HETATM   25  C14 UNL     1      19.565   1.028  50.076  1.00  0.00     0.004 A 
HETATM   26  C15 UNL     1      19.521   0.330  51.262  1.00  0.00     0.019 A 
HETATM   27  C16 UNL     1      20.587   0.200  52.126  1.00  0.00     0.013 A 
HETATM   28 BR1  UNL     1      20.511  -0.770  53.765  1.00  0.00    -0.051 Br
HETATM   29  C17 UNL     1      21.741   0.833  51.717  1.00  0.00     0.048 A 
ENDBRANCH  21  23
ENDBRANCH   8  21
TORSDOF 7
ENDMDL
