MODEL 1
REMARK VINA RESULT:      -8.1      0.000      0.000
REMARK  9 active torsions:
REMARK  status: ('A' for Active; 'I' for Inactive)
REMARK    1  A    between atoms: C2_2  and  N1_3 
REMARK    2  A    between atoms: C3_4  and  C4_5 
REMARK    3  A    between atoms: C5_8  and  N4_9 
REMARK    4  A    between atoms: C7_12  and  C8_13 
REMARK    5  A    between atoms: C9_14  and  C10_15 
REMARK    6  A    between atoms: C10_15  and  O1_18 
REMARK    7  A    between atoms: C14_21  and  O2_22 
REMARK    8  A    between atoms: O2_22  and  C15_23 
REMARK    9  A    between atoms: C15_23  and  C16_24 
ROOT
HETATM    1  N1  UNL     1      25.456   0.587  52.472  1.00  0.00    -0.326 N 
HETATM    2  C3  UNL     1      26.722   1.029  52.388  1.00  0.00     0.166 A 
HETATM    3  N5  UNL     1      26.683   2.177  51.649  1.00  0.00    -0.223 NA
HETATM    4  C6  UNL     1      25.398   2.402  51.304  1.00  0.00     0.126 A 
HETATM    5  C7  UNL     1      24.856   3.411  50.575  1.00  0.00     0.141 A 
HETATM    6  N6  UNL     1      23.509   3.429  50.352  1.00  0.00    -0.247 NA
HETATM    7  C13 UNL     1      22.732   2.450  50.855  1.00  0.00     0.157 A 
HETATM    8  C14 UNL     1      23.191   1.391  51.603  1.00  0.00     0.115 A 
HETATM    9  C21 UNL     1      24.577   1.391  51.821  1.00  0.00     0.103 A 
ENDROOT
BRANCH   8  10
HETATM   10  O2  UNL     1      22.598   0.363  52.165  1.00  0.00    -0.347 OA
BRANCH  10  11
HETATM   11  C15 UNL     1      21.614  -0.021  52.998  1.00  0.00     0.182 C 
BRANCH  11  12
HETATM   12  C16 UNL     1      20.242  -0.280  52.478  1.00  0.00     0.038 C 
HETATM   13  C17 UNL     1      19.603   1.109  52.255  1.00  0.00     0.010 C 
HETATM   14  C18 UNL     1      18.423   0.882  51.341  1.00  0.00     0.030 C 
HETATM   15  C19 UNL     1      17.831  -0.470  51.598  1.00  0.00     0.269 C 
HETATM   16  N7  UNL     1      17.918  -0.821  53.003  1.00  0.00     0.083 N 
HETATM   17  C20 UNL     1      19.306  -0.984  53.409  1.00  0.00     0.276 C 
HETATM   18  H25 UNL     1      17.365  -0.205  53.603  1.00  0.00     0.315 HD
ENDBRANCH  11  12
ENDBRANCH  10  11
ENDBRANCH   8  10
BRANCH   1  19
HETATM   19  C2  UNL     1      25.131  -0.621  53.191  1.00  0.00     0.126 C 
HETATM   20  C1  UNL     1      25.010  -0.399  54.674  1.00  0.00     0.027 C 
ENDBRANCH   1  19
BRANCH   5  21
HETATM   21  C8  UNL     1      25.599   4.491  50.002  1.00  0.00    -0.041 C 
HETATM   22  C9  UNL     1      26.210   5.405  49.507  1.00  0.00    -0.062 C 
BRANCH  22  23
HETATM   23  C10 UNL     1      26.937   6.522  48.884  1.00  0.00     0.114 C 
HETATM   24  C11 UNL     1      26.022   7.085  47.808  1.00  0.00     0.060 C 
HETATM   25  C12 UNL     1      28.189   6.051  48.169  1.00  0.00     0.060 C 
BRANCH  23  26
HETATM   26  O1  UNL     1      27.245   7.463  49.840  1.00  0.00    -0.378 OA
HETATM   27  H14 UNL     1      28.140   7.321  50.235  1.00  0.00     0.211 HD
ENDBRANCH  23  26
ENDBRANCH  22  23
ENDBRANCH   5  21
BRANCH   2  28
HETATM   28  C4  UNL     1      27.919   0.426  52.960  1.00  0.00     0.172 A 
HETATM   29  N2  UNL     1      28.598  -0.679  53.120  1.00  0.00    -0.140 NA
HETATM   30  N3  UNL     1      29.611  -0.077  53.843  1.00  0.00    -0.129 NA
HETATM   31  C5  UNL     1      29.002   1.053  53.730  1.00  0.00     0.178 A 
BRANCH  31  32
HETATM   32  N4  UNL     1      29.319   2.363  54.198  1.00  0.00    -0.381 N 
HETATM   33  H6  UNL     1      28.561   3.053  54.420  1.00  0.00     0.157 HD
HETATM   34  H7  UNL     1      30.238   2.832  54.385  1.00  0.00     0.157 HD
ENDBRANCH  31  32
ENDBRANCH   2  28
TORSDOF 9
ENDMDL
MODEL 2
REMARK VINA RESULT:      -8.1      2.716      8.495
REMARK  9 active torsions:
REMARK  status: ('A' for Active; 'I' for Inactive)
REMARK    1  A    between atoms: C2_2  and  N1_3 
REMARK    2  A    between atoms: C3_4  and  C4_5 
REMARK    3  A    between atoms: C5_8  and  N4_9 
REMARK    4  A    between atoms: C7_12  and  C8_13 
REMARK    5  A    between atoms: C9_14  and  C10_15 
REMARK    6  A    between atoms: C10_15  and  O1_18 
REMARK    7  A    between atoms: C14_21  and  O2_22 
REMARK    8  A    between atoms: O2_22  and  C15_23 
REMARK    9  A    between atoms: C15_23  and  C16_24 
ROOT
HETATM    1  N1  UNL     1      23.223   4.448  50.343  1.00  0.00    -0.326 N 
HETATM    2  C3  UNL     1      22.644   3.559  51.168  1.00  0.00     0.166 A 
HETATM    3  N5  UNL     1      23.617   2.669  51.523  1.00  0.00    -0.223 NA
HETATM    4  C6  UNL     1      24.759   3.038  50.907  1.00  0.00     0.126 A 
HETATM    5  C7  UNL     1      25.992   2.473  50.946  1.00  0.00     0.141 A 
HETATM    6  N6  UNL     1      27.009   3.032  50.227  1.00  0.00    -0.247 NA
HETATM    7  C13 UNL     1      26.783   4.136  49.489  1.00  0.00     0.157 A 
HETATM    8  C14 UNL     1      25.571   4.777  49.389  1.00  0.00     0.115 A 
HETATM    9  C21 UNL     1      24.538   4.187  50.135  1.00  0.00     0.103 A 
ENDROOT
BRANCH   8  10
HETATM   10  O2  UNL     1      25.167   5.840  48.733  1.00  0.00    -0.347 OA
BRANCH  10  11
HETATM   11  C15 UNL     1      25.562   6.926  48.044  1.00  0.00     0.182 C 
BRANCH  11  12
HETATM   12  C16 UNL     1      26.416   7.961  48.691  1.00  0.00     0.038 C 
HETATM   13  C17 UNL     1      27.874   7.487  48.504  1.00  0.00     0.010 C 
HETATM   14  C18 UNL     1      28.741   8.700  48.748  1.00  0.00     0.030 C 
HETATM   15  C19 UNL     1      28.093   9.594  49.760  1.00  0.00     0.269 C 
HETATM   16  N7  UNL     1      27.383   8.823  50.763  1.00  0.00     0.083 N 
HETATM   17  C20 UNL     1      26.253   8.122  50.169  1.00  0.00     0.276 C 
HETATM   18  H25 UNL     1      28.001   8.237  51.328  1.00  0.00     0.315 HD
ENDBRANCH  11  12
ENDBRANCH  10  11
ENDBRANCH   8  10
BRANCH   1  19
HETATM   19  C2  UNL     1      22.471   5.539  49.773  1.00  0.00     0.126 C 
HETATM   20  C1  UNL     1      22.503   6.776  50.628  1.00  0.00     0.027 C 
ENDBRANCH   1  19
BRANCH   5  21
HETATM   21  C8  UNL     1      26.327   1.303  51.699  1.00  0.00    -0.041 C 
HETATM   22  C9  UNL     1      26.624   0.328  52.343  1.00  0.00    -0.062 C 
BRANCH  22  23
HETATM   23  C10 UNL     1      27.006  -0.850  53.138  1.00  0.00     0.114 C 
HETATM   24  C11 UNL     1      28.490  -0.705  53.435  1.00  0.00     0.060 C 
HETATM   25  C12 UNL     1      26.859  -2.135  52.346  1.00  0.00     0.060 C 
BRANCH  23  26
HETATM   26  O1  UNL     1      26.253  -0.894  54.288  1.00  0.00    -0.378 OA
HETATM   27  H14 UNL     1      26.694  -1.409  55.008  1.00  0.00     0.211 HD
ENDBRANCH  23  26
ENDBRANCH  22  23
ENDBRANCH   5  21
BRANCH   2  28
HETATM   28  C4  UNL     1      21.257   3.525  51.614  1.00  0.00     0.172 A 
HETATM   29  N2  UNL     1      20.098   4.129  51.581  1.00  0.00    -0.140 NA
HETATM   30  N3  UNL     1      19.466   3.191  52.375  1.00  0.00    -0.129 NA
HETATM   31  C5  UNL     1      20.572   2.535  52.458  1.00  0.00     0.178 A 
BRANCH  31  32
HETATM   32  N4  UNL     1      20.921   1.324  53.128  1.00  0.00    -0.381 N 
HETATM   33  H6  UNL     1      20.323   0.467  53.036  1.00  0.00     0.157 HD
HETATM   34  H7  UNL     1      21.726   1.083  53.754  1.00  0.00     0.157 HD
ENDBRANCH  31  32
ENDBRANCH   2  28
TORSDOF 9
ENDMDL
MODEL 3
REMARK VINA RESULT:      -8.0      3.265      8.167
REMARK  9 active torsions:
REMARK  status: ('A' for Active; 'I' for Inactive)
REMARK    1  A    between atoms: C2_2  and  N1_3 
REMARK    2  A    between atoms: C3_4  and  C4_5 
REMARK    3  A    between atoms: C5_8  and  N4_9 
REMARK    4  A    between atoms: C7_12  and  C8_13 
REMARK    5  A    between atoms: C9_14  and  C10_15 
REMARK    6  A    between atoms: C10_15  and  O1_18 
REMARK    7  A    between atoms: C14_21  and  O2_22 
REMARK    8  A    between atoms: O2_22  and  C15_23 
REMARK    9  A    between atoms: C15_23  and  C16_24 
ROOT
HETATM    1  N1  UNL     1      22.385   1.667  52.174  1.00  0.00    -0.326 N 
HETATM    2  C3  UNL     1      21.471   1.021  52.919  1.00  0.00     0.166 A 
HETATM    3  N5  UNL     1      20.279   1.651  52.702  1.00  0.00    -0.223 NA
HETATM    4  C6  UNL     1      20.497   2.660  51.833  1.00  0.00     0.126 A 
HETATM    5  C7  UNL     1      19.629   3.565  51.313  1.00  0.00     0.141 A 
HETATM    6  N6  UNL     1      20.088   4.508  50.440  1.00  0.00    -0.247 NA
HETATM    7  C13 UNL     1      21.392   4.534  50.101  1.00  0.00     0.157 A 
HETATM    8  C14 UNL     1      22.341   3.660  50.575  1.00  0.00     0.115 A 
HETATM    9  C21 UNL     1      21.851   2.698  51.471  1.00  0.00     0.103 A 
ENDROOT
BRANCH   8  10
HETATM   10  O2  UNL     1      23.631   3.533  50.364  1.00  0.00    -0.347 OA
BRANCH  10  11
HETATM   11  C15 UNL     1      24.594   3.474  49.427  1.00  0.00     0.182 C 
BRANCH  11  12
HETATM   12  C16 UNL     1      25.440   4.666  49.137  1.00  0.00     0.038 C 
HETATM   13  C17 UNL     1      26.903   4.183  49.240  1.00  0.00     0.010 C 
HETATM   14  C18 UNL     1      27.737   5.227  48.536  1.00  0.00     0.030 C 
HETATM   15  C19 UNL     1      27.107   6.577  48.698  1.00  0.00     0.269 C 
HETATM   16  N7  UNL     1      26.473   6.707  49.996  1.00  0.00     0.083 N 
HETATM   17  C20 UNL     1      25.342   5.797  50.112  1.00  0.00     0.276 C 
HETATM   18  H25 UNL     1      27.138   6.664  50.772  1.00  0.00     0.315 HD
ENDBRANCH  11  12
ENDBRANCH  10  11
ENDBRANCH   8  10
BRANCH   1  19
HETATM   19  C2  UNL     1      23.768   1.259  52.167  1.00  0.00     0.126 C 
HETATM   20  C1  UNL     1      24.602   2.017  53.164  1.00  0.00     0.027 C 
ENDBRANCH   1  19
BRANCH   5  21
HETATM   21  C8  UNL     1      18.231   3.616  51.613  1.00  0.00    -0.041 C 
HETATM   22  C9  UNL     1      17.057   3.659  51.886  1.00  0.00    -0.062 C 
BRANCH  22  23
HETATM   23  C10 UNL     1      15.631   3.702  52.242  1.00  0.00     0.114 C 
HETATM   24  C11 UNL     1      15.191   2.259  52.434  1.00  0.00     0.060 C 
HETATM   25  C12 UNL     1      14.784   4.252  51.110  1.00  0.00     0.060 C 
BRANCH  23  26
HETATM   26  O1  UNL     1      15.463   4.448  53.386  1.00  0.00    -0.378 OA
HETATM   27  H14 UNL     1      15.935   4.059  54.162  1.00  0.00     0.211 HD
ENDBRANCH  23  26
ENDBRANCH  22  23
ENDBRANCH   5  21
BRANCH   2  28
HETATM   28  C4  UNL     1      21.681  -0.124  53.795  1.00  0.00     0.172 A 
HETATM   29  N2  UNL     1      22.538  -0.767  54.543  1.00  0.00    -0.140 NA
HETATM   30  N3  UNL     1      21.639  -1.748  54.917  1.00  0.00    -0.129 NA
HETATM   31  C5  UNL     1      20.735  -1.174  54.201  1.00  0.00     0.178 A 
BRANCH  31  32
HETATM   32  N4  UNL     1      19.367  -1.492  53.947  1.00  0.00    -0.381 N 
HETATM   33  H6  UNL     1      18.598  -1.036  54.496  1.00  0.00     0.157 HD
HETATM   34  H7  UNL     1      18.921  -2.148  53.263  1.00  0.00     0.157 HD
ENDBRANCH  31  32
ENDBRANCH   2  28
TORSDOF 9
ENDMDL
MODEL 4
REMARK VINA RESULT:      -7.9      3.047      5.518
REMARK  9 active torsions:
REMARK  status: ('A' for Active; 'I' for Inactive)
REMARK    1  A    between atoms: C2_2  and  N1_3 
REMARK    2  A    between atoms: C3_4  and  C4_5 
REMARK    3  A    between atoms: C5_8  and  N4_9 
REMARK    4  A    between atoms: C7_12  and  C8_13 
REMARK    5  A    between atoms: C9_14  and  C10_15 
REMARK    6  A    between atoms: C10_15  and  O1_18 
REMARK    7  A    between atoms: C14_21  and  O2_22 
REMARK    8  A    between atoms: O2_22  and  C15_23 
REMARK    9  A    between atoms: C15_23  and  C16_24 
ROOT
HETATM    1  N1  UNL     1      22.528   2.701  51.156  1.00  0.00    -0.326 N 
HETATM    2  C3  UNL     1      23.720   3.303  51.016  1.00  0.00     0.166 A 
HETATM    3  N5  UNL     1      24.633   2.510  51.651  1.00  0.00    -0.223 NA
HETATM    4  C6  UNL     1      23.973   1.449  52.160  1.00  0.00     0.126 A 
HETATM    5  C7  UNL     1      24.442   0.392  52.871  1.00  0.00     0.141 A 
HETATM    6  N6  UNL     1      23.572  -0.575  53.287  1.00  0.00    -0.247 NA
HETATM    7  C13 UNL     1      22.261  -0.473  52.990  1.00  0.00     0.157 A 
HETATM    8  C14 UNL     1      21.698   0.558  52.277  1.00  0.00     0.115 A 
HETATM    9  C21 UNL     1      22.608   1.541  51.858  1.00  0.00     0.103 A 
ENDROOT
BRANCH   8  10
HETATM   10  O2  UNL     1      20.469   0.824  51.898  1.00  0.00    -0.347 OA
BRANCH  10  11
HETATM   11  C15 UNL     1      19.441   0.420  51.131  1.00  0.00     0.182 C 
BRANCH  11  12
HETATM   12  C16 UNL     1      18.377  -0.458  51.693  1.00  0.00     0.038 C 
HETATM   13  C17 UNL     1      17.097   0.405  51.746  1.00  0.00     0.010 C 
HETATM   14  C18 UNL     1      15.947  -0.563  51.887  1.00  0.00     0.030 C 
HETATM   15  C19 UNL     1      16.385  -1.765  52.666  1.00  0.00     0.269 C 
HETATM   16  N7  UNL     1      17.342  -1.403  53.695  1.00  0.00     0.083 N 
HETATM   17  C20 UNL     1      18.582  -0.924  53.101  1.00  0.00     0.276 C 
HETATM   18  H25 UNL     1      16.945  -0.791  54.411  1.00  0.00     0.315 HD
ENDBRANCH  11  12
ENDBRANCH  10  11
ENDBRANCH   8  10
BRANCH   1  19
HETATM   19  C2  UNL     1      21.329   3.276  50.600  1.00  0.00     0.126 C 
HETATM   20  C1  UNL     1      20.647   4.228  51.545  1.00  0.00     0.027 C 
ENDBRANCH   1  19
BRANCH   5  21
HETATM   21  C8  UNL     1      25.812   0.198  53.234  1.00  0.00    -0.041 C 
HETATM   22  C9  UNL     1      26.965   0.050  53.554  1.00  0.00    -0.062 C 
BRANCH  22  23
HETATM   23  C10 UNL     1      28.371  -0.109  53.957  1.00  0.00     0.114 C 
HETATM   24  C11 UNL     1      29.104   1.125  53.455  1.00  0.00     0.060 C 
HETATM   25  C12 UNL     1      29.024  -1.294  53.271  1.00  0.00     0.060 C 
BRANCH  23  26
HETATM   26  O1  UNL     1      28.448  -0.233  55.325  1.00  0.00    -0.378 OA
HETATM   27  H14 UNL     1      29.034  -0.978  55.604  1.00  0.00     0.211 HD
ENDBRANCH  23  26
ENDBRANCH  22  23
ENDBRANCH   5  21
BRANCH   2  28
HETATM   28  C4  UNL     1      24.014   4.554  50.328  1.00  0.00     0.172 A 
HETATM   29  N2  UNL     1      24.196   5.130  49.169  1.00  0.00    -0.140 NA
HETATM   30  N3  UNL     1      24.422   6.383  49.708  1.00  0.00    -0.129 NA
HETATM   31  C5  UNL     1      24.256   5.892  50.887  1.00  0.00     0.178 A 
BRANCH  31  32
HETATM   32  N4  UNL     1      24.303   6.480  52.186  1.00  0.00    -0.381 N 
HETATM   33  H6  UNL     1      23.858   6.005  53.008  1.00  0.00     0.157 HD
HETATM   34  H7  UNL     1      24.730   7.373  52.530  1.00  0.00     0.157 HD
ENDBRANCH  31  32
ENDBRANCH   2  28
TORSDOF 9
ENDMDL
MODEL 5
REMARK VINA RESULT:      -7.8      2.960      6.192
REMARK  9 active torsions:
REMARK  status: ('A' for Active; 'I' for Inactive)
REMARK    1  A    between atoms: C2_2  and  N1_3 
REMARK    2  A    between atoms: C3_4  and  C4_5 
REMARK    3  A    between atoms: C5_8  and  N4_9 
REMARK    4  A    between atoms: C7_12  and  C8_13 
REMARK    5  A    between atoms: C9_14  and  C10_15 
REMARK    6  A    between atoms: C10_15  and  O1_18 
REMARK    7  A    between atoms: C14_21  and  O2_22 
REMARK    8  A    between atoms: O2_22  and  C15_23 
REMARK    9  A    between atoms: C15_23  and  C16_24 
ROOT
HETATM    1  N1  UNL     1      22.389   1.098  51.799  1.00  0.00    -0.326 N 
HETATM    2  C3  UNL     1      22.774   0.311  52.818  1.00  0.00     0.166 A 
HETATM    3  N5  UNL     1      24.117   0.508  52.975  1.00  0.00    -0.223 NA
HETATM    4  C6  UNL     1      24.512   1.407  52.050  1.00  0.00     0.126 A 
HETATM    5  C7  UNL     1      25.744   1.923  51.808  1.00  0.00     0.141 A 
HETATM    6  N6  UNL     1      25.904   2.832  50.802  1.00  0.00    -0.247 NA
HETATM    7  C13 UNL     1      24.844   3.209  50.061  1.00  0.00     0.157 A 
HETATM    8  C14 UNL     1      23.562   2.743  50.234  1.00  0.00     0.115 A 
HETATM    9  C21 UNL     1      23.418   1.809  51.272  1.00  0.00     0.103 A 
ENDROOT
BRANCH   8  10
HETATM   10  O2  UNL     1      22.426   2.988  49.623  1.00  0.00    -0.347 OA
BRANCH  10  11
HETATM   11  C15 UNL     1      21.710   3.911  48.957  1.00  0.00     0.182 C 
BRANCH  11  12
HETATM   12  C16 UNL     1      21.527   5.277  49.524  1.00  0.00     0.038 C 
HETATM   13  C17 UNL     1      22.708   6.120  48.995  1.00  0.00     0.010 C 
HETATM   14  C18 UNL     1      22.310   7.564  49.186  1.00  0.00     0.030 C 
HETATM   15  C19 UNL     1      21.440   7.696  50.399  1.00  0.00     0.269 C 
HETATM   16  N7  UNL     1      21.843   6.765  51.436  1.00  0.00     0.083 N 
HETATM   17  C20 UNL     1      21.614   5.391  51.013  1.00  0.00     0.276 C 
HETATM   18  H25 UNL     1      22.781   6.952  51.798  1.00  0.00     0.315 HD
ENDBRANCH  11  12
ENDBRANCH  10  11
ENDBRANCH   8  10
BRANCH   1  19
HETATM   19  C2  UNL     1      21.016   1.135  51.361  1.00  0.00     0.126 C 
HETATM   20  C1  UNL     1      20.193   2.144  52.114  1.00  0.00     0.027 C 
ENDBRANCH   1  19
BRANCH   5  21
HETATM   21  C8  UNL     1      26.927   1.583  52.538  1.00  0.00    -0.041 C 
HETATM   22  C9  UNL     1      27.911   1.293  53.171  1.00  0.00    -0.062 C 
BRANCH  22  23
HETATM   23  C10 UNL     1      29.100   0.942  53.963  1.00  0.00     0.114 C 
HETATM   24  C11 UNL     1      29.914  -0.022  53.114  1.00  0.00     0.060 C 
HETATM   25  C12 UNL     1      28.732   0.184  55.225  1.00  0.00     0.060 C 
BRANCH  23  26
HETATM   26  O1  UNL     1      29.807   2.083  54.267  1.00  0.00    -0.378 OA
HETATM   27  H14 UNL     1      30.002   2.629  53.466  1.00  0.00     0.211 HD
ENDBRANCH  23  26
ENDBRANCH  22  23
ENDBRANCH   5  21
BRANCH   2  28
HETATM   28  C4  UNL     1      21.948  -0.585  53.616  1.00  0.00     0.172 A 
HETATM   29  N2  UNL     1      20.769  -1.136  53.748  1.00  0.00    -0.140 NA
HETATM   30  N3  UNL     1      21.104  -1.834  54.893  1.00  0.00    -0.129 NA
HETATM   31  C5  UNL     1      22.290  -1.333  54.835  1.00  0.00     0.178 A 
BRANCH  31  32
HETATM   32  N4  UNL     1      23.439  -1.491  55.667  1.00  0.00    -0.381 N 
HETATM   33  H6  UNL     1      23.591  -2.374  56.212  1.00  0.00     0.157 HD
HETATM   34  H7  UNL     1      24.242  -0.850  55.871  1.00  0.00     0.157 HD
ENDBRANCH  31  32
ENDBRANCH   2  28
TORSDOF 9
ENDMDL
MODEL 6
REMARK VINA RESULT:      -7.7      3.106      8.698
REMARK  9 active torsions:
REMARK  status: ('A' for Active; 'I' for Inactive)
REMARK    1  A    between atoms: C2_2  and  N1_3 
REMARK    2  A    between atoms: C3_4  and  C4_5 
REMARK    3  A    between atoms: C5_8  and  N4_9 
REMARK    4  A    between atoms: C7_12  and  C8_13 
REMARK    5  A    between atoms: C9_14  and  C10_15 
REMARK    6  A    between atoms: C10_15  and  O1_18 
REMARK    7  A    between atoms: C14_21  and  O2_22 
REMARK    8  A    between atoms: O2_22  and  C15_23 
REMARK    9  A    between atoms: C15_23  and  C16_24 
ROOT
HETATM    1  N1  UNL     1      22.665   1.608  51.912  1.00  0.00    -0.326 N 
HETATM    2  C3  UNL     1      21.626   2.045  51.181  1.00  0.00     0.166 A 
HETATM    3  N5  UNL     1      20.546   1.299  51.558  1.00  0.00    -0.223 NA
HETATM    4  C6  UNL     1      20.955   0.430  52.506  1.00  0.00     0.126 A 
HETATM    5  C7  UNL     1      20.253  -0.512  53.185  1.00  0.00     0.141 A 
HETATM    6  N6  UNL     1      20.892  -1.286  54.111  1.00  0.00    -0.247 NA
HETATM    7  C13 UNL     1      22.207  -1.108  54.344  1.00  0.00     0.157 A 
HETATM    8  C14 UNL     1      22.997  -0.181  53.707  1.00  0.00     0.115 A 
HETATM    9  C21 UNL     1      22.323   0.604  52.759  1.00  0.00     0.103 A 
ENDROOT
BRANCH   8  10
HETATM   10  O2  UNL     1      24.269   0.130  53.798  1.00  0.00    -0.347 OA
BRANCH  10  11
HETATM   11  C15 UNL     1      25.484  -0.300  54.182  1.00  0.00     0.182 C 
BRANCH  11  12
HETATM   12  C16 UNL     1      26.650   0.628  54.179  1.00  0.00     0.038 C 
HETATM   13  C17 UNL     1      27.030   0.828  52.695  1.00  0.00     0.010 C 
HETATM   14  C18 UNL     1      27.890   2.068  52.649  1.00  0.00     0.030 C 
HETATM   15  C19 UNL     1      28.679   2.190  53.917  1.00  0.00     0.269 C 
HETATM   16  N7  UNL     1      29.068   0.885  54.419  1.00  0.00     0.083 N 
HETATM   17  C20 UNL     1      27.899   0.120  54.828  1.00  0.00     0.276 C 
HETATM   18  H25 UNL     1      29.706   0.390  53.792  1.00  0.00     0.315 HD
ENDBRANCH  11  12
ENDBRANCH  10  11
ENDBRANCH   8  10
BRANCH   1  19
HETATM   19  C2  UNL     1      23.979   2.185  51.764  1.00  0.00     0.126 C 
HETATM   20  C1  UNL     1      24.227   3.319  52.721  1.00  0.00     0.027 C 
ENDBRANCH   1  19
BRANCH   5  21
HETATM   21  C8  UNL     1      18.858  -0.773  53.007  1.00  0.00    -0.041 C 
HETATM   22  C9  UNL     1      17.686  -0.999  52.838  1.00  0.00    -0.062 C 
BRANCH  22  23
HETATM   23  C10 UNL     1      16.259  -1.277  52.606  1.00  0.00     0.114 C 
HETATM   24  C11 UNL     1      16.071  -2.770  52.821  1.00  0.00     0.060 C 
HETATM   25  C12 UNL     1      15.858  -1.004  51.169  1.00  0.00     0.060 C 
BRANCH  23  26
HETATM   26  O1  UNL     1      15.497  -0.532  53.477  1.00  0.00    -0.378 OA
HETATM   27  H14 UNL     1      15.016  -1.094  54.132  1.00  0.00     0.211 HD
ENDBRANCH  23  26
ENDBRANCH  22  23
ENDBRANCH   5  21
BRANCH   2  28
HETATM   28  C4  UNL     1      21.621   3.102  50.178  1.00  0.00     0.172 A 
HETATM   29  N2  UNL     1      21.418   4.373  49.952  1.00  0.00    -0.140 NA
HETATM   30  N3  UNL     1      21.705   4.288  48.602  1.00  0.00    -0.129 NA
HETATM   31  C5  UNL     1      21.923   3.027  48.741  1.00  0.00     0.178 A 
BRANCH  31  32
HETATM   32  N4  UNL     1      22.306   2.012  47.814  1.00  0.00    -0.381 N 
HETATM   33  H6  UNL     1      21.822   1.918  46.888  1.00  0.00     0.157 HD
HETATM   34  H7  UNL     1      23.041   1.266  47.863  1.00  0.00     0.157 HD
ENDBRANCH  31  32
ENDBRANCH   2  28
TORSDOF 9
ENDMDL
MODEL 7
REMARK VINA RESULT:      -7.7      1.484      2.191
REMARK  9 active torsions:
REMARK  status: ('A' for Active; 'I' for Inactive)
REMARK    1  A    between atoms: C2_2  and  N1_3 
REMARK    2  A    between atoms: C3_4  and  C4_5 
REMARK    3  A    between atoms: C5_8  and  N4_9 
REMARK    4  A    between atoms: C7_12  and  C8_13 
REMARK    5  A    between atoms: C9_14  and  C10_15 
REMARK    6  A    between atoms: C10_15  and  O1_18 
REMARK    7  A    between atoms: C14_21  and  O2_22 
REMARK    8  A    between atoms: O2_22  and  C15_23 
REMARK    9  A    between atoms: C15_23  and  C16_24 
ROOT
HETATM    1  N1  UNL     1      25.187   1.921  51.441  1.00  0.00    -0.326 N 
HETATM    2  C3  UNL     1      26.520   1.913  51.613  1.00  0.00     0.166 A 
HETATM    3  N5  UNL     1      27.017   2.922  50.839  1.00  0.00    -0.223 NA
HETATM    4  C6  UNL     1      25.977   3.517  50.218  1.00  0.00     0.126 A 
HETATM    5  C7  UNL     1      25.961   4.561  49.352  1.00  0.00     0.141 A 
HETATM    6  N6  UNL     1      24.770   4.995  48.845  1.00  0.00    -0.247 NA
HETATM    7  C13 UNL     1      23.624   4.385  49.207  1.00  0.00     0.157 A 
HETATM    8  C14 UNL     1      23.542   3.323  50.076  1.00  0.00     0.115 A 
HETATM    9  C21 UNL     1      24.777   2.893  50.586  1.00  0.00     0.103 A 
ENDROOT
BRANCH   8  10
HETATM   10  O2  UNL     1      22.538   2.614  50.537  1.00  0.00    -0.347 OA
BRANCH  10  11
HETATM   11  C15 UNL     1      21.231   2.334  50.397  1.00  0.00     0.182 C 
BRANCH  11  12
HETATM   12  C16 UNL     1      20.522   1.504  51.411  1.00  0.00     0.038 C 
HETATM   13  C17 UNL     1      21.198   0.116  51.372  1.00  0.00     0.010 C 
HETATM   14  C18 UNL     1      20.806  -0.574  52.657  1.00  0.00     0.030 C 
HETATM   15  C19 UNL     1      19.439  -0.130  53.078  1.00  0.00     0.269 C 
HETATM   16  N7  UNL     1      18.587   0.104  51.927  1.00  0.00     0.083 N 
HETATM   17  C20 UNL     1      19.075   1.231  51.145  1.00  0.00     0.276 C 
HETATM   18  H25 UNL     1      18.403  -0.744  51.387  1.00  0.00     0.315 HD
ENDBRANCH  11  12
ENDBRANCH  10  11
ENDBRANCH   8  10
BRANCH   1  19
HETATM   19  C2  UNL     1      24.339   0.972  52.120  1.00  0.00     0.126 C 
HETATM   20  C1  UNL     1      23.865   1.470  53.457  1.00  0.00     0.027 C 
ENDBRANCH   1  19
BRANCH   5  21
HETATM   21  C8  UNL     1      27.124   5.269  48.910  1.00  0.00    -0.041 C 
HETATM   22  C9  UNL     1      28.114   5.855  48.551  1.00  0.00    -0.062 C 
BRANCH  22  23
HETATM   23  C10 UNL     1      29.335   6.562  48.133  1.00  0.00     0.114 C 
HETATM   24  C11 UNL     1      28.957   7.392  46.916  1.00  0.00     0.060 C 
HETATM   25  C12 UNL     1      30.412   5.601  47.668  1.00  0.00     0.060 C 
BRANCH  23  26
HETATM   26  O1  UNL     1      29.792   7.345  49.168  1.00  0.00    -0.378 OA
HETATM   27  H14 UNL     1      30.310   6.828  49.832  1.00  0.00     0.211 HD
ENDBRANCH  23  26
ENDBRANCH  22  23
ENDBRANCH   5  21
BRANCH   2  28
HETATM   28  C4  UNL     1      27.307   1.017  52.451  1.00  0.00     0.172 A 
HETATM   29  N2  UNL     1      27.529  -0.225  52.789  1.00  0.00    -0.140 NA
HETATM   30  N3  UNL     1      28.522   0.088  53.699  1.00  0.00    -0.129 NA
HETATM   31  C5  UNL     1      28.364   1.336  53.421  1.00  0.00     0.178 A 
BRANCH  31  32
HETATM   32  N4  UNL     1      29.005   2.515  53.907  1.00  0.00    -0.381 N 
HETATM   33  H6  UNL     1      28.525   3.446  53.861  1.00  0.00     0.157 HD
HETATM   34  H7  UNL     1      29.946   2.665  54.344  1.00  0.00     0.157 HD
ENDBRANCH  31  32
ENDBRANCH   2  28
TORSDOF 9
ENDMDL
MODEL 8
REMARK VINA RESULT:      -7.7      2.621      7.372
REMARK  9 active torsions:
REMARK  status: ('A' for Active; 'I' for Inactive)
REMARK    1  A    between atoms: C2_2  and  N1_3 
REMARK    2  A    between atoms: C3_4  and  C4_5 
REMARK    3  A    between atoms: C5_8  and  N4_9 
REMARK    4  A    between atoms: C7_12  and  C8_13 
REMARK    5  A    between atoms: C9_14  and  C10_15 
REMARK    6  A    between atoms: C10_15  and  O1_18 
REMARK    7  A    between atoms: C14_21  and  O2_22 
REMARK    8  A    between atoms: O2_22  and  C15_23 
REMARK    9  A    between atoms: C15_23  and  C16_24 
ROOT
HETATM    1  N1  UNL     1      22.811   2.352  51.186  1.00  0.00    -0.326 N 
HETATM    2  C3  UNL     1      22.742   1.418  52.150  1.00  0.00     0.166 A 
HETATM    3  N5  UNL     1      24.027   1.049  52.426  1.00  0.00    -0.223 NA
HETATM    4  C6  UNL     1      24.843   1.766  51.625  1.00  0.00     0.126 A 
HETATM    5  C7  UNL     1      26.197   1.756  51.528  1.00  0.00     0.141 A 
HETATM    6  N6  UNL     1      26.811   2.582  50.631  1.00  0.00    -0.247 NA
HETATM    7  C13 UNL     1      26.072   3.398  49.853  1.00  0.00     0.157 A 
HETATM    8  C14 UNL     1      24.700   3.477  49.882  1.00  0.00     0.115 A 
HETATM    9  C21 UNL     1      24.088   2.620  50.810  1.00  0.00     0.103 A 
ENDROOT
BRANCH   8  10
HETATM   10  O2  UNL     1      23.827   4.194  49.214  1.00  0.00    -0.347 OA
BRANCH  10  11
HETATM   11  C15 UNL     1      23.638   5.323  48.508  1.00  0.00     0.182 C 
BRANCH  11  12
HETATM   12  C16 UNL     1      24.189   6.619  48.993  1.00  0.00     0.038 C 
HETATM   13  C17 UNL     1      25.599   6.741  48.373  1.00  0.00     0.010 C 
HETATM   14  C18 UNL     1      25.979   8.198  48.486  1.00  0.00     0.030 C 
HETATM   15  C19 UNL     1      25.364   8.792  49.716  1.00  0.00     0.269 C 
HETATM   16  N7  UNL     1      25.314   7.824  50.796  1.00  0.00     0.083 N 
HETATM   17  C20 UNL     1      24.410   6.731  50.468  1.00  0.00     0.276 C 
HETATM   18  H25 UNL     1      26.241   7.533  51.114  1.00  0.00     0.315 HD
ENDBRANCH  11  12
ENDBRANCH  10  11
ENDBRANCH   8  10
BRANCH   1  19
HETATM   19  C2  UNL     1      21.621   2.965  50.651  1.00  0.00     0.126 C 
HETATM   20  C1  UNL     1      21.219   4.206  51.401  1.00  0.00     0.027 C 
ENDBRANCH   1  19
BRANCH   5  21
HETATM   21  C8  UNL     1      27.063   0.926  52.309  1.00  0.00    -0.041 C 
HETATM   22  C9  UNL     1      27.808   0.236  52.958  1.00  0.00    -0.062 C 
BRANCH  22  23
HETATM   23  C10 UNL     1      28.737  -0.601  53.734  1.00  0.00     0.114 C 
HETATM   24  C11 UNL     1      30.127  -0.032  53.498  1.00  0.00     0.060 C 
HETATM   25  C12 UNL     1      28.774  -2.027  53.221  1.00  0.00     0.060 C 
BRANCH  23  26
HETATM   26  O1  UNL     1      28.386  -0.568  55.064  1.00  0.00    -0.378 OA
HETATM   27  H14 UNL     1      29.126  -0.850  55.656  1.00  0.00     0.211 HD
ENDBRANCH  23  26
ENDBRANCH  22  23
ENDBRANCH   5  21
BRANCH   2  28
HETATM   28  C4  UNL     1      21.548   0.884  52.792  1.00  0.00     0.172 A 
HETATM   29  N2  UNL     1      20.241   0.881  52.806  1.00  0.00    -0.140 NA
HETATM   30  N3  UNL     1      20.148  -0.008  53.860  1.00  0.00    -0.129 NA
HETATM   31  C5  UNL     1      21.434  -0.061  53.912  1.00  0.00     0.178 A 
BRANCH  31  32
HETATM   32  N4  UNL     1      22.330  -0.780  54.758  1.00  0.00    -0.381 N 
HETATM   33  H6  UNL     1      22.594  -0.408  55.702  1.00  0.00     0.157 HD
HETATM   34  H7  UNL     1      22.832  -1.690  54.624  1.00  0.00     0.157 HD
ENDBRANCH  31  32
ENDBRANCH   2  28
TORSDOF 9
ENDMDL
MODEL 9
REMARK VINA RESULT:      -7.6      2.364      3.390
REMARK  9 active torsions:
REMARK  status: ('A' for Active; 'I' for Inactive)
REMARK    1  A    between atoms: C2_2  and  N1_3 
REMARK    2  A    between atoms: C3_4  and  C4_5 
REMARK    3  A    between atoms: C5_8  and  N4_9 
REMARK    4  A    between atoms: C7_12  and  C8_13 
REMARK    5  A    between atoms: C9_14  and  C10_15 
REMARK    6  A    between atoms: C10_15  and  O1_18 
REMARK    7  A    between atoms: C14_21  and  O2_22 
REMARK    8  A    between atoms: O2_22  and  C15_23 
REMARK    9  A    between atoms: C15_23  and  C16_24 
ROOT
HETATM    1  N1  UNL     1      22.422  -0.058  53.084  1.00  0.00    -0.326 N 
HETATM    2  C3  UNL     1      23.674   0.422  53.179  1.00  0.00     0.166 A 
HETATM    3  N5  UNL     1      23.634   1.705  52.710  1.00  0.00    -0.223 NA
HETATM    4  C6  UNL     1      22.363   1.970  52.343  1.00  0.00     0.126 A 
HETATM    5  C7  UNL     1      21.826   3.103  51.822  1.00  0.00     0.141 A 
HETATM    6  N6  UNL     1      20.494   3.138  51.524  1.00  0.00    -0.247 NA
HETATM    7  C13 UNL     1      19.726   2.053  51.749  1.00  0.00     0.157 A 
HETATM    8  C14 UNL     1      20.181   0.867  52.272  1.00  0.00     0.115 A 
HETATM    9  C21 UNL     1      21.553   0.850  52.572  1.00  0.00     0.103 A 
ENDROOT
BRANCH   8  10
HETATM   10  O2  UNL     1      19.596  -0.275  52.556  1.00  0.00    -0.347 OA
BRANCH  10  11
HETATM   11  C15 UNL     1      18.672  -0.878  53.324  1.00  0.00     0.182 C 
BRANCH  11  12
HETATM   12  C16 UNL     1      17.498  -1.554  52.704  1.00  0.00     0.038 C 
HETATM   13  C17 UNL     1      16.316  -0.569  52.846  1.00  0.00     0.010 C 
HETATM   14  C18 UNL     1      15.268  -1.032  51.863  1.00  0.00     0.030 C 
HETATM   15  C19 UNL     1      15.327  -2.522  51.718  1.00  0.00     0.269 C 
HETATM   16  N7  UNL     1      15.674  -3.157  52.975  1.00  0.00     0.083 N 
HETATM   17  C20 UNL     1      17.031  -2.809  53.372  1.00  0.00     0.276 C 
HETATM   18  H25 UNL     1      14.967  -3.019  53.701  1.00  0.00     0.315 HD
ENDBRANCH  11  12
ENDBRANCH  10  11
ENDBRANCH   8  10
BRANCH   1  19
HETATM   19  C2  UNL     1      22.103  -1.402  53.497  1.00  0.00     0.126 C 
HETATM   20  C1  UNL     1      21.821  -1.505  54.971  1.00  0.00     0.027 C 
ENDBRANCH   1  19
BRANCH   5  21
HETATM   21  C8  UNL     1      22.560   4.300  51.549  1.00  0.00    -0.041 C 
HETATM   22  C9  UNL     1      23.175   5.316  51.338  1.00  0.00    -0.062 C 
BRANCH  22  23
HETATM   23  C10 UNL     1      23.917   6.564  51.102  1.00  0.00     0.114 C 
HETATM   24  C11 UNL     1      22.907   7.571  50.573  1.00  0.00     0.060 C 
HETATM   25  C12 UNL     1      24.960   6.403  50.013  1.00  0.00     0.060 C 
BRANCH  23  26
HETATM   26  O1  UNL     1      24.496   6.986  52.276  1.00  0.00    -0.378 OA
HETATM   27  H14 UNL     1      24.342   7.947  52.449  1.00  0.00     0.211 HD
ENDBRANCH  23  26
ENDBRANCH  22  23
ENDBRANCH   5  21
BRANCH   2  28
HETATM   28  C4  UNL     1      24.858  -0.264  53.678  1.00  0.00     0.172 A 
HETATM   29  N2  UNL     1      25.371  -0.952  54.665  1.00  0.00    -0.140 NA
HETATM   30  N3  UNL     1      26.606  -1.098  54.062  1.00  0.00    -0.129 NA
HETATM   31  C5  UNL     1      26.176  -0.428  53.049  1.00  0.00     0.178 A 
BRANCH  31  32
HETATM   32  N4  UNL     1      26.798  -0.036  51.826  1.00  0.00    -0.381 N 
HETATM   33  H6  UNL     1      27.358   0.849  51.767  1.00  0.00     0.157 HD
HETATM   34  H7  UNL     1      26.817  -0.486  50.880  1.00  0.00     0.157 HD
ENDBRANCH  31  32
ENDBRANCH   2  28
TORSDOF 9
ENDMDL
