MODEL 1
REMARK VINA RESULT:      -7.5      0.000      0.000
REMARK  8 active torsions:
REMARK  status: ('A' for Active; 'I' for Inactive)
REMARK    1  A    between atoms: C1_2  and  N2_3 
REMARK    2  A    between atoms: N2_3  and  C2_4 
REMARK    3  A    between atoms: C2_4  and  C3_5 
REMARK    4  A    between atoms: C5_7  and  S1_8 
REMARK    5  A    between atoms: S1_8  and  C6_11 
REMARK    6  A    between atoms: C6_11  and  N3_12 
REMARK    7  A    between atoms: C9_15  and  N4_16 
REMARK    8  A    between atoms: N4_16  and  C10_17 
ROOT
HETATM    1  C3  UNL     1      24.292   2.215  53.008  1.00  0.00     0.038 A 
HETATM    2  C4  UNL     1      25.745   2.055  53.256  1.00  0.00     0.102 A 
HETATM    3  C5  UNL     1      25.981   0.604  53.476  1.00  0.00     0.043 A 
HETATM    4  C7  UNL     1      25.122  -0.403  53.469  1.00  0.00     0.022 A 
HETATM    5  C8  UNL     1      23.718  -0.096  53.211  1.00  0.00     0.032 A 
HETATM    6  C9  UNL     1      23.306   1.144  52.990  1.00  0.00     0.048 A 
ENDROOT
BRANCH   6   7
HETATM    7  N4  UNL     1      21.972   1.535  52.732  1.00  0.00    -0.355 N 
HETATM    8  H11 UNL     1      21.661   2.524  52.958  1.00  0.00     0.166 HD
BRANCH   7   9
HETATM    9  C10 UNL     1      20.764   1.006  52.215  1.00  0.00     0.033 A 
HETATM   10  C11 UNL     1      20.333   1.461  50.971  1.00  0.00     0.029 A 
HETATM   11  C12 UNL     1      19.154   0.970  50.429  1.00  0.00     0.004 A 
HETATM   12  C13 UNL     1      18.449   0.034  51.164  1.00  0.00     0.019 A 
HETATM   13  C14 UNL     1      18.881  -0.414  52.396  1.00  0.00     0.013 A 
HETATM   14 BR1  UNL     1      17.862  -1.716  53.376  1.00  0.00    -0.051 Br
HETATM   15  C15 UNL     1      20.057   0.074  52.941  1.00  0.00     0.048 A 
ENDBRANCH   7   9
ENDBRANCH   6   7
BRANCH   1  16
HETATM   16  C2  UNL     1      23.940   3.469  52.788  1.00  0.00    -0.005 C 
BRANCH  16  17
HETATM   17  N2  UNL     1      23.232   4.523  52.558  1.00  0.00    -0.200 NA
BRANCH  17  18
HETATM   18  C1  UNL     1      23.728   5.499  51.621  1.00  0.00     0.233 C 
HETATM   19  N1  UNL     1      24.192   6.388  52.435  1.00  0.00    -0.293 NA
HETATM   20  H1  UNL     1      24.135   6.263  53.475  1.00  0.00     0.187 HD
ENDBRANCH  17  18
ENDBRANCH  16  17
ENDBRANCH   1  16
BRANCH   3  21
HETATM   21  S1  UNL     1      27.665   0.230  53.788  1.00  0.00     0.198 S 
HETATM   22  O1  UNL     1      28.154  -0.893  52.921  1.00  0.00    -0.221 OA
HETATM   23  O2  UNL     1      27.881  -0.213  55.207  1.00  0.00    -0.221 OA
BRANCH  21  24
HETATM   24  C6  UNL     1      28.630   1.666  53.388  1.00  0.00     0.410 C 
BRANCH  24  25
HETATM   25  N3  UNL     1      29.413   2.007  54.558  1.00  0.00     0.092 N 
HETATM   26  H7  UNL     1      30.428   1.771  54.446  1.00  0.00     0.314 HD
HETATM   27  H8  UNL     1      29.094   1.525  55.424  1.00  0.00     0.314 HD
ENDBRANCH  24  25
ENDBRANCH  21  24
ENDBRANCH   3  21
TORSDOF 8
ENDMDL
MODEL 2
REMARK VINA RESULT:      -7.4      4.127      6.787
REMARK  8 active torsions:
REMARK  status: ('A' for Active; 'I' for Inactive)
REMARK    1  A    between atoms: C1_2  and  N2_3 
REMARK    2  A    between atoms: N2_3  and  C2_4 
REMARK    3  A    between atoms: C2_4  and  C3_5 
REMARK    4  A    between atoms: C5_7  and  S1_8 
REMARK    5  A    between atoms: S1_8  and  C6_11 
REMARK    6  A    between atoms: C6_11  and  N3_12 
REMARK    7  A    between atoms: C9_15  and  N4_16 
REMARK    8  A    between atoms: N4_16  and  C10_17 
ROOT
HETATM    1  C3  UNL     1      24.694   1.380  52.845  1.00  0.00     0.038 A 
HETATM    2  C4  UNL     1      23.747   0.616  53.693  1.00  0.00     0.102 A 
HETATM    3  C5  UNL     1      22.497   0.466  52.904  1.00  0.00     0.043 A 
HETATM    4  C7  UNL     1      22.208   0.897  51.687  1.00  0.00     0.022 A 
HETATM    5  C8  UNL     1      23.239   1.638  50.966  1.00  0.00     0.032 A 
HETATM    6  C9  UNL     1      24.427   1.877  51.503  1.00  0.00     0.048 A 
ENDROOT
BRANCH   6   7
HETATM    7  N4  UNL     1      25.484   2.584  50.883  1.00  0.00    -0.355 N 
HETATM    8  H11 UNL     1      26.439   2.130  50.797  1.00  0.00     0.166 HD
BRANCH   7   9
HETATM    9  C10 UNL     1      25.742   3.831  50.263  1.00  0.00     0.033 A 
HETATM   10  C11 UNL     1      26.803   3.903  49.363  1.00  0.00     0.029 A 
HETATM   11  C12 UNL     1      27.091   5.106  48.735  1.00  0.00     0.004 A 
HETATM   12  C13 UNL     1      26.297   6.197  49.039  1.00  0.00     0.019 A 
HETATM   13  C14 UNL     1      25.247   6.119  49.931  1.00  0.00     0.013 A 
HETATM   14 BR1  UNL     1      24.175   7.667  50.318  1.00  0.00    -0.051 Br
HETATM   15  C15 UNL     1      24.956   4.921  50.560  1.00  0.00     0.048 A 
ENDBRANCH   7   9
ENDBRANCH   6   7
BRANCH   1  16
HETATM   16  C2  UNL     1      25.862   1.582  53.428  1.00  0.00    -0.005 C 
BRANCH  16  17
HETATM   17  N2  UNL     1      26.871   2.161  53.986  1.00  0.00    -0.200 NA
BRANCH  17  18
HETATM   18  C1  UNL     1      28.193   1.887  53.480  1.00  0.00     0.233 C 
HETATM   19  N1  UNL     1      28.276   2.779  52.551  1.00  0.00    -0.293 NA
HETATM   20  H1  UNL     1      27.489   3.444  52.357  1.00  0.00     0.187 HD
ENDBRANCH  17  18
ENDBRANCH  16  17
ENDBRANCH   1  16
BRANCH   3  21
HETATM   21  S1  UNL     1      21.254  -0.423  53.765  1.00  0.00     0.198 S 
HETATM   22  O1  UNL     1      21.037   0.124  55.146  1.00  0.00    -0.221 OA
HETATM   23  O2  UNL     1      21.628  -1.867  53.941  1.00  0.00    -0.221 OA
BRANCH  21  24
HETATM   24  C6  UNL     1      19.730  -0.236  52.875  1.00  0.00     0.410 C 
BRANCH  24  25
HETATM   25  N3  UNL     1      18.723  -1.017  53.564  1.00  0.00     0.092 N 
HETATM   26  H7  UNL     1      19.089  -1.939  53.903  1.00  0.00     0.314 HD
HETATM   27  H8  UNL     1      17.891  -1.230  52.976  1.00  0.00     0.314 HD
ENDBRANCH  24  25
ENDBRANCH  21  24
ENDBRANCH   3  21
TORSDOF 8
ENDMDL
MODEL 3
REMARK VINA RESULT:      -7.3      2.757      3.875
REMARK  8 active torsions:
REMARK  status: ('A' for Active; 'I' for Inactive)
REMARK    1  A    between atoms: C1_2  and  N2_3 
REMARK    2  A    between atoms: N2_3  and  C2_4 
REMARK    3  A    between atoms: C2_4  and  C3_5 
REMARK    4  A    between atoms: C5_7  and  S1_8 
REMARK    5  A    between atoms: S1_8  and  C6_11 
REMARK    6  A    between atoms: C6_11  and  N3_12 
REMARK    7  A    between atoms: C9_15  and  N4_16 
REMARK    8  A    between atoms: N4_16  and  C10_17 
ROOT
HETATM    1  C3  UNL     1      24.092  -0.323  53.873  1.00  0.00     0.038 A 
HETATM    2  C4  UNL     1      25.436  -0.596  54.433  1.00  0.00     0.102 A 
HETATM    3  C5  UNL     1      26.412   0.111  53.563  1.00  0.00     0.043 A 
HETATM    4  C7  UNL     1      26.202   0.853  52.488  1.00  0.00     0.022 A 
HETATM    5  C8  UNL     1      24.822   1.036  52.048  1.00  0.00     0.032 A 
HETATM    6  C9  UNL     1      23.806   0.483  52.695  1.00  0.00     0.048 A 
ENDROOT
BRANCH   6   7
HETATM    7  N4  UNL     1      22.441   0.605  52.344  1.00  0.00    -0.355 N 
HETATM    8  H11 UNL     1      21.693   0.400  53.067  1.00  0.00     0.166 HD
BRANCH   7   9
HETATM    9  C10 UNL     1      21.630   0.947  51.234  1.00  0.00     0.033 A 
HETATM   10  C11 UNL     1      20.271   0.653  51.306  1.00  0.00     0.029 A 
HETATM   11  C12 UNL     1      19.441   0.969  50.240  1.00  0.00     0.004 A 
HETATM   12  C13 UNL     1      20.015   1.573  49.136  1.00  0.00     0.019 A 
HETATM   13  C14 UNL     1      21.363   1.863  49.070  1.00  0.00     0.013 A 
HETATM   14 BR1  UNL     1      22.108   2.702  47.511  1.00  0.00    -0.051 Br
HETATM   15  C15 UNL     1      22.194   1.549  50.132  1.00  0.00     0.048 A 
ENDBRANCH   7   9
ENDBRANCH   6   7
BRANCH   1  16
HETATM   16  C2  UNL     1      23.119  -0.893  54.561  1.00  0.00    -0.005 C 
BRANCH  16  17
HETATM   17  N2  UNL     1      22.178  -1.701  54.918  1.00  0.00    -0.200 NA
BRANCH  17  18
HETATM   18  C1  UNL     1      20.870  -1.539  54.335  1.00  0.00     0.233 C 
HETATM   19  N1  UNL     1      20.575  -0.352  54.749  1.00  0.00    -0.293 NA
HETATM   20  H1  UNL     1      21.237   0.201  55.346  1.00  0.00     0.187 HD
ENDBRANCH  17  18
ENDBRANCH  16  17
ENDBRANCH   1  16
BRANCH   3  21
HETATM   21  S1  UNL     1      28.071  -0.107  54.086  1.00  0.00     0.198 S 
HETATM   22  O1  UNL     1      28.654  -1.387  53.563  1.00  0.00    -0.221 OA
HETATM   23  O2  UNL     1      28.174  -0.182  55.583  1.00  0.00    -0.221 OA
BRANCH  21  24
HETATM   24  C6  UNL     1      29.036   1.227  53.421  1.00  0.00     0.410 C 
BRANCH  24  25
HETATM   25  N3  UNL     1      29.444   2.066  54.528  1.00  0.00     0.092 N 
HETATM   26  H7  UNL     1      30.330   2.590  54.333  1.00  0.00     0.314 HD
HETATM   27  H8  UNL     1      29.604   1.538  55.411  1.00  0.00     0.314 HD
ENDBRANCH  24  25
ENDBRANCH  21  24
ENDBRANCH   3  21
TORSDOF 8
ENDMDL
MODEL 4
REMARK VINA RESULT:      -7.3      3.141      4.452
REMARK  8 active torsions:
REMARK  status: ('A' for Active; 'I' for Inactive)
REMARK    1  A    between atoms: C1_2  and  N2_3 
REMARK    2  A    between atoms: N2_3  and  C2_4 
REMARK    3  A    between atoms: C2_4  and  C3_5 
REMARK    4  A    between atoms: C5_7  and  S1_8 
REMARK    5  A    between atoms: S1_8  and  C6_11 
REMARK    6  A    between atoms: C6_11  and  N3_12 
REMARK    7  A    between atoms: C9_15  and  N4_16 
REMARK    8  A    between atoms: N4_16  and  C10_17 
ROOT
HETATM    1  C3  UNL     1      24.361   0.347  52.996  1.00  0.00     0.038 A 
HETATM    2  C4  UNL     1      25.504  -0.219  53.752  1.00  0.00     0.102 A 
HETATM    3  C5  UNL     1      26.733   0.403  53.193  1.00  0.00     0.043 A 
HETATM    4  C7  UNL     1      26.863   1.290  52.219  1.00  0.00     0.022 A 
HETATM    5  C8  UNL     1      25.648   1.760  51.560  1.00  0.00     0.032 A 
HETATM    6  C9  UNL     1      24.449   1.321  51.918  1.00  0.00     0.048 A 
ENDROOT
BRANCH   6   7
HETATM    7  N4  UNL     1      23.221   1.718  51.340  1.00  0.00    -0.355 N 
HETATM    8  H11 UNL     1      22.342   1.731  51.933  1.00  0.00     0.166 HD
BRANCH   7   9
HETATM    9  C10 UNL     1      22.693   2.157  50.101  1.00  0.00     0.033 A 
HETATM   10  C11 UNL     1      21.877   1.279  49.392  1.00  0.00     0.029 A 
HETATM   11  C12 UNL     1      21.342   1.669  48.173  1.00  0.00     0.004 A 
HETATM   12  C13 UNL     1      21.651   2.935  47.711  1.00  0.00     0.019 A 
HETATM   13  C14 UNL     1      22.460   3.802  48.417  1.00  0.00     0.013 A 
HETATM   14 BR1  UNL     1      22.858   5.551  47.728  1.00  0.00    -0.051 Br
HETATM   15  C15 UNL     1      22.997   3.416  49.634  1.00  0.00     0.048 A 
ENDBRANCH   7   9
ENDBRANCH   6   7
BRANCH   1  16
HETATM   16  C2  UNL     1      23.193  -0.120  53.399  1.00  0.00    -0.005 C 
BRANCH  16  17
HETATM   17  N2  UNL     1      22.018  -0.654  53.398  1.00  0.00    -0.200 NA
BRANCH  17  18
HETATM   18  C1  UNL     1      21.344  -0.844  54.657  1.00  0.00     0.233 C 
HETATM   19  N1  UNL     1      22.003  -1.852  55.125  1.00  0.00    -0.293 NA
HETATM   20  H1  UNL     1      22.791  -2.288  54.588  1.00  0.00     0.187 HD
ENDBRANCH  17  18
ENDBRANCH  16  17
ENDBRANCH   1  16
BRANCH   3  21
HETATM   21  S1  UNL     1      28.196  -0.158  53.979  1.00  0.00     0.198 S 
HETATM   22  O1  UNL     1      28.603  -1.516  53.487  1.00  0.00    -0.221 OA
HETATM   23  O2  UNL     1      28.011  -0.290  55.464  1.00  0.00    -0.221 OA
BRANCH  21  24
HETATM   24  C6  UNL     1      29.506   0.969  53.571  1.00  0.00     0.410 C 
BRANCH  24  25
HETATM   25  N3  UNL     1      29.497   2.026  54.561  1.00  0.00     0.092 N 
HETATM   26  H7  UNL     1      28.582   2.536  54.598  1.00  0.00     0.314 HD
HETATM   27  H8  UNL     1      30.229   2.748  54.401  1.00  0.00     0.314 HD
ENDBRANCH  24  25
ENDBRANCH  21  24
ENDBRANCH   3  21
TORSDOF 8
ENDMDL
MODEL 5
REMARK VINA RESULT:      -7.1      4.601      6.534
REMARK  8 active torsions:
REMARK  status: ('A' for Active; 'I' for Inactive)
REMARK    1  A    between atoms: C1_2  and  N2_3 
REMARK    2  A    between atoms: N2_3  and  C2_4 
REMARK    3  A    between atoms: C2_4  and  C3_5 
REMARK    4  A    between atoms: C5_7  and  S1_8 
REMARK    5  A    between atoms: S1_8  and  C6_11 
REMARK    6  A    between atoms: C6_11  and  N3_12 
REMARK    7  A    between atoms: C9_15  and  N4_16 
REMARK    8  A    between atoms: N4_16  and  C10_17 
ROOT
HETATM    1  C3  UNL     1      24.652   3.257  51.774  1.00  0.00     0.038 A 
HETATM    2  C4  UNL     1      24.605   2.251  52.861  1.00  0.00     0.102 A 
HETATM    3  C5  UNL     1      25.759   1.340  52.649  1.00  0.00     0.043 A 
HETATM    4  C7  UNL     1      26.686   1.357  51.703  1.00  0.00     0.022 A 
HETATM    5  C8  UNL     1      26.608   2.408  50.693  1.00  0.00     0.032 A 
HETATM    6  C9  UNL     1      25.646   3.320  50.712  1.00  0.00     0.048 A 
ENDROOT
BRANCH   6   7
HETATM    7  N4  UNL     1      25.491   4.371  49.779  1.00  0.00    -0.355 N 
HETATM    8  H11 UNL     1      24.520   4.632  49.439  1.00  0.00     0.166 HD
BRANCH   7   9
HETATM    9  C10 UNL     1      26.269   5.309  49.057  1.00  0.00     0.033 A 
HETATM   10  C11 UNL     1      25.627   6.436  48.550  1.00  0.00     0.029 A 
HETATM   11  C12 UNL     1      26.352   7.378  47.835  1.00  0.00     0.004 A 
HETATM   12  C13 UNL     1      27.704   7.149  47.656  1.00  0.00     0.019 A 
HETATM   13  C14 UNL     1      28.336   6.030  48.162  1.00  0.00     0.013 A 
HETATM   14 BR1  UNL     1      30.218   5.760  47.883  1.00  0.00    -0.051 Br
HETATM   15  C15 UNL     1      27.616   5.088  48.876  1.00  0.00     0.048 A 
ENDBRANCH   7   9
ENDBRANCH   6   7
BRANCH   1  16
HETATM   16  C2  UNL     1      23.676   4.144  51.847  1.00  0.00    -0.005 C 
BRANCH  16  17
HETATM   17  N2  UNL     1      23.022   5.234  52.068  1.00  0.00    -0.200 NA
BRANCH  17  18
HETATM   18  C1  UNL     1      23.368   6.413  51.316  1.00  0.00     0.233 C 
HETATM   19  N1  UNL     1      24.437   6.782  51.940  1.00  0.00    -0.293 NA
HETATM   20  H1  UNL     1      24.808   6.242  52.759  1.00  0.00     0.187 HD
ENDBRANCH  17  18
ENDBRANCH  16  17
ENDBRANCH   1  16
BRANCH   3  21
HETATM   21  S1  UNL     1      25.858   0.075  53.858  1.00  0.00     0.198 S 
HETATM   22  O1  UNL     1      24.499  -0.439  54.235  1.00  0.00    -0.221 OA
HETATM   23  O2  UNL     1      26.484   0.572  55.130  1.00  0.00    -0.221 OA
BRANCH  21  24
HETATM   24  C6  UNL     1      26.764  -1.283  53.160  1.00  0.00     0.410 C 
BRANCH  24  25
HETATM   25  N3  UNL     1      28.091  -1.266  53.738  1.00  0.00     0.092 N 
HETATM   26  H7  UNL     1      28.215  -0.500  54.443  1.00  0.00     0.314 HD
HETATM   27  H8  UNL     1      28.847  -1.141  53.033  1.00  0.00     0.314 HD
ENDBRANCH  24  25
ENDBRANCH  21  24
ENDBRANCH   3  21
TORSDOF 8
ENDMDL
MODEL 6
REMARK VINA RESULT:      -7.0      3.006      4.297
REMARK  8 active torsions:
REMARK  status: ('A' for Active; 'I' for Inactive)
REMARK    1  A    between atoms: C1_2  and  N2_3 
REMARK    2  A    between atoms: N2_3  and  C2_4 
REMARK    3  A    between atoms: C2_4  and  C3_5 
REMARK    4  A    between atoms: C5_7  and  S1_8 
REMARK    5  A    between atoms: S1_8  and  C6_11 
REMARK    6  A    between atoms: C6_11  and  N3_12 
REMARK    7  A    between atoms: C9_15  and  N4_16 
REMARK    8  A    between atoms: N4_16  and  C10_17 
ROOT
HETATM    1  C3  UNL     1      24.684   0.246  53.046  1.00  0.00     0.038 A 
HETATM    2  C4  UNL     1      25.878  -0.138  53.837  1.00  0.00     0.102 A 
HETATM    3  C5  UNL     1      26.983   0.754  53.399  1.00  0.00     0.043 A 
HETATM    4  C7  UNL     1      26.982   1.719  52.493  1.00  0.00     0.022 A 
HETATM    5  C8  UNL     1      25.732   1.988  51.788  1.00  0.00     0.032 A 
HETATM    6  C9  UNL     1      24.629   1.295  52.039  1.00  0.00     0.048 A 
ENDROOT
BRANCH   6   7
HETATM    7  N4  UNL     1      23.378   1.484  51.408  1.00  0.00    -0.355 N 
HETATM    8  H11 UNL     1      23.045   0.786  50.682  1.00  0.00     0.166 HD
BRANCH   7   9
HETATM    9  C10 UNL     1      22.284   2.384  51.409  1.00  0.00     0.033 A 
HETATM   10  C11 UNL     1      21.015   1.868  51.661  1.00  0.00     0.029 A 
HETATM   11  C12 UNL     1      19.916   2.714  51.669  1.00  0.00     0.004 A 
HETATM   12  C13 UNL     1      20.138   4.057  51.421  1.00  0.00     0.019 A 
HETATM   13  C14 UNL     1      21.397   4.564  51.172  1.00  0.00     0.013 A 
HETATM   14 BR1  UNL     1      21.648   6.439  50.833  1.00  0.00    -0.051 Br
HETATM   15  C15 UNL     1      22.496   3.722  51.163  1.00  0.00     0.048 A 
ENDBRANCH   7   9
ENDBRANCH   6   7
BRANCH   1  16
HETATM   16  C2  UNL     1      23.615  -0.472  53.342  1.00  0.00    -0.005 C 
BRANCH  16  17
HETATM   17  N2  UNL     1      22.389  -0.854  53.462  1.00  0.00    -0.200 NA
BRANCH  17  18
HETATM   18  C1  UNL     1      21.755  -0.751  54.753  1.00  0.00     0.233 C 
HETATM   19  N1  UNL     1      22.211  -1.816  55.322  1.00  0.00    -0.293 NA
HETATM   20  H1  UNL     1      22.863  -2.469  54.823  1.00  0.00     0.187 HD
ENDBRANCH  17  18
ENDBRANCH  16  17
ENDBRANCH   1  16
BRANCH   3  21
HETATM   21  S1  UNL     1      28.487   0.435  54.242  1.00  0.00     0.198 S 
HETATM   22  O1  UNL     1      28.254  -0.277  55.542  1.00  0.00    -0.221 OA
HETATM   23  O2  UNL     1      29.210   1.707  54.585  1.00  0.00    -0.221 OA
BRANCH  21  24
HETATM   24  C6  UNL     1      29.472  -0.632  53.221  1.00  0.00     0.410 C 
BRANCH  24  25
HETATM   25  N3  UNL     1      29.015  -1.989  53.438  1.00  0.00     0.092 N 
HETATM   26  H7  UNL     1      29.577  -2.492  54.166  1.00  0.00     0.314 HD
HETATM   27  H8  UNL     1      29.049  -2.579  52.581  1.00  0.00     0.314 HD
ENDBRANCH  24  25
ENDBRANCH  21  24
ENDBRANCH   3  21
TORSDOF 8
ENDMDL
MODEL 7
REMARK VINA RESULT:      -7.0      1.581      1.760
REMARK  8 active torsions:
REMARK  status: ('A' for Active; 'I' for Inactive)
REMARK    1  A    between atoms: C1_2  and  N2_3 
REMARK    2  A    between atoms: N2_3  and  C2_4 
REMARK    3  A    between atoms: C2_4  and  C3_5 
REMARK    4  A    between atoms: C5_7  and  S1_8 
REMARK    5  A    between atoms: S1_8  and  C6_11 
REMARK    6  A    between atoms: C6_11  and  N3_12 
REMARK    7  A    between atoms: C9_15  and  N4_16 
REMARK    8  A    between atoms: N4_16  and  C10_17 
ROOT
HETATM    1  C3  UNL     1      24.080   1.561  52.211  1.00  0.00     0.038 A 
HETATM    2  C4  UNL     1      25.527   1.260  52.326  1.00  0.00     0.102 A 
HETATM    3  C5  UNL     1      25.648   0.097  53.243  1.00  0.00     0.043 A 
HETATM    4  C7  UNL     1      24.704  -0.587  53.870  1.00  0.00     0.022 A 
HETATM    5  C8  UNL     1      23.318  -0.177  53.664  1.00  0.00     0.032 A 
HETATM    6  C9  UNL     1      23.003   0.843  52.878  1.00  0.00     0.048 A 
ENDROOT
BRANCH   6   7
HETATM    7  N4  UNL     1      21.694   1.310  52.620  1.00  0.00    -0.355 N 
HETATM    8  H11 UNL     1      21.427   2.300  52.891  1.00  0.00     0.166 HD
BRANCH   7   9
HETATM    9  C10 UNL     1      20.472   0.866  52.059  1.00  0.00     0.033 A 
HETATM   10  C11 UNL     1      20.120   1.347  50.800  1.00  0.00     0.029 A 
HETATM   11  C12 UNL     1      18.931   0.939  50.214  1.00  0.00     0.004 A 
HETATM   12  C13 UNL     1      18.134   0.058  50.923  1.00  0.00     0.019 A 
HETATM   13  C14 UNL     1      18.487  -0.416  52.171  1.00  0.00     0.013 A 
HETATM   14 BR1  UNL     1      17.343  -1.639  53.113  1.00  0.00    -0.051 Br
HETATM   15  C15 UNL     1      19.674  -0.011  52.758  1.00  0.00     0.048 A 
ENDBRANCH   7   9
ENDBRANCH   6   7
BRANCH   1  16
HETATM   16  C2  UNL     1      23.826   2.581  51.411  1.00  0.00    -0.005 C 
BRANCH  16  17
HETATM   17  N2  UNL     1      23.281   3.632  50.899  1.00  0.00    -0.200 NA
BRANCH  17  18
HETATM   18  C1  UNL     1      23.019   4.762  51.754  1.00  0.00     0.233 C 
HETATM   19  N1  UNL     1      21.880   4.415  52.256  1.00  0.00    -0.293 NA
HETATM   20  H1  UNL     1      21.418   3.511  51.994  1.00  0.00     0.187 HD
ENDBRANCH  17  18
ENDBRANCH  16  17
ENDBRANCH   1  16
BRANCH   3  21
HETATM   21  S1  UNL     1      27.311  -0.399  53.495  1.00  0.00     0.198 S 
HETATM   22  O1  UNL     1      27.634  -0.534  54.954  1.00  0.00    -0.221 OA
HETATM   23  O2  UNL     1      28.279   0.609  52.943  1.00  0.00    -0.221 OA
BRANCH  21  24
HETATM   24  C6  UNL     1      27.526  -1.998  52.754  1.00  0.00     0.410 C 
BRANCH  24  25
HETATM   25  N3  UNL     1      28.709  -2.595  53.337  1.00  0.00     0.092 N 
HETATM   26  H7  UNL     1      29.432  -1.883  53.600  1.00  0.00     0.314 HD
HETATM   27  H8  UNL     1      29.182  -3.275  52.707  1.00  0.00     0.314 HD
ENDBRANCH  24  25
ENDBRANCH  21  24
ENDBRANCH   3  21
TORSDOF 8
ENDMDL
MODEL 8
REMARK VINA RESULT:      -7.0      4.149      6.281
REMARK  8 active torsions:
REMARK  status: ('A' for Active; 'I' for Inactive)
REMARK    1  A    between atoms: C1_2  and  N2_3 
REMARK    2  A    between atoms: N2_3  and  C2_4 
REMARK    3  A    between atoms: C2_4  and  C3_5 
REMARK    4  A    between atoms: C5_7  and  S1_8 
REMARK    5  A    between atoms: S1_8  and  C6_11 
REMARK    6  A    between atoms: C6_11  and  N3_12 
REMARK    7  A    between atoms: C9_15  and  N4_16 
REMARK    8  A    between atoms: N4_16  and  C10_17 
ROOT
HETATM    1  C3  UNL     1      24.478   2.526  52.107  1.00  0.00     0.038 A 
HETATM    2  C4  UNL     1      24.584   1.436  53.105  1.00  0.00     0.102 A 
HETATM    3  C5  UNL     1      25.892   0.770  52.870  1.00  0.00     0.043 A 
HETATM    4  C7  UNL     1      26.827   1.037  51.973  1.00  0.00     0.022 A 
HETATM    5  C8  UNL     1      26.587   2.142  51.049  1.00  0.00     0.032 A 
HETATM    6  C9  UNL     1      25.474   2.861  51.100  1.00  0.00     0.048 A 
ENDROOT
BRANCH   6   7
HETATM    7  N4  UNL     1      25.156   3.946  50.250  1.00  0.00    -0.355 N 
HETATM    8  H11 UNL     1      24.322   3.875  49.598  1.00  0.00     0.166 HD
BRANCH   7   9
HETATM    9  C10 UNL     1      25.615   5.247  49.928  1.00  0.00     0.033 A 
HETATM   10  C11 UNL     1      24.958   6.330  50.506  1.00  0.00     0.029 A 
HETATM   11  C12 UNL     1      25.374   7.622  50.216  1.00  0.00     0.004 A 
HETATM   12  C13 UNL     1      26.442   7.774  49.349  1.00  0.00     0.019 A 
HETATM   13  C14 UNL     1      27.089   6.696  48.780  1.00  0.00     0.013 A 
HETATM   14 BR1  UNL     1      28.567   6.965  47.581  1.00  0.00    -0.051 Br
HETATM   15  C15 UNL     1      26.677   5.406  49.067  1.00  0.00     0.048 A 
ENDBRANCH   7   9
ENDBRANCH   6   7
BRANCH   1  16
HETATM   16  C2  UNL     1      23.353   3.212  52.208  1.00  0.00    -0.005 C 
BRANCH  16  17
HETATM   17  N2  UNL     1      22.371   4.004  51.940  1.00  0.00    -0.200 NA
BRANCH  17  18
HETATM   18  C1  UNL     1      21.470   3.651  50.872  1.00  0.00     0.233 C 
HETATM   19  N1  UNL     1      22.067   4.205  49.870  1.00  0.00    -0.293 NA
HETATM   20  H1  UNL     1      22.965   4.733  49.990  1.00  0.00     0.187 HD
ENDBRANCH  17  18
ENDBRANCH  16  17
ENDBRANCH   1  16
BRANCH   3  21
HETATM   21  S1  UNL     1      26.185  -0.559  53.976  1.00  0.00     0.198 S 
HETATM   22  O1  UNL     1      27.161  -0.182  55.051  1.00  0.00    -0.221 OA
HETATM   23  O2  UNL     1      26.778  -1.745  53.270  1.00  0.00    -0.221 OA
BRANCH  21  24
HETATM   24  C6  UNL     1      24.650  -0.961  54.771  1.00  0.00     0.410 C 
BRANCH  24  25
HETATM   25  N3  UNL     1      24.957  -1.421  56.109  1.00  0.00     0.092 N 
HETATM   26  H7  UNL     1      24.829  -2.456  56.219  1.00  0.00     0.314 HD
HETATM   27  H8  UNL     1      24.374  -0.973  56.845  1.00  0.00     0.314 HD
ENDBRANCH  24  25
ENDBRANCH  21  24
ENDBRANCH   3  21
TORSDOF 8
ENDMDL
MODEL 9
REMARK VINA RESULT:      -6.9      7.296      9.090
REMARK  8 active torsions:
REMARK  status: ('A' for Active; 'I' for Inactive)
REMARK    1  A    between atoms: C1_2  and  N2_3 
REMARK    2  A    between atoms: N2_3  and  C2_4 
REMARK    3  A    between atoms: C2_4  and  C3_5 
REMARK    4  A    between atoms: C5_7  and  S1_8 
REMARK    5  A    between atoms: S1_8  and  C6_11 
REMARK    6  A    between atoms: C6_11  and  N3_12 
REMARK    7  A    between atoms: C9_15  and  N4_16 
REMARK    8  A    between atoms: N4_16  and  C10_17 
ROOT
HETATM    1  C3  UNL     1      30.246   7.407  48.457  1.00  0.00     0.038 A 
HETATM    2  C4  UNL     1      31.693   7.501  48.147  1.00  0.00     0.102 A 
HETATM    3  C5  UNL     1      32.119   6.152  47.693  1.00  0.00     0.043 A 
HETATM    4  C7  UNL     1      31.412   5.041  47.565  1.00  0.00     0.022 A 
HETATM    5  C8  UNL     1      29.994   5.094  47.908  1.00  0.00     0.032 A 
HETATM    6  C9  UNL     1      29.424   6.212  48.335  1.00  0.00     0.048 A 
ENDROOT
BRANCH   6   7
HETATM    7  N4  UNL     1      28.062   6.358  48.689  1.00  0.00    -0.355 N 
HETATM    8  H11 UNL     1      27.674   7.324  48.893  1.00  0.00     0.166 HD
BRANCH   7   9
HETATM    9  C10 UNL     1      26.900   5.574  48.888  1.00  0.00     0.033 A 
HETATM   10  C11 UNL     1      27.068   4.241  49.257  1.00  0.00     0.029 A 
HETATM   11  C12 UNL     1      25.956   3.437  49.460  1.00  0.00     0.004 A 
HETATM   12  C13 UNL     1      24.708   4.009  49.281  1.00  0.00     0.019 A 
HETATM   13  C14 UNL     1      24.547   5.330  48.916  1.00  0.00     0.013 A 
HETATM   14 BR1  UNL     1      22.791   6.073  48.680  1.00  0.00    -0.051 Br
HETATM   15  C15 UNL     1      25.655   6.135  48.712  1.00  0.00     0.048 A 
ENDBRANCH   7   9
ENDBRANCH   6   7
BRANCH   1  16
HETATM   16  C2  UNL     1      29.730   8.550  48.871  1.00  0.00    -0.005 C 
BRANCH  16  17
HETATM   17  N2  UNL     1      29.253   9.478  49.630  1.00  0.00    -0.200 NA
BRANCH  17  18
HETATM   18  C1  UNL     1      27.822   9.607  49.748  1.00  0.00     0.233 C 
HETATM   19  N1  UNL     1      27.684   9.518  51.029  1.00  0.00    -0.293 NA
HETATM   20  H1  UNL     1      28.511   9.387  51.661  1.00  0.00     0.187 HD
ENDBRANCH  17  18
ENDBRANCH  16  17
ENDBRANCH   1  16
BRANCH   3  21
HETATM   21  S1  UNL     1      33.822   6.082  47.281  1.00  0.00     0.198 S 
HETATM   22  O1  UNL     1      34.298   7.367  46.669  1.00  0.00    -0.221 OA
HETATM   23  O2  UNL     1      34.103   5.007  46.269  1.00  0.00    -0.221 OA
BRANCH  21  24
HETATM   24  C6  UNL     1      34.741   5.837  48.780  1.00  0.00     0.410 C 
BRANCH  24  25
HETATM   25  N3  UNL     1      35.067   4.429  48.868  1.00  0.00     0.092 N 
HETATM   26  H7  UNL     1      35.497   4.059  47.987  1.00  0.00     0.314 HD
HETATM   27  H8  UNL     1      34.243   3.825  49.068  1.00  0.00     0.314 HD
ENDBRANCH  24  25
ENDBRANCH  21  24
ENDBRANCH   3  21
TORSDOF 8
ENDMDL
