MODEL 1
REMARK VINA RESULT:      -7.4      0.000      0.000
REMARK  5 active torsions:
REMARK  status: ('A' for Active; 'I' for Inactive)
REMARK    1  A    between atoms: O1_2  and  C2_3 
REMARK    2  A    between atoms: C2_3  and  C14_18 
REMARK    3  A    between atoms: C3_4  and  C4_5 
REMARK    4  A    between atoms: C10_12  and  N2_13 
REMARK    5  A    between atoms: C14_18  and  C15_19 
ROOT
HETATM    1  C15 UNL     1      26.402  -0.322  52.321  1.00  0.00    -0.010 C 
HETATM    2  C16 UNL     1      27.630   0.020  52.673  1.00  0.00     0.090 C 
HETATM    3  C17 UNL     1      27.951  -0.070  54.071  1.00  0.00     0.087 C 
HETATM    4  N3  UNL     1      28.219  -0.136  55.178  1.00  0.00    -0.192 NA
ENDROOT
BRANCH   1   5
HETATM    5  C14 UNL     1      25.361  -0.787  53.295  1.00  0.00     0.092 C 
BRANCH   5   6
HETATM    6  C2  UNL     1      24.183   0.125  53.282  1.00  0.00     0.050 C 
HETATM    7  C3  UNL     1      24.226   1.266  52.684  1.00  0.00     0.045 C 
BRANCH   6   8
HETATM    8  O1  UNL     1      23.279  -0.601  54.000  1.00  0.00    -0.360 OA
HETATM    9  C1  UNL     1      21.956  -0.895  53.599  1.00  0.00     0.209 C 
ENDBRANCH   6   8
BRANCH   7  10
HETATM   10  C4  UNL     1      23.438   2.390  52.414  1.00  0.00    -0.013 C 
HETATM   11  C5  UNL     1      24.015   3.526  52.071  1.00  0.00    -0.052 C 
HETATM   12  C6  UNL     1      23.382   4.787  52.775  1.00  0.00     0.068 C 
HETATM   13  C11 UNL     1      25.063   3.743  51.000  1.00  0.00     0.089 C 
HETATM   14  C7  UNL     1      22.267   4.877  51.568  1.00  0.00     0.148 C 
HETATM   15  N1  UNL     1      21.441   3.799  52.021  1.00  0.00    -0.290 NA
HETATM   16  C9  UNL     1      23.373   4.434  50.563  1.00  0.00     0.007 C 
HETATM   17  C8  UNL     1      21.962   2.635  52.362  1.00  0.00     0.122 C 
HETATM   18  C10 UNL     1      24.556   5.128  50.542  1.00  0.00     0.024 C 
HETATM   19  C13 UNL     1      23.346   3.112  49.906  1.00  0.00     0.018 C 
HETATM   20  C12 UNL     1      24.674   3.197  49.601  1.00  0.00     0.008 C 
HETATM   21 BR1  UNL     1      22.117   1.733  49.417  1.00  0.00    -0.051 Br
BRANCH  18  22
HETATM   22  N2  UNL     1      25.537   6.118  50.403  1.00  0.00    -0.401 N 
HETATM   23  H9  UNL     1      25.474   6.809  51.208  1.00  0.00     0.156 HD
HETATM   24  H10 UNL     1      26.157   6.036  49.567  1.00  0.00     0.156 HD
ENDBRANCH  18  22
ENDBRANCH   7  10
ENDBRANCH   5   6
ENDBRANCH   1   5
TORSDOF 5
ENDMDL
MODEL 2
REMARK VINA RESULT:      -7.3      2.782      5.619
REMARK  5 active torsions:
REMARK  status: ('A' for Active; 'I' for Inactive)
REMARK    1  A    between atoms: O1_2  and  C2_3 
REMARK    2  A    between atoms: C2_3  and  C14_18 
REMARK    3  A    between atoms: C3_4  and  C4_5 
REMARK    4  A    between atoms: C10_12  and  N2_13 
REMARK    5  A    between atoms: C14_18  and  C15_19 
ROOT
HETATM    1  C15 UNL     1      21.697   0.781  51.004  1.00  0.00    -0.010 C 
HETATM    2  C16 UNL     1      21.244   1.977  50.671  1.00  0.00     0.090 C 
HETATM    3  C17 UNL     1      20.368   2.623  51.610  1.00  0.00     0.087 C 
HETATM    4  N3  UNL     1      19.671   3.147  52.346  1.00  0.00    -0.192 NA
ENDROOT
BRANCH   1   5
HETATM    5  C14 UNL     1      21.342   0.089  52.288  1.00  0.00     0.092 C 
BRANCH   5   6
HETATM    6  C2  UNL     1      22.453   0.207  53.274  1.00  0.00     0.050 C 
HETATM    7  C3  UNL     1      23.595   0.703  52.940  1.00  0.00     0.045 C 
BRANCH   6   8
HETATM    8  O1  UNL     1      21.868  -0.308  54.393  1.00  0.00    -0.360 OA
HETATM    9  C1  UNL     1      21.488  -1.658  54.576  1.00  0.00     0.209 C 
ENDBRANCH   6   8
BRANCH   7  10
HETATM   10  C4  UNL     1      24.856   0.999  53.469  1.00  0.00    -0.013 C 
HETATM   11  C5  UNL     1      25.732   0.030  53.653  1.00  0.00    -0.052 C 
HETATM   12  C6  UNL     1      26.501   0.133  55.025  1.00  0.00     0.068 C 
HETATM   13  C11 UNL     1      26.166  -1.024  52.656  1.00  0.00     0.089 C 
HETATM   14  C7  UNL     1      27.603   1.125  54.312  1.00  0.00     0.148 C 
HETATM   15  N1  UNL     1      26.788   2.302  54.302  1.00  0.00    -0.290 NA
HETATM   16  C9  UNL     1      27.477   0.271  53.014  1.00  0.00     0.007 C 
HETATM   17  C8  UNL     1      25.542   2.268  53.868  1.00  0.00     0.122 C 
HETATM   18  C10 UNL     1      27.642  -1.088  53.104  1.00  0.00     0.024 C 
HETATM   19  C13 UNL     1      26.845   0.801  51.789  1.00  0.00     0.018 C 
HETATM   20  C12 UNL     1      26.659  -0.460  51.298  1.00  0.00     0.008 C 
HETATM   21 BR1  UNL     1      26.458   2.463  50.930  1.00  0.00    -0.051 Br
BRANCH  18  22
HETATM   22  N2  UNL     1      28.164  -2.373  53.295  1.00  0.00    -0.401 N 
HETATM   23  H9  UNL     1      28.697  -2.683  52.430  1.00  0.00     0.156 HD
HETATM   24  H10 UNL     1      27.962  -2.818  54.218  1.00  0.00     0.156 HD
ENDBRANCH  18  22
ENDBRANCH   7  10
ENDBRANCH   5   6
ENDBRANCH   1   5
TORSDOF 5
ENDMDL
MODEL 3
REMARK VINA RESULT:      -7.2      2.677      5.627
REMARK  5 active torsions:
REMARK  status: ('A' for Active; 'I' for Inactive)
REMARK    1  A    between atoms: O1_2  and  C2_3 
REMARK    2  A    between atoms: C2_3  and  C14_18 
REMARK    3  A    between atoms: C3_4  and  C4_5 
REMARK    4  A    between atoms: C10_12  and  N2_13 
REMARK    5  A    between atoms: C14_18  and  C15_19 
ROOT
HETATM    1  C15 UNL     1      20.320   0.443  53.132  1.00  0.00    -0.010 C 
HETATM    2  C16 UNL     1      20.110  -0.238  54.245  1.00  0.00     0.090 C 
HETATM    3  C17 UNL     1      21.086  -1.236  54.588  1.00  0.00     0.087 C 
HETATM    4  N3  UNL     1      21.854  -2.031  54.871  1.00  0.00    -0.192 NA
ENDROOT
BRANCH   1   5
HETATM    5  C14 UNL     1      21.504   0.222  52.237  1.00  0.00     0.092 C 
BRANCH   5   6
HETATM    6  C2  UNL     1      22.650   1.073  52.662  1.00  0.00     0.050 C 
HETATM    7  C3  UNL     1      23.755   0.552  53.074  1.00  0.00     0.045 C 
BRANCH   6   8
HETATM    8  O1  UNL     1      22.138   2.322  52.468  1.00  0.00    -0.360 OA
HETATM    9  C1  UNL     1      22.726   3.340  51.682  1.00  0.00     0.209 C 
ENDBRANCH   6   8
BRANCH   7  10
HETATM   10  C4  UNL     1      25.023   0.907  53.546  1.00  0.00    -0.013 C 
HETATM   11  C5  UNL     1      25.937  -0.026  53.732  1.00  0.00    -0.052 C 
HETATM   12  C6  UNL     1      26.750   0.152  55.071  1.00  0.00     0.068 C 
HETATM   13  C11 UNL     1      26.370  -1.101  52.758  1.00  0.00     0.089 C 
HETATM   14  C7  UNL     1      27.792   1.152  54.283  1.00  0.00     0.148 C 
HETATM   15  N1  UNL     1      26.939   2.301  54.262  1.00  0.00    -0.290 NA
HETATM   16  C9  UNL     1      27.649   0.247  53.022  1.00  0.00     0.007 C 
HETATM   17  C8  UNL     1      25.680   2.212  53.875  1.00  0.00     0.122 C 
HETATM   18  C10 UNL     1      27.862  -1.102  53.154  1.00  0.00     0.024 C 
HETATM   19  C13 UNL     1      26.957   0.712  51.802  1.00  0.00     0.018 C 
HETATM   20  C12 UNL     1      26.795  -0.571  51.364  1.00  0.00     0.008 C 
HETATM   21 BR1  UNL     1      26.485   2.328  50.901  1.00  0.00    -0.051 Br
BRANCH  18  22
HETATM   22  N2  UNL     1      28.432  -2.362  53.371  1.00  0.00    -0.401 N 
HETATM   23  H9  UNL     1      29.474  -2.332  53.164  1.00  0.00     0.156 HD
HETATM   24  H10 UNL     1      27.780  -3.112  53.691  1.00  0.00     0.156 HD
ENDBRANCH  18  22
ENDBRANCH   7  10
ENDBRANCH   5   6
ENDBRANCH   1   5
TORSDOF 5
ENDMDL
MODEL 4
REMARK VINA RESULT:      -6.7      2.408      4.100
REMARK  5 active torsions:
REMARK  status: ('A' for Active; 'I' for Inactive)
REMARK    1  A    between atoms: O1_2  and  C2_3 
REMARK    2  A    between atoms: C2_3  and  C14_18 
REMARK    3  A    between atoms: C3_4  and  C4_5 
REMARK    4  A    between atoms: C10_12  and  N2_13 
REMARK    5  A    between atoms: C14_18  and  C15_19 
ROOT
HETATM    1  C15 UNL     1      26.396  -0.517  53.043  1.00  0.00    -0.010 C 
HETATM    2  C16 UNL     1      27.681  -0.627  53.336  1.00  0.00     0.090 C 
HETATM    3  C17 UNL     1      28.227   0.356  54.231  1.00  0.00     0.087 C 
HETATM    4  N3  UNL     1      28.674   1.130  54.941  1.00  0.00    -0.192 NA
ENDROOT
BRANCH   1   5
HETATM    5  C14 UNL     1      25.511   0.562  53.593  1.00  0.00     0.092 C 
BRANCH   5   6
HETATM    6  C2  UNL     1      24.977   1.415  52.494  1.00  0.00     0.050 C 
HETATM    7  C3  UNL     1      23.859   1.140  51.915  1.00  0.00     0.045 C 
BRANCH   6   8
HETATM    8  O1  UNL     1      25.949   2.368  52.403  1.00  0.00    -0.360 OA
HETATM    9  C1  UNL     1      26.650   2.720  51.227  1.00  0.00     0.209 C 
ENDBRANCH   6   8
BRANCH   7  10
HETATM   10  C4  UNL     1      23.006   1.604  50.908  1.00  0.00    -0.013 C 
HETATM   11  C5  UNL     1      21.815   1.056  50.757  1.00  0.00    -0.052 C 
HETATM   12  C6  UNL     1      21.431   0.800  49.249  1.00  0.00     0.068 C 
HETATM   13  C11 UNL     1      20.768   0.811  51.822  1.00  0.00     0.089 C 
HETATM   14  C7  UNL     1      20.843   2.334  49.158  1.00  0.00     0.148 C 
HETATM   15  N1  UNL     1      22.110   2.995  49.067  1.00  0.00    -0.290 NA
HETATM   16  C9  UNL     1      20.324   2.182  50.620  1.00  0.00     0.007 C 
HETATM   17  C8  UNL     1      23.093   2.706  49.899  1.00  0.00     0.122 C 
HETATM   18  C10 UNL     1      19.542   1.098  50.930  1.00  0.00     0.024 C 
HETATM   19  C13 UNL     1      20.919   2.936  51.742  1.00  0.00     0.018 C 
HETATM   20  C12 UNL     1      20.391   2.066  52.652  1.00  0.00     0.008 C 
HETATM   21 BR1  UNL     1      21.911   4.533  52.084  1.00  0.00    -0.051 Br
BRANCH  18  22
HETATM   22  N2  UNL     1      18.505   0.160  51.001  1.00  0.00    -0.401 N 
HETATM   23  H9  UNL     1      18.577  -0.526  50.192  1.00  0.00     0.156 HD
HETATM   24  H10 UNL     1      17.844   0.267  51.802  1.00  0.00     0.156 HD
ENDBRANCH  18  22
ENDBRANCH   7  10
ENDBRANCH   5   6
ENDBRANCH   1   5
TORSDOF 5
ENDMDL
MODEL 5
REMARK VINA RESULT:      -6.5      3.331      5.709
REMARK  5 active torsions:
REMARK  status: ('A' for Active; 'I' for Inactive)
REMARK    1  A    between atoms: O1_2  and  C2_3 
REMARK    2  A    between atoms: C2_3  and  C14_18 
REMARK    3  A    between atoms: C3_4  and  C4_5 
REMARK    4  A    between atoms: C10_12  and  N2_13 
REMARK    5  A    between atoms: C14_18  and  C15_19 
ROOT
HETATM    1  C15 UNL     1      27.264   6.198  48.278  1.00  0.00    -0.010 C 
HETATM    2  C16 UNL     1      28.455   6.635  47.907  1.00  0.00     0.090 C 
HETATM    3  C17 UNL     1      29.568   5.754  48.134  1.00  0.00     0.087 C 
HETATM    4  N3  UNL     1      30.460   5.065  48.308  1.00  0.00    -0.192 NA
ENDROOT
BRANCH   1   5
HETATM    5  C14 UNL     1      27.034   4.856  48.909  1.00  0.00     0.092 C 
BRANCH   5   6
HETATM    6  C2  UNL     1      25.758   4.846  49.677  1.00  0.00     0.050 C 
HETATM    7  C3  UNL     1      25.041   3.779  49.772  1.00  0.00     0.045 C 
BRANCH   6   8
HETATM    8  O1  UNL     1      25.705   6.136  50.117  1.00  0.00    -0.360 OA
HETATM    9  C1  UNL     1      24.551   6.952  50.138  1.00  0.00     0.209 C 
ENDBRANCH   6   8
BRANCH   7  10
HETATM   10  C4  UNL     1      23.852   3.307  50.339  1.00  0.00    -0.013 C 
HETATM   11  C5  UNL     1      23.831   2.125  50.923  1.00  0.00    -0.052 C 
HETATM   12  C6  UNL     1      22.549   1.276  50.574  1.00  0.00     0.068 C 
HETATM   13  C11 UNL     1      24.787   1.595  51.971  1.00  0.00     0.089 C 
HETATM   14  C7  UNL     1      21.750   2.010  51.812  1.00  0.00     0.148 C 
HETATM   15  N1  UNL     1      21.512   3.254  51.145  1.00  0.00    -0.290 NA
HETATM   16  C9  UNL     1      23.075   1.986  52.632  1.00  0.00     0.007 C 
HETATM   17  C8  UNL     1      22.482   3.886  50.510  1.00  0.00     0.122 C 
HETATM   18  C10 UNL     1      23.739   0.794  52.772  1.00  0.00     0.024 C 
HETATM   19  C13 UNL     1      23.818   3.222  52.949  1.00  0.00     0.018 C 
HETATM   20  C12 UNL     1      24.955   2.512  53.210  1.00  0.00     0.008 C 
HETATM   21 BR1  UNL     1      23.541   5.103  53.138  1.00  0.00    -0.051 Br
BRANCH  18  22
HETATM   22  N2  UNL     1      24.101  -0.517  53.107  1.00  0.00    -0.401 N 
HETATM   23  H9  UNL     1      23.240  -1.074  53.385  1.00  0.00     0.156 HD
HETATM   24  H10 UNL     1      25.118  -0.744  53.036  1.00  0.00     0.156 HD
ENDBRANCH  18  22
ENDBRANCH   7  10
ENDBRANCH   5   6
ENDBRANCH   1   5
TORSDOF 5
ENDMDL
MODEL 6
REMARK VINA RESULT:      -6.4      2.950      5.224
REMARK  5 active torsions:
REMARK  status: ('A' for Active; 'I' for Inactive)
REMARK    1  A    between atoms: O1_2  and  C2_3 
REMARK    2  A    between atoms: C2_3  and  C14_18 
REMARK    3  A    between atoms: C3_4  and  C4_5 
REMARK    4  A    between atoms: C10_12  and  N2_13 
REMARK    5  A    between atoms: C14_18  and  C15_19 
ROOT
HETATM    1  C15 UNL     1      26.524   5.182  48.966  1.00  0.00    -0.010 C 
HETATM    2  C16 UNL     1      27.396   6.049  48.479  1.00  0.00     0.090 C 
HETATM    3  C17 UNL     1      28.749   5.590  48.326  1.00  0.00     0.087 C 
HETATM    4  N3  UNL     1      29.828   5.239  48.199  1.00  0.00    -0.192 NA
ENDROOT
BRANCH   1   5
HETATM    5  C14 UNL     1      26.882   3.777  49.353  1.00  0.00     0.092 C 
BRANCH   5   6
HETATM    6  C2  UNL     1      25.679   3.039  49.827  1.00  0.00     0.050 C 
HETATM    7  C3  UNL     1      24.495   3.360  49.429  1.00  0.00     0.045 C 
BRANCH   6   8
HETATM    8  O1  UNL     1      26.245   2.114  50.655  1.00  0.00    -0.360 OA
HETATM    9  C1  UNL     1      26.899   2.393  51.876  1.00  0.00     0.209 C 
ENDBRANCH   6   8
BRANCH   7  10
HETATM   10  C4  UNL     1      23.154   2.995  49.581  1.00  0.00    -0.013 C 
HETATM   11  C5  UNL     1      22.846   1.890  50.232  1.00  0.00    -0.052 C 
HETATM   12  C6  UNL     1      21.710   1.048  49.536  1.00  0.00     0.068 C 
HETATM   13  C11 UNL     1      23.337   1.455  51.597  1.00  0.00     0.089 C 
HETATM   14  C7  UNL     1      20.583   1.946  50.332  1.00  0.00     0.148 C 
HETATM   15  N1  UNL     1      20.682   3.111  49.506  1.00  0.00    -0.290 NA
HETATM   16  C9  UNL     1      21.534   1.976  51.566  1.00  0.00     0.007 C 
HETATM   17  C8  UNL     1      21.854   3.633  49.197  1.00  0.00     0.122 C 
HETATM   18  C10 UNL     1      22.021   0.787  52.049  1.00  0.00     0.024 C 
HETATM   19  C13 UNL     1      22.205   3.216  52.004  1.00  0.00     0.018 C 
HETATM   20  C12 UNL     1      23.127   2.505  52.720  1.00  0.00     0.008 C 
HETATM   21 BR1  UNL     1      22.013   5.113  51.898  1.00  0.00    -0.051 Br
BRANCH  18  22
HETATM   22  N2  UNL     1      22.149  -0.486  52.616  1.00  0.00    -0.401 N 
HETATM   23  H9  UNL     1      21.215  -0.808  53.008  1.00  0.00     0.156 HD
HETATM   24  H10 UNL     1      23.101  -0.914  52.573  1.00  0.00     0.156 HD
ENDBRANCH  18  22
ENDBRANCH   7  10
ENDBRANCH   5   6
ENDBRANCH   1   5
TORSDOF 5
ENDMDL
MODEL 7
REMARK VINA RESULT:      -6.4      2.330      2.907
REMARK  5 active torsions:
REMARK  status: ('A' for Active; 'I' for Inactive)
REMARK    1  A    between atoms: O1_2  and  C2_3 
REMARK    2  A    between atoms: C2_3  and  C14_18 
REMARK    3  A    between atoms: C3_4  and  C4_5 
REMARK    4  A    between atoms: C10_12  and  N2_13 
REMARK    5  A    between atoms: C14_18  and  C15_19 
ROOT
HETATM    1  C15 UNL     1      25.781   1.255  52.307  1.00  0.00    -0.010 C 
HETATM    2  C16 UNL     1      26.730   0.438  51.882  1.00  0.00     0.090 C 
HETATM    3  C17 UNL     1      26.809  -0.849  52.516  1.00  0.00     0.087 C 
HETATM    4  N3  UNL     1      26.882  -1.874  53.011  1.00  0.00    -0.192 NA
ENDROOT
BRANCH   1   5
HETATM    5  C14 UNL     1      24.810   0.901  53.395  1.00  0.00     0.092 C 
BRANCH   5   6
HETATM    6  C2  UNL     1      23.409   1.122  52.943  1.00  0.00     0.050 C 
HETATM    7  C3  UNL     1      23.058   2.214  52.355  1.00  0.00     0.045 C 
BRANCH   6   8
HETATM    8  O1  UNL     1      22.819  -0.046  53.328  1.00  0.00    -0.360 OA
HETATM    9  C1  UNL     1      23.316  -0.935  54.309  1.00  0.00     0.209 C 
ENDBRANCH   6   8
BRANCH   7  10
HETATM   10  C4  UNL     1      21.945   2.843  51.789  1.00  0.00    -0.013 C 
HETATM   11  C5  UNL     1      21.940   3.130  50.501  1.00  0.00    -0.052 C 
HETATM   12  C6  UNL     1      21.361   4.562  50.181  1.00  0.00     0.068 C 
HETATM   13  C11 UNL     1      22.267   2.207  49.347  1.00  0.00     0.089 C 
HETATM   14  C7  UNL     1      19.847   3.919  50.142  1.00  0.00     0.148 C 
HETATM   15  N1  UNL     1      19.675   3.805  51.558  1.00  0.00    -0.290 NA
HETATM   16  C9  UNL     1      20.446   2.641  49.482  1.00  0.00     0.007 C 
HETATM   17  C8  UNL     1      20.609   3.264  52.319  1.00  0.00     0.122 C 
HETATM   18  C10 UNL     1      21.228   2.784  48.363  1.00  0.00     0.024 C 
HETATM   19  C13 UNL     1      20.510   1.350  50.197  1.00  0.00     0.018 C 
HETATM   20  C12 UNL     1      21.462   0.881  49.337  1.00  0.00     0.008 C 
HETATM   21 BR1  UNL     1      19.658   0.414  51.628  1.00  0.00    -0.051 Br
BRANCH  18  22
HETATM   22  N2  UNL     1      21.698   3.057  47.073  1.00  0.00    -0.401 N 
HETATM   23  H9  UNL     1      20.920   3.474  46.481  1.00  0.00     0.156 HD
HETATM   24  H10 UNL     1      22.699   2.822  46.890  1.00  0.00     0.156 HD
ENDBRANCH  18  22
ENDBRANCH   7  10
ENDBRANCH   5   6
ENDBRANCH   1   5
TORSDOF 5
ENDMDL
MODEL 8
REMARK VINA RESULT:      -6.4      2.147      2.849
REMARK  5 active torsions:
REMARK  status: ('A' for Active; 'I' for Inactive)
REMARK    1  A    between atoms: O1_2  and  C2_3 
REMARK    2  A    between atoms: C2_3  and  C14_18 
REMARK    3  A    between atoms: C3_4  and  C4_5 
REMARK    4  A    between atoms: C10_12  and  N2_13 
REMARK    5  A    between atoms: C14_18  and  C15_19 
ROOT
HETATM    1  C15 UNL     1      26.169   0.015  52.182  1.00  0.00    -0.010 C 
HETATM    2  C16 UNL     1      26.543  -0.546  53.320  1.00  0.00     0.090 C 
HETATM    3  C17 UNL     1      27.399   0.230  54.174  1.00  0.00     0.087 C 
HETATM    4  N3  UNL     1      28.079   0.836  54.862  1.00  0.00    -0.192 NA
ENDROOT
BRANCH   1   5
HETATM    5  C14 UNL     1      26.591   1.392  51.760  1.00  0.00     0.092 C 
BRANCH   5   6
HETATM    6  C2  UNL     1      25.411   2.201  51.349  1.00  0.00     0.050 C 
HETATM    7  C3  UNL     1      24.208   1.787  51.556  1.00  0.00     0.045 C 
BRANCH   6   8
HETATM    8  O1  UNL     1      26.017   3.292  50.799  1.00  0.00    -0.360 OA
HETATM    9  C1  UNL     1      26.615   3.344  49.518  1.00  0.00     0.209 C 
ENDBRANCH   6   8
BRANCH   7  10
HETATM   10  C4  UNL     1      22.874   2.160  51.364  1.00  0.00    -0.013 C 
HETATM   11  C5  UNL     1      22.498   3.399  51.618  1.00  0.00    -0.052 C 
HETATM   12  C6  UNL     1      21.120   3.492  52.379  1.00  0.00     0.068 C 
HETATM   13  C11 UNL     1      23.145   4.678  51.132  1.00  0.00     0.089 C 
HETATM   14  C7  UNL     1      20.339   3.449  50.931  1.00  0.00     0.148 C 
HETATM   15  N1  UNL     1      20.492   2.045  50.699  1.00  0.00    -0.290 NA
HETATM   16  C9  UNL     1      21.490   4.309  50.327  1.00  0.00     0.007 C 
HETATM   17  C8  UNL     1      21.662   1.451  50.843  1.00  0.00     0.122 C 
HETATM   18  C10 UNL     1      21.836   5.478  50.956  1.00  0.00     0.024 C 
HETATM   19  C13 UNL     1      22.443   3.757  49.342  1.00  0.00     0.018 C 
HETATM   20  C12 UNL     1      23.337   4.757  49.595  1.00  0.00     0.008 C 
HETATM   21 BR1  UNL     1      22.578   2.363  48.043  1.00  0.00    -0.051 Br
BRANCH  18  22
HETATM   22  N2  UNL     1      21.836   6.770  51.496  1.00  0.00    -0.401 N 
HETATM   23  H9  UNL     1      21.699   6.726  52.549  1.00  0.00     0.156 HD
HETATM   24  H10 UNL     1      21.966   7.552  50.815  1.00  0.00     0.156 HD
ENDBRANCH  18  22
ENDBRANCH   7  10
ENDBRANCH   5   6
ENDBRANCH   1   5
TORSDOF 5
ENDMDL
MODEL 9
REMARK VINA RESULT:      -6.4      8.352     10.469
REMARK  5 active torsions:
REMARK  status: ('A' for Active; 'I' for Inactive)
REMARK    1  A    between atoms: O1_2  and  C2_3 
REMARK    2  A    between atoms: C2_3  and  C14_18 
REMARK    3  A    between atoms: C3_4  and  C4_5 
REMARK    4  A    between atoms: C10_12  and  N2_13 
REMARK    5  A    between atoms: C14_18  and  C15_19 
ROOT
HETATM    1  C15 UNL     1      27.045   5.878  48.585  1.00  0.00    -0.010 C 
HETATM    2  C16 UNL     1      26.101   5.238  49.254  1.00  0.00     0.090 C 
HETATM    3  C17 UNL     1      26.427   3.925  49.739  1.00  0.00     0.087 C 
HETATM    4  N3  UNL     1      26.673   2.881  50.129  1.00  0.00    -0.192 NA
ENDROOT
BRANCH   1   5
HETATM    5  C14 UNL     1      28.405   5.303  48.320  1.00  0.00     0.092 C 
BRANCH   5   6
HETATM    6  C2  UNL     1      29.366   6.378  47.943  1.00  0.00     0.050 C 
HETATM    7  C3  UNL     1      30.631   6.147  47.860  1.00  0.00     0.045 C 
BRANCH   6   8
HETATM    8  O1  UNL     1      28.523   7.436  47.770  1.00  0.00    -0.360 OA
HETATM    9  C1  UNL     1      28.900   8.799  47.780  1.00  0.00     0.209 C 
ENDBRANCH   6   8
BRANCH   7  10
HETATM   10  C4  UNL     1      31.842   6.783  47.566  1.00  0.00    -0.013 C 
HETATM   11  C5  UNL     1      32.903   6.545  48.313  1.00  0.00    -0.052 C 
HETATM   12  C6  UNL     1      33.731   7.843  48.656  1.00  0.00     0.068 C 
HETATM   13  C11 UNL     1      33.466   5.199  48.717  1.00  0.00     0.089 C 
HETATM   14  C7  UNL     1      34.562   7.661  47.247  1.00  0.00     0.148 C 
HETATM   15  N1  UNL     1      33.532   8.148  46.380  1.00  0.00    -0.290 NA
HETATM   16  C9  UNL     1      34.517   6.118  47.462  1.00  0.00     0.007 C 
HETATM   17  C8  UNL     1      32.290   7.713  46.482  1.00  0.00     0.122 C 
HETATM   18  C10 UNL     1      34.953   5.609  48.659  1.00  0.00     0.024 C 
HETATM   19  C13 UNL     1      33.709   5.233  46.599  1.00  0.00     0.018 C 
HETATM   20  C12 UNL     1      33.741   4.236  47.531  1.00  0.00     0.008 C 
HETATM   21 BR1  UNL     1      32.941   5.179  44.850  1.00  0.00    -0.051 Br
BRANCH  18  22
HETATM   22  N2  UNL     1      35.731   5.231  49.760  1.00  0.00    -0.401 N 
HETATM   23  H9  UNL     1      36.302   4.367  49.525  1.00  0.00     0.156 HD
HETATM   24  H10 UNL     1      35.640   5.828  50.613  1.00  0.00     0.156 HD
ENDBRANCH  18  22
ENDBRANCH   7  10
ENDBRANCH   5   6
ENDBRANCH   1   5
TORSDOF 5
ENDMDL
