MODEL 1
REMARK VINA RESULT:      -7.2      0.000      0.000
REMARK  7 active torsions:
REMARK  status: ('A' for Active; 'I' for Inactive)
REMARK    1  A    between atoms: C2_2  and  S1_3 
REMARK    2  A    between atoms: S1_3  and  N1_6 
REMARK    3  A    between atoms: N1_6  and  C3_7 
REMARK    4  A    between atoms: C3_7  and  C5_9 
REMARK    5  A    between atoms: C5_9  and  C6_10 
REMARK    6  A    between atoms: C7_11  and  N2_12 
REMARK    7  A    between atoms: N2_12  and  C8_13 
ROOT
HETATM    1  C6  UNL     1      22.909   2.318  50.235  1.00  0.00     0.008 A 
HETATM    2  C7  UNL     1      21.845   1.878  51.126  1.00  0.00     0.135 A 
HETATM    3  N3  UNL     1      20.724   1.421  50.733  1.00  0.00    -0.243 NA
HETATM    4  C14 UNL     1      20.440   1.322  49.347  1.00  0.00     0.116 A 
HETATM    5  C15 UNL     1      21.372   1.727  48.498  1.00  0.00     0.013 A 
HETATM    6  C16 UNL     1      22.711   2.292  48.741  1.00  0.00     0.118 A 
HETATM    7 BR1  UNL     1      22.836   4.095  48.054  1.00  0.00    -0.082 Br
ENDROOT
BRANCH   1   8
HETATM    8  C5  UNL     1      24.083   2.757  50.460  1.00  0.00     0.041 C 
BRANCH   8   9
HETATM    9  C3  UNL     1      25.488   3.104  50.593  1.00  0.00     0.034 C 
HETATM   10  C4  UNL     1      26.328   3.874  49.920  1.00  0.00     0.043 C 
BRANCH   9  11
HETATM   11  N1  UNL     1      26.307   2.591  51.652  1.00  0.00    -0.282 N 
HETATM   12  H4  UNL     1      25.903   1.619  51.441  1.00  0.00     0.179 HD
BRANCH  11  13
HETATM   13  S1  UNL     1      27.284   1.976  52.919  1.00  0.00     0.252 S 
HETATM   14  O1  UNL     1      26.528   2.307  54.209  1.00  0.00    -0.201 OA
HETATM   15  O2  UNL     1      28.609   2.665  53.045  1.00  0.00    -0.201 OA
BRANCH  13  16
HETATM   16  C2  UNL     1      27.435   0.254  52.882  1.00  0.00     0.121 C 
HETATM   17  C1  UNL     1      26.707  -0.389  51.956  1.00  0.00     0.025 C 
ENDBRANCH  13  16
ENDBRANCH  11  13
ENDBRANCH   9  11
ENDBRANCH   8   9
ENDBRANCH   1   8
BRANCH   2  18
HETATM   18  N2  UNL     1      22.145   1.997  52.503  1.00  0.00    -0.341 N 
HETATM   19  H8  UNL     1      22.233   2.946  52.923  1.00  0.00     0.167 HD
BRANCH  18  20
HETATM   20  C8  UNL     1      22.319   0.857  53.335  1.00  0.00     0.033 A 
HETATM   21  C9  UNL     1      23.592   0.283  53.468  1.00  0.00     0.029 A 
HETATM   22  C10 UNL     1      23.792  -0.810  54.283  1.00  0.00     0.002 A 
HETATM   23  C11 UNL     1      22.706  -1.328  54.966  1.00  0.00     0.000 A 
HETATM   24  C12 UNL     1      21.449  -0.755  54.829  1.00  0.00     0.002 A 
HETATM   25  C13 UNL     1      21.229   0.344  54.015  1.00  0.00     0.029 A 
ENDBRANCH  18  20
ENDBRANCH   2  18
TORSDOF 7
ENDMDL
MODEL 2
REMARK VINA RESULT:      -7.1      2.933      5.288
REMARK  7 active torsions:
REMARK  status: ('A' for Active; 'I' for Inactive)
REMARK    1  A    between atoms: C2_2  and  S1_3 
REMARK    2  A    between atoms: S1_3  and  N1_6 
REMARK    3  A    between atoms: N1_6  and  C3_7 
REMARK    4  A    between atoms: C3_7  and  C5_9 
REMARK    5  A    between atoms: C5_9  and  C6_10 
REMARK    6  A    between atoms: C7_11  and  N2_12 
REMARK    7  A    between atoms: N2_12  and  C8_13 
ROOT
HETATM    1  C6  UNL     1      23.213  -0.001  53.072  1.00  0.00     0.008 A 
HETATM    2  C7  UNL     1      24.384  -0.154  53.922  1.00  0.00     0.135 A 
HETATM    3  N3  UNL     1      24.411  -0.853  54.987  1.00  0.00    -0.243 NA
HETATM    4  C14 UNL     1      23.248  -1.538  55.419  1.00  0.00     0.116 A 
HETATM    5  C15 UNL     1      22.152  -1.414  54.686  1.00  0.00     0.013 A 
HETATM    6  C16 UNL     1      21.908  -0.655  53.447  1.00  0.00     0.118 A 
HETATM    7 BR1  UNL     1      20.571   0.714  53.727  1.00  0.00    -0.082 Br
ENDROOT
BRANCH   1   8
HETATM    8  C5  UNL     1      23.030   0.620  51.974  1.00  0.00     0.041 C 
BRANCH   8   9
HETATM    9  C3  UNL     1      22.698   1.455  50.832  1.00  0.00     0.034 C 
HETATM   10  C4  UNL     1      21.732   1.458  49.928  1.00  0.00     0.043 C 
BRANCH   9  11
HETATM   11  N1  UNL     1      23.486   2.593  50.461  1.00  0.00    -0.282 N 
HETATM   12  H4  UNL     1      24.245   2.238  51.133  1.00  0.00     0.179 HD
BRANCH  11  13
HETATM   13  S1  UNL     1      24.431   3.953  50.018  1.00  0.00     0.252 S 
HETATM   14  O1  UNL     1      24.226   4.971  51.144  1.00  0.00    -0.201 OA
HETATM   15  O2  UNL     1      23.954   4.636  48.772  1.00  0.00    -0.201 OA
BRANCH  13  16
HETATM   16  C2  UNL     1      26.126   3.617  49.979  1.00  0.00     0.121 C 
HETATM   17  C1  UNL     1      26.551   2.602  50.748  1.00  0.00     0.025 C 
ENDBRANCH  13  16
ENDBRANCH  11  13
ENDBRANCH   9  11
ENDBRANCH   8   9
ENDBRANCH   1   8
BRANCH   2  18
HETATM   18  N2  UNL     1      25.529   0.548  53.478  1.00  0.00    -0.341 N 
HETATM   19  H8  UNL     1      25.418   1.514  53.104  1.00  0.00     0.167 HD
BRANCH  18  20
HETATM   20  C8  UNL     1      26.830  -0.022  53.539  1.00  0.00     0.033 A 
HETATM   21  C9  UNL     1      27.796   0.541  54.385  1.00  0.00     0.029 A 
HETATM   22  C10 UNL     1      29.058  -0.003  54.478  1.00  0.00     0.002 A 
HETATM   23  C11 UNL     1      29.350  -1.118  53.713  1.00  0.00     0.000 A 
HETATM   24  C12 UNL     1      28.390  -1.670  52.876  1.00  0.00     0.002 A 
HETATM   25  C13 UNL     1      27.116  -1.137  52.772  1.00  0.00     0.029 A 
ENDBRANCH  18  20
ENDBRANCH   2  18
TORSDOF 7
ENDMDL
MODEL 3
REMARK VINA RESULT:      -7.0      2.301      4.811
REMARK  7 active torsions:
REMARK  status: ('A' for Active; 'I' for Inactive)
REMARK    1  A    between atoms: C2_2  and  S1_3 
REMARK    2  A    between atoms: S1_3  and  N1_6 
REMARK    3  A    between atoms: N1_6  and  C3_7 
REMARK    4  A    between atoms: C3_7  and  C5_9 
REMARK    5  A    between atoms: C5_9  and  C6_10 
REMARK    6  A    between atoms: C7_11  and  N2_12 
REMARK    7  A    between atoms: N2_12  and  C8_13 
ROOT
HETATM    1  C6  UNL     1      22.267   2.699  52.087  1.00  0.00     0.008 A 
HETATM    2  C7  UNL     1      22.674   4.068  51.805  1.00  0.00     0.135 A 
HETATM    3  N3  UNL     1      21.890   4.976  51.381  1.00  0.00    -0.243 NA
HETATM    4  C14 UNL     1      20.522   4.684  51.143  1.00  0.00     0.116 A 
HETATM    5  C15 UNL     1      20.109   3.446  51.369  1.00  0.00     0.013 A 
HETATM    6  C16 UNL     1      20.846   2.260  51.840  1.00  0.00     0.118 A 
HETATM    7 BR1  UNL     1      20.837   0.864  50.503  1.00  0.00    -0.082 Br
ENDROOT
BRANCH   1   8
HETATM    8  C5  UNL     1      22.905   1.695  52.543  1.00  0.00     0.041 C 
BRANCH   8   9
HETATM    9  C3  UNL     1      23.448   0.479  53.126  1.00  0.00     0.034 C 
HETATM   10  C4  UNL     1      22.976  -0.734  53.362  1.00  0.00     0.043 C 
BRANCH   9  11
HETATM   11  N1  UNL     1      24.799   0.393  53.597  1.00  0.00    -0.282 N 
HETATM   12  H4  UNL     1      24.460  -0.326  54.319  1.00  0.00     0.179 HD
BRANCH  11  13
HETATM   13  S1  UNL     1      26.414   0.289  54.162  1.00  0.00     0.252 S 
HETATM   14  O1  UNL     1      26.324  -0.437  55.508  1.00  0.00    -0.201 OA
HETATM   15  O2  UNL     1      27.031   1.620  54.467  1.00  0.00    -0.201 OA
BRANCH  13  16
HETATM   16  C2  UNL     1      27.422  -0.691  53.156  1.00  0.00     0.121 C 
HETATM   17  C1  UNL     1      26.810  -1.670  52.471  1.00  0.00     0.025 C 
ENDBRANCH  13  16
ENDBRANCH  11  13
ENDBRANCH   9  11
ENDBRANCH   8   9
ENDBRANCH   1   8
BRANCH   2  18
HETATM   18  N2  UNL     1      24.044   4.333  52.037  1.00  0.00    -0.341 N 
HETATM   19  H8  UNL     1      24.371   4.496  53.013  1.00  0.00     0.167 HD
BRANCH  18  20
HETATM   20  C8  UNL     1      24.991   4.373  50.978  1.00  0.00     0.033 A 
HETATM   21  C9  UNL     1      25.195   5.569  50.275  1.00  0.00     0.029 A 
HETATM   22  C10 UNL     1      26.121   5.641  49.257  1.00  0.00     0.002 A 
HETATM   23  C11 UNL     1      26.844   4.502  48.945  1.00  0.00     0.000 A 
HETATM   24  C12 UNL     1      26.636   3.322  49.645  1.00  0.00     0.002 A 
HETATM   25  C13 UNL     1      25.710   3.232  50.671  1.00  0.00     0.029 A 
ENDBRANCH  18  20
ENDBRANCH   2  18
TORSDOF 7
ENDMDL
MODEL 4
REMARK VINA RESULT:      -6.8      3.422      5.431
REMARK  7 active torsions:
REMARK  status: ('A' for Active; 'I' for Inactive)
REMARK    1  A    between atoms: C2_2  and  S1_3 
REMARK    2  A    between atoms: S1_3  and  N1_6 
REMARK    3  A    between atoms: N1_6  and  C3_7 
REMARK    4  A    between atoms: C3_7  and  C5_9 
REMARK    5  A    between atoms: C5_9  and  C6_10 
REMARK    6  A    between atoms: C7_11  and  N2_12 
REMARK    7  A    between atoms: N2_12  and  C8_13 
ROOT
HETATM    1  C6  UNL     1      24.539   2.410  51.492  1.00  0.00     0.008 A 
HETATM    2  C7  UNL     1      24.962   1.143  52.071  1.00  0.00     0.135 A 
HETATM    3  N3  UNL     1      24.220   0.400  52.792  1.00  0.00    -0.243 NA
HETATM    4  C14 UNL     1      22.890   0.793  53.086  1.00  0.00     0.116 A 
HETATM    5  C15 UNL     1      22.465   1.947  52.594  1.00  0.00     0.013 A 
HETATM    6  C16 UNL     1      23.157   2.948  51.762  1.00  0.00     0.118 A 
HETATM    7 BR1  UNL     1      23.306   4.637  52.692  1.00  0.00    -0.082 Br
ENDROOT
BRANCH   1   8
HETATM    8  C5  UNL     1      25.133   3.241  50.731  1.00  0.00     0.041 C 
BRANCH   8   9
HETATM    9  C3  UNL     1      25.962   4.191  50.008  1.00  0.00     0.034 C 
HETATM   10  C4  UNL     1      27.034   4.097  49.238  1.00  0.00     0.043 C 
BRANCH   9  11
HETATM   11  N1  UNL     1      25.693   5.599  50.009  1.00  0.00    -0.282 N 
HETATM   12  H4  UNL     1      26.537   5.720  50.662  1.00  0.00     0.179 HD
BRANCH  11  13
HETATM   13  S1  UNL     1      25.372   7.283  50.012  1.00  0.00     0.252 S 
HETATM   14  O1  UNL     1      25.102   7.645  48.549  1.00  0.00    -0.201 OA
HETATM   15  O2  UNL     1      26.549   8.118  50.420  1.00  0.00    -0.201 OA
BRANCH  13  16
HETATM   16  C2  UNL     1      23.936   7.697  50.881  1.00  0.00     0.121 C 
HETATM   17  C1  UNL     1      22.858   7.997  50.142  1.00  0.00     0.025 C 
ENDBRANCH  13  16
ENDBRANCH  11  13
ENDBRANCH   9  11
ENDBRANCH   8   9
ENDBRANCH   1   8
BRANCH   2  18
HETATM   18  N2  UNL     1      26.296   0.778  51.775  1.00  0.00    -0.341 N 
HETATM   19  H8  UNL     1      26.519   0.389  50.834  1.00  0.00     0.167 HD
BRANCH  18  20
HETATM   20  C8  UNL     1      27.346   0.938  52.720  1.00  0.00     0.033 A 
HETATM   21  C9  UNL     1      27.863  -0.187  53.379  1.00  0.00     0.029 A 
HETATM   22  C10 UNL     1      28.894  -0.064  54.285  1.00  0.00     0.002 A 
HETATM   23  C11 UNL     1      29.405   1.199  54.530  1.00  0.00     0.000 A 
HETATM   24  C12 UNL     1      28.888   2.308  53.874  1.00  0.00     0.002 A 
HETATM   25  C13 UNL     1      27.853   2.202  52.960  1.00  0.00     0.029 A 
ENDBRANCH  18  20
ENDBRANCH   2  18
TORSDOF 7
ENDMDL
MODEL 5
REMARK VINA RESULT:      -6.8      3.072      4.993
REMARK  7 active torsions:
REMARK  status: ('A' for Active; 'I' for Inactive)
REMARK    1  A    between atoms: C2_2  and  S1_3 
REMARK    2  A    between atoms: S1_3  and  N1_6 
REMARK    3  A    between atoms: N1_6  and  C3_7 
REMARK    4  A    between atoms: C3_7  and  C5_9 
REMARK    5  A    between atoms: C5_9  and  C6_10 
REMARK    6  A    between atoms: C7_11  and  N2_12 
REMARK    7  A    between atoms: N2_12  and  C8_13 
ROOT
HETATM    1  C6  UNL     1      24.078   1.068  52.373  1.00  0.00     0.008 A 
HETATM    2  C7  UNL     1      24.503   0.268  53.513  1.00  0.00     0.135 A 
HETATM    3  N3  UNL     1      23.775  -0.603  54.090  1.00  0.00    -0.243 NA
HETATM    4  C14 UNL     1      22.453  -0.841  53.635  1.00  0.00     0.116 A 
HETATM    5  C15 UNL     1      22.016  -0.124  52.611  1.00  0.00     0.013 A 
HETATM    6  C16 UNL     1      22.681   0.928  51.823  1.00  0.00     0.118 A 
HETATM    7 BR1  UNL     1      21.757   2.617  52.003  1.00  0.00    -0.082 Br
ENDROOT
BRANCH   1   8
HETATM    8  C5  UNL     1      24.683   1.940  51.669  1.00  0.00     0.041 C 
BRANCH   8   9
HETATM    9  C3  UNL     1      25.510   2.946  51.024  1.00  0.00     0.034 C 
HETATM   10  C4  UNL     1      26.745   2.977  50.552  1.00  0.00     0.043 C 
BRANCH   9  11
HETATM   11  N1  UNL     1      25.029   4.268  50.746  1.00  0.00    -0.282 N 
HETATM   12  H4  UNL     1      24.698   4.320  51.766  1.00  0.00     0.179 HD
BRANCH  11  13
HETATM   13  S1  UNL     1      24.453   5.848  50.414  1.00  0.00     0.252 S 
HETATM   14  O1  UNL     1      24.102   6.444  51.781  1.00  0.00    -0.201 OA
HETATM   15  O2  UNL     1      23.176   5.870  49.629  1.00  0.00    -0.201 OA
BRANCH  13  16
HETATM   16  C2  UNL     1      25.662   6.881  49.737  1.00  0.00     0.121 C 
HETATM   17  C1  UNL     1      26.497   6.320  48.850  1.00  0.00     0.025 C 
ENDBRANCH  13  16
ENDBRANCH  11  13
ENDBRANCH   9  11
ENDBRANCH   8   9
ENDBRANCH   1   8
BRANCH   2  18
HETATM   18  N2  UNL     1      25.820   0.531  53.957  1.00  0.00    -0.341 N 
HETATM   19  H8  UNL     1      26.001   1.377  54.538  1.00  0.00     0.167 HD
BRANCH  18  20
HETATM   20  C8  UNL     1      26.905  -0.333  53.642  1.00  0.00     0.033 A 
HETATM   21  C9  UNL     1      28.190  -0.034  54.118  1.00  0.00     0.029 A 
HETATM   22  C10 UNL     1      29.255  -0.864  53.845  1.00  0.00     0.002 A 
HETATM   23  C11 UNL     1      29.025  -2.000  53.088  1.00  0.00     0.000 A 
HETATM   24  C12 UNL     1      27.751  -2.289  52.621  1.00  0.00     0.002 A 
HETATM   25  C13 UNL     1      26.669  -1.467  52.886  1.00  0.00     0.029 A 
ENDBRANCH  18  20
ENDBRANCH   2  18
TORSDOF 7
ENDMDL
MODEL 6
REMARK VINA RESULT:      -6.7      3.269      5.594
REMARK  7 active torsions:
REMARK  status: ('A' for Active; 'I' for Inactive)
REMARK    1  A    between atoms: C2_2  and  S1_3 
REMARK    2  A    between atoms: S1_3  and  N1_6 
REMARK    3  A    between atoms: N1_6  and  C3_7 
REMARK    4  A    between atoms: C3_7  and  C5_9 
REMARK    5  A    between atoms: C5_9  and  C6_10 
REMARK    6  A    between atoms: C7_11  and  N2_12 
REMARK    7  A    between atoms: N2_12  and  C8_13 
ROOT
HETATM    1  C6  UNL     1      24.445   2.940  51.190  1.00  0.00     0.008 A 
HETATM    2  C7  UNL     1      25.800   2.527  51.527  1.00  0.00     0.135 A 
HETATM    3  N3  UNL     1      26.837   2.870  50.873  1.00  0.00    -0.243 NA
HETATM    4  C14 UNL     1      26.717   3.700  49.729  1.00  0.00     0.116 A 
HETATM    5  C15 UNL     1      25.502   4.087  49.374  1.00  0.00     0.013 A 
HETATM    6  C16 UNL     1      24.189   3.796  49.976  1.00  0.00     0.118 A 
HETATM    7 BR1  UNL     1      23.063   2.822  48.741  1.00  0.00    -0.082 Br
ENDROOT
BRANCH   1   8
HETATM    8  C5  UNL     1      23.322   2.721  51.750  1.00  0.00     0.041 C 
BRANCH   8   9
HETATM    9  C3  UNL     1      21.956   2.566  52.223  1.00  0.00     0.034 C 
HETATM   10  C4  UNL     1      20.878   3.333  52.231  1.00  0.00     0.043 C 
BRANCH   9  11
HETATM   11  N1  UNL     1      21.493   1.358  52.841  1.00  0.00    -0.282 N 
HETATM   12  H4  UNL     1      21.109   1.961  53.642  1.00  0.00     0.179 HD
BRANCH  11  13
HETATM   13  S1  UNL     1      20.938  -0.085  53.581  1.00  0.00     0.252 S 
HETATM   14  O1  UNL     1      20.944   0.204  55.085  1.00  0.00    -0.201 OA
HETATM   15  O2  UNL     1      21.862  -1.250  53.394  1.00  0.00    -0.201 OA
BRANCH  13  16
HETATM   16  C2  UNL     1      19.302  -0.469  53.174  1.00  0.00     0.121 C 
HETATM   17  C1  UNL     1      18.880  -0.075  51.962  1.00  0.00     0.025 C 
ENDBRANCH  13  16
ENDBRANCH  11  13
ENDBRANCH   9  11
ENDBRANCH   8   9
ENDBRANCH   1   8
BRANCH   2  18
HETATM   18  N2  UNL     1      25.894   1.690  52.663  1.00  0.00    -0.341 N 
HETATM   19  H8  UNL     1      25.043   1.522  53.242  1.00  0.00     0.167 HD
BRANCH  18  20
HETATM   20  C8  UNL     1      27.114   1.060  53.033  1.00  0.00     0.033 A 
HETATM   21  C9  UNL     1      28.106   1.802  53.689  1.00  0.00     0.029 A 
HETATM   22  C10 UNL     1      29.289   1.212  54.076  1.00  0.00     0.002 A 
HETATM   23  C11 UNL     1      29.474  -0.132  53.800  1.00  0.00     0.000 A 
HETATM   24  C12 UNL     1      28.487  -0.860  53.150  1.00  0.00     0.002 A 
HETATM   25  C13 UNL     1      27.292  -0.283  52.755  1.00  0.00     0.029 A 
ENDBRANCH  18  20
ENDBRANCH   2  18
TORSDOF 7
ENDMDL
MODEL 7
REMARK VINA RESULT:      -6.5      2.552      4.536
REMARK  7 active torsions:
REMARK  status: ('A' for Active; 'I' for Inactive)
REMARK    1  A    between atoms: C2_2  and  S1_3 
REMARK    2  A    between atoms: S1_3  and  N1_6 
REMARK    3  A    between atoms: N1_6  and  C3_7 
REMARK    4  A    between atoms: C3_7  and  C5_9 
REMARK    5  A    between atoms: C5_9  and  C6_10 
REMARK    6  A    between atoms: C7_11  and  N2_12 
REMARK    7  A    between atoms: N2_12  and  C8_13 
ROOT
HETATM    1  C6  UNL     1      21.816   0.689  52.405  1.00  0.00     0.008 A 
HETATM    2  C7  UNL     1      20.993   0.597  51.208  1.00  0.00     0.135 A 
HETATM    3  N3  UNL     1      19.783   0.203  51.199  1.00  0.00    -0.243 NA
HETATM    4  C14 UNL     1      19.152  -0.192  52.407  1.00  0.00     0.116 A 
HETATM    5  C15 UNL     1      19.868  -0.141  53.520  1.00  0.00     0.013 A 
HETATM    6  C16 UNL     1      21.266   0.266  53.743  1.00  0.00     0.118 A 
HETATM    7 BR1  UNL     1      22.316  -1.211  54.420  1.00  0.00    -0.082 Br
ENDROOT
BRANCH   1   8
HETATM    8  C5  UNL     1      23.011   1.091  52.590  1.00  0.00     0.041 C 
BRANCH   8   9
HETATM    9  C3  UNL     1      24.288   1.727  52.871  1.00  0.00     0.034 C 
HETATM   10  C4  UNL     1      24.787   2.939  52.691  1.00  0.00     0.043 C 
BRANCH   9  11
HETATM   11  N1  UNL     1      25.369   1.027  53.500  1.00  0.00    -0.282 N 
HETATM   12  H4  UNL     1      24.843   1.128  54.430  1.00  0.00     0.179 HD
BRANCH  11  13
HETATM   13  S1  UNL     1      26.661   0.190  54.254  1.00  0.00     0.252 S 
HETATM   14  O1  UNL     1      26.001  -0.722  55.292  1.00  0.00    -0.201 OA
HETATM   15  O2  UNL     1      27.581   1.081  55.033  1.00  0.00    -0.201 OA
BRANCH  13  16
HETATM   16  C2  UNL     1      27.514  -0.855  53.172  1.00  0.00     0.121 C 
HETATM   17  C1  UNL     1      26.771  -1.732  52.480  1.00  0.00     0.025 C 
ENDBRANCH  13  16
ENDBRANCH  11  13
ENDBRANCH   9  11
ENDBRANCH   8   9
ENDBRANCH   1   8
BRANCH   2  18
HETATM   18  N2  UNL     1      21.646   0.983  50.015  1.00  0.00    -0.341 N 
HETATM   19  H8  UNL     1      21.909   0.252  49.320  1.00  0.00     0.167 HD
BRANCH  18  20
HETATM   20  C8  UNL     1      21.945   2.344  49.728  1.00  0.00     0.033 A 
HETATM   21  C9  UNL     1      23.225   2.692  49.273  1.00  0.00     0.029 A 
HETATM   22  C10 UNL     1      23.536   3.999  48.970  1.00  0.00     0.002 A 
HETATM   23  C11 UNL     1      22.553   4.961  49.126  1.00  0.00     0.000 A 
HETATM   24  C12 UNL     1      21.289   4.609  49.578  1.00  0.00     0.002 A 
HETATM   25  C13 UNL     1      20.959   3.300  49.886  1.00  0.00     0.029 A 
ENDBRANCH  18  20
ENDBRANCH   2  18
TORSDOF 7
ENDMDL
MODEL 8
REMARK VINA RESULT:      -6.3      2.257      3.352
REMARK  7 active torsions:
REMARK  status: ('A' for Active; 'I' for Inactive)
REMARK    1  A    between atoms: C2_2  and  S1_3 
REMARK    2  A    between atoms: S1_3  and  N1_6 
REMARK    3  A    between atoms: N1_6  and  C3_7 
REMARK    4  A    between atoms: C3_7  and  C5_9 
REMARK    5  A    between atoms: C5_9  and  C6_10 
REMARK    6  A    between atoms: C7_11  and  N2_12 
REMARK    7  A    between atoms: N2_12  and  C8_13 
ROOT
HETATM    1  C6  UNL     1      23.426   2.258  51.247  1.00  0.00     0.008 A 
HETATM    2  C7  UNL     1      22.150   2.959  51.249  1.00  0.00     0.135 A 
HETATM    3  N3  UNL     1      21.765   3.749  50.327  1.00  0.00    -0.243 NA
HETATM    4  C14 UNL     1      22.601   4.002  49.209  1.00  0.00     0.116 A 
HETATM    5  C15 UNL     1      23.779   3.398  49.173  1.00  0.00     0.013 A 
HETATM    6  C16 UNL     1      24.412   2.473  50.128  1.00  0.00     0.118 A 
HETATM    7 BR1  UNL     1      26.036   3.232  50.853  1.00  0.00    -0.082 Br
ENDROOT
BRANCH   1   8
HETATM    8  C5  UNL     1      23.940   1.420  52.058  1.00  0.00     0.041 C 
BRANCH   8   9
HETATM    9  C3  UNL     1      24.372   0.335  52.923  1.00  0.00     0.034 C 
HETATM   10  C4  UNL     1      23.771  -0.685  53.512  1.00  0.00     0.043 C 
BRANCH   9  11
HETATM   11  N1  UNL     1      25.740   0.173  53.321  1.00  0.00    -0.282 N 
HETATM   12  H4  UNL     1      25.381  -0.247  54.242  1.00  0.00     0.179 HD
BRANCH  11  13
HETATM   13  S1  UNL     1      27.375  -0.022  53.799  1.00  0.00     0.252 S 
HETATM   14  O1  UNL     1      27.802  -1.379  53.233  1.00  0.00    -0.201 OA
HETATM   15  O2  UNL     1      27.557  -0.132  55.282  1.00  0.00    -0.201 OA
BRANCH  13  16
HETATM   16  C2  UNL     1      28.432   1.147  53.088  1.00  0.00     0.121 C 
HETATM   17  C1  UNL     1      28.510   2.335  53.708  1.00  0.00     0.025 C 
ENDBRANCH  13  16
ENDBRANCH  11  13
ENDBRANCH   9  11
ENDBRANCH   8   9
ENDBRANCH   1   8
BRANCH   2  18
HETATM   18  N2  UNL     1      21.339   2.702  52.378  1.00  0.00    -0.341 N 
HETATM   19  H8  UNL     1      21.390   3.346  53.197  1.00  0.00     0.167 HD
BRANCH  18  20
HETATM   20  C8  UNL     1      20.446   1.597  52.426  1.00  0.00     0.033 A 
HETATM   21  C9  UNL     1      20.553   0.664  53.467  1.00  0.00     0.029 A 
HETATM   22  C10 UNL     1      19.688  -0.406  53.549  1.00  0.00     0.002 A 
HETATM   23  C11 UNL     1      18.712  -0.537  52.576  1.00  0.00     0.000 A 
HETATM   24  C12 UNL     1      18.613   0.390  51.549  1.00  0.00     0.002 A 
HETATM   25  C13 UNL     1      19.473   1.472  51.452  1.00  0.00     0.029 A 
ENDBRANCH  18  20
ENDBRANCH   2  18
TORSDOF 7
ENDMDL
MODEL 9
REMARK VINA RESULT:      -6.3      2.172      3.826
REMARK  7 active torsions:
REMARK  status: ('A' for Active; 'I' for Inactive)
REMARK    1  A    between atoms: C2_2  and  S1_3 
REMARK    2  A    between atoms: S1_3  and  N1_6 
REMARK    3  A    between atoms: N1_6  and  C3_7 
REMARK    4  A    between atoms: C3_7  and  C5_9 
REMARK    5  A    between atoms: C5_9  and  C6_10 
REMARK    6  A    between atoms: C7_11  and  N2_12 
REMARK    7  A    between atoms: N2_12  and  C8_13 
ROOT
HETATM    1  C6  UNL     1      23.394   2.294  50.853  1.00  0.00     0.008 A 
HETATM    2  C7  UNL     1      22.528   2.111  49.697  1.00  0.00     0.135 A 
HETATM    3  N3  UNL     1      22.420   2.948  48.743  1.00  0.00    -0.243 NA
HETATM    4  C14 UNL     1      23.163   4.155  48.766  1.00  0.00     0.116 A 
HETATM    5  C15 UNL     1      23.952   4.372  49.807  1.00  0.00     0.013 A 
HETATM    6  C16 UNL     1      24.208   3.553  51.004  1.00  0.00     0.118 A 
HETATM    7 BR1  UNL     1      23.649   4.479  52.608  1.00  0.00    -0.082 Br
ENDROOT
BRANCH   1   8
HETATM    8  C5  UNL     1      23.642   1.552  51.858  1.00  0.00     0.041 C 
BRANCH   8   9
HETATM    9  C3  UNL     1      23.989   0.563  52.865  1.00  0.00     0.034 C 
HETATM   10  C4  UNL     1      23.335  -0.401  53.492  1.00  0.00     0.043 C 
BRANCH   9  11
HETATM   11  N1  UNL     1      25.311   0.457  53.410  1.00  0.00    -0.282 N 
HETATM   12  H4  UNL     1      25.680   0.878  52.494  1.00  0.00     0.179 HD
BRANCH  11  13
HETATM   13  S1  UNL     1      26.893   0.330  54.059  1.00  0.00     0.252 S 
HETATM   14  O1  UNL     1      26.724  -0.403  55.393  1.00  0.00    -0.201 OA
HETATM   15  O2  UNL     1      27.507   1.653  54.406  1.00  0.00    -0.201 OA
BRANCH  13  16
HETATM   16  C2  UNL     1      27.942  -0.654  53.101  1.00  0.00     0.121 C 
HETATM   17  C1  UNL     1      29.209  -0.766  53.526  1.00  0.00     0.025 C 
ENDBRANCH  13  16
ENDBRANCH  11  13
ENDBRANCH   9  11
ENDBRANCH   8   9
ENDBRANCH   1   8
BRANCH   2  18
HETATM   18  N2  UNL     1      21.787   0.907  49.702  1.00  0.00    -0.341 N 
HETATM   19  H8  UNL     1      22.202   0.054  49.270  1.00  0.00     0.167 HD
BRANCH  18  20
HETATM   20  C8  UNL     1      20.495   0.822  50.289  1.00  0.00     0.033 A 
HETATM   21  C9  UNL     1      19.396   1.397  49.634  1.00  0.00     0.029 A 
HETATM   22  C10 UNL     1      18.130   1.313  50.171  1.00  0.00     0.002 A 
HETATM   23  C11 UNL     1      17.970   0.647  51.374  1.00  0.00     0.000 A 
HETATM   24  C12 UNL     1      19.062   0.081  52.017  1.00  0.00     0.002 A 
HETATM   25  C13 UNL     1      20.341   0.155  51.491  1.00  0.00     0.029 A 
ENDBRANCH  18  20
ENDBRANCH   2  18
TORSDOF 7
ENDMDL
