MODEL 1
REMARK VINA RESULT:      -7.9      0.000      0.000
REMARK  5 active torsions:
REMARK  status: ('A' for Active; 'I' for Inactive)
REMARK    1  A    between atoms: N1_2  and  C3_4 
REMARK    2  A    between atoms: C3_4  and  C4_5 
REMARK    3  A    between atoms: C5_6  and  C6_7 
REMARK       I    between atoms: C6_7  and  N2_9 
REMARK    4  A    between atoms: N2_9  and  C7_10 
REMARK    5  A    between atoms: C8_11  and  C9_12 
ROOT
HETATM    1  C9  UNL     1      23.310   1.700  51.041  1.00  0.00     0.005 C 
HETATM    2  C10 UNL     1      22.592   1.985  50.020  1.00  0.00    -0.064 C 
HETATM    3  C11 UNL     1      21.092   2.010  49.571  1.00  0.00     0.052 C 
HETATM    4  C12 UNL     1      21.416   2.886  48.338  1.00  0.00     0.017 A 
HETATM    5  C13 UNL     1      20.986   4.157  48.043  1.00  0.00     0.073 C 
HETATM    6  N3  UNL     1      22.017   5.200  47.797  1.00  0.00    -0.368 N 
HETATM    7  C14 UNL     1      23.387   5.111  48.370  1.00  0.00     0.040 A 
HETATM    8  C15 UNL     1      24.162   6.212  48.510  1.00  0.00     0.049 A 
HETATM    9  C16 UNL     1      25.332   5.950  49.182  1.00  0.00     0.013 A 
HETATM   10 BR1  UNL     1      26.435   7.490  49.387  1.00  0.00    -0.051 Br
HETATM   11  C17 UNL     1      25.694   4.711  49.667  1.00  0.00     0.020 A 
HETATM   12  C18 UNL     1      24.990   3.552  49.576  1.00  0.00     0.012 A 
HETATM   13  C19 UNL     1      23.824   3.825  48.901  1.00  0.00    -0.017 A 
HETATM   14  C20 UNL     1      22.920   2.571  48.710  1.00  0.00     0.031 A 
HETATM   15  C21 UNL     1      22.384   2.031  47.565  1.00  0.00     0.026 A 
HETATM   16  H18 UNL     1      21.906   6.064  47.255  1.00  0.00     0.165 HD
ENDROOT
BRANCH   1  17
HETATM   17  C8  UNL     1      22.109   1.366  51.742  1.00  0.00     0.017 C 
HETATM   18  C7  UNL     1      22.197   0.697  52.905  1.00  0.00     0.091 C 
BRANCH  18  19
HETATM   19  N2  UNL     1      23.519   0.369  53.352  1.00  0.00    -0.334 N 
HETATM   20  C6  UNL     1      24.103  -0.532  54.288  1.00  0.00     0.244 C 
HETATM   21  O1  UNL     1      23.231  -1.240  54.897  1.00  0.00    -0.268 OA
HETATM   22  H11 UNL     1      24.216   0.983  52.833  1.00  0.00     0.168 HD
BRANCH  20  23
HETATM   23  C5  UNL     1      25.557  -0.577  54.469  1.00  0.00     0.072 C 
HETATM   24  C4  UNL     1      26.397   0.422  54.627  1.00  0.00     0.008 C 
BRANCH  24  25
HETATM   25  C3  UNL     1      27.846   0.157  54.796  1.00  0.00     0.299 C 
BRANCH  25  26
HETATM   26  N1  UNL     1      28.616   0.577  53.660  1.00  0.00     0.083 N 
HETATM   27  C1  UNL     1      29.904  -0.073  53.576  1.00  0.00     0.309 C 
HETATM   28  C2  UNL     1      28.790   1.998  53.694  1.00  0.00     0.309 C 
ENDBRANCH  25  26
ENDBRANCH  24  25
ENDBRANCH  20  23
ENDBRANCH  18  19
ENDBRANCH   1  17
TORSDOF 5
ENDMDL
MODEL 2
REMARK VINA RESULT:      -7.8      2.857      3.706
REMARK  5 active torsions:
REMARK  status: ('A' for Active; 'I' for Inactive)
REMARK    1  A    between atoms: N1_2  and  C3_4 
REMARK    2  A    between atoms: C3_4  and  C4_5 
REMARK    3  A    between atoms: C5_6  and  C6_7 
REMARK       I    between atoms: C6_7  and  N2_9 
REMARK    4  A    between atoms: N2_9  and  C7_10 
REMARK    5  A    between atoms: C8_11  and  C9_12 
ROOT
HETATM    1  C9  UNL     1      24.499   4.608  50.811  1.00  0.00     0.005 C 
HETATM    2  C10 UNL     1      24.172   5.640  50.128  1.00  0.00    -0.064 C 
HETATM    3  C11 UNL     1      23.351   6.965  50.267  1.00  0.00     0.052 C 
HETATM    4  C12 UNL     1      23.998   7.568  48.997  1.00  0.00     0.017 A 
HETATM    5  C13 UNL     1      24.792   8.682  48.877  1.00  0.00     0.073 C 
HETATM    6  N3  UNL     1      26.136   8.516  48.261  1.00  0.00    -0.368 N 
HETATM    7  C14 UNL     1      26.863   7.218  48.286  1.00  0.00     0.040 A 
HETATM    8  C15 UNL     1      28.206   7.163  48.123  1.00  0.00     0.049 A 
HETATM    9  C16 UNL     1      28.708   5.898  48.315  1.00  0.00     0.013 A 
HETATM   10 BR1  UNL     1      30.597   5.804  48.089  1.00  0.00    -0.051 Br
HETATM   11  C17 UNL     1      27.945   4.795  48.636  1.00  0.00     0.020 A 
HETATM   12  C18 UNL     1      26.600   4.747  48.819  1.00  0.00     0.012 A 
HETATM   13  C19 UNL     1      26.108   6.017  48.623  1.00  0.00    -0.017 A 
HETATM   14  C20 UNL     1      24.562   6.105  48.786  1.00  0.00     0.031 A 
HETATM   15  C21 UNL     1      23.606   6.588  47.925  1.00  0.00     0.026 A 
HETATM   16  H18 UNL     1      26.696   9.237  47.795  1.00  0.00     0.165 HD
ENDROOT
BRANCH   1  17
HETATM   17  C8  UNL     1      23.761   5.150  51.909  1.00  0.00     0.017 C 
HETATM   18  C7  UNL     1      23.711   4.463  53.064  1.00  0.00     0.091 C 
BRANCH  18  19
HETATM   19  N2  UNL     1      24.421   3.218  53.095  1.00  0.00    -0.334 N 
HETATM   20  C6  UNL     1      24.096   1.836  52.981  1.00  0.00     0.244 C 
HETATM   21  O1  UNL     1      22.845   1.640  52.805  1.00  0.00    -0.268 OA
HETATM   22  H11 UNL     1      25.454   3.419  53.252  1.00  0.00     0.168 HD
BRANCH  20  23
HETATM   23  C5  UNL     1      25.144   0.815  53.066  1.00  0.00     0.072 C 
HETATM   24  C4  UNL     1      26.361   0.843  52.568  1.00  0.00     0.008 C 
BRANCH  24  25
HETATM   25  C3  UNL     1      27.274  -0.307  52.770  1.00  0.00     0.299 C 
BRANCH  25  26
HETATM   26  N1  UNL     1      28.467   0.059  53.480  1.00  0.00     0.083 N 
HETATM   27  C1  UNL     1      29.539  -0.897  53.318  1.00  0.00     0.309 C 
HETATM   28  C2  UNL     1      28.170   0.225  54.870  1.00  0.00     0.309 C 
ENDBRANCH  25  26
ENDBRANCH  24  25
ENDBRANCH  20  23
ENDBRANCH  18  19
ENDBRANCH   1  17
TORSDOF 5
ENDMDL
MODEL 3
REMARK VINA RESULT:      -7.6      1.926      2.889
REMARK  5 active torsions:
REMARK  status: ('A' for Active; 'I' for Inactive)
REMARK    1  A    between atoms: N1_2  and  C3_4 
REMARK    2  A    between atoms: C3_4  and  C4_5 
REMARK    3  A    between atoms: C5_6  and  C6_7 
REMARK       I    between atoms: C6_7  and  N2_9 
REMARK    4  A    between atoms: N2_9  and  C7_10 
REMARK    5  A    between atoms: C8_11  and  C9_12 
ROOT
HETATM    1  C9  UNL     1      21.841  -0.219  52.028  1.00  0.00     0.005 C 
HETATM    2  C10 UNL     1      20.720   0.341  51.764  1.00  0.00    -0.064 C 
HETATM    3  C11 UNL     1      19.315   0.584  52.409  1.00  0.00     0.052 C 
HETATM    4  C12 UNL     1      18.966   1.681  51.375  1.00  0.00     0.017 A 
HETATM    5  C13 UNL     1      18.716   3.016  51.580  1.00  0.00     0.073 C 
HETATM    6  N3  UNL     1      19.552   4.001  50.843  1.00  0.00    -0.368 N 
HETATM    7  C14 UNL     1      20.924   3.678  50.369  1.00  0.00     0.040 A 
HETATM    8  C15 UNL     1      21.820   4.656  50.094  1.00  0.00     0.049 A 
HETATM    9  C16 UNL     1      23.068   4.159  49.804  1.00  0.00     0.013 A 
HETATM   10 BR1  UNL     1      24.341   5.522  49.416  1.00  0.00    -0.051 Br
HETATM   11  C17 UNL     1      23.392   2.818  49.789  1.00  0.00     0.020 A 
HETATM   12  C18 UNL     1      22.569   1.768  50.047  1.00  0.00     0.012 A 
HETATM   13  C19 UNL     1      21.324   2.276  50.334  1.00  0.00    -0.017 A 
HETATM   14  C20 UNL     1      20.268   1.171  50.635  1.00  0.00     0.031 A 
HETATM   15  C21 UNL     1      19.039   0.941  50.066  1.00  0.00     0.026 A 
HETATM   16  H18 UNL     1      19.305   4.968  50.609  1.00  0.00     0.165 HD
ENDROOT
BRANCH   1  17
HETATM   17  C8  UNL     1      21.306  -0.600  53.298  1.00  0.00     0.017 C 
HETATM   18  C7  UNL     1      22.147  -0.775  54.333  1.00  0.00     0.091 C 
BRANCH  18  19
HETATM   19  N2  UNL     1      23.539  -0.557  54.067  1.00  0.00    -0.334 N 
HETATM   20  C6  UNL     1      24.775  -0.850  54.711  1.00  0.00     0.244 C 
HETATM   21  O1  UNL     1      24.617  -1.468  55.819  1.00  0.00    -0.268 OA
HETATM   22  H11 UNL     1      23.632  -0.033  53.146  1.00  0.00     0.168 HD
BRANCH  20  23
HETATM   23  C5  UNL     1      26.046  -0.450  54.100  1.00  0.00     0.072 C 
HETATM   24  C4  UNL     1      26.250   0.367  53.090  1.00  0.00     0.008 C 
BRANCH  24  25
HETATM   25  C3  UNL     1      27.630   0.640  52.621  1.00  0.00     0.299 C 
BRANCH  25  26
HETATM   26  N1  UNL     1      28.500   1.051  53.685  1.00  0.00     0.083 N 
HETATM   27  C1  UNL     1      28.804   2.464  53.655  1.00  0.00     0.309 C 
HETATM   28  C2  UNL     1      29.712   0.291  53.639  1.00  0.00     0.309 C 
ENDBRANCH  25  26
ENDBRANCH  24  25
ENDBRANCH  20  23
ENDBRANCH  18  19
ENDBRANCH   1  17
TORSDOF 5
ENDMDL
MODEL 4
REMARK VINA RESULT:      -7.5      3.206      6.918
REMARK  5 active torsions:
REMARK  status: ('A' for Active; 'I' for Inactive)
REMARK    1  A    between atoms: N1_2  and  C3_4 
REMARK    2  A    between atoms: C3_4  and  C4_5 
REMARK    3  A    between atoms: C5_6  and  C6_7 
REMARK       I    between atoms: C6_7  and  N2_9 
REMARK    4  A    between atoms: N2_9  and  C7_10 
REMARK    5  A    between atoms: C8_11  and  C9_12 
ROOT
HETATM    1  C9  UNL     1      22.979   2.267  50.492  1.00  0.00     0.005 C 
HETATM    2  C10 UNL     1      22.292   1.506  51.258  1.00  0.00    -0.064 C 
HETATM    3  C11 UNL     1      21.185   0.402  51.180  1.00  0.00     0.052 C 
HETATM    4  C12 UNL     1      21.448  -0.047  52.637  1.00  0.00     0.017 A 
HETATM    5  C13 UNL     1      21.895  -1.261  53.101  1.00  0.00     0.073 C 
HETATM    6  N3  UNL     1      23.124  -1.276  53.938  1.00  0.00    -0.368 N 
HETATM    7  C14 UNL     1      24.160  -0.212  53.843  1.00  0.00     0.040 A 
HETATM    8  C15 UNL     1      25.429  -0.430  54.263  1.00  0.00     0.049 A 
HETATM    9  C16 UNL     1      26.268   0.618  53.967  1.00  0.00     0.013 A 
HETATM   10 BR1  UNL     1      28.058   0.328  54.550  1.00  0.00    -0.051 Br
HETATM   11  C17 UNL     1      25.879   1.771  53.318  1.00  0.00     0.020 A 
HETATM   12  C18 UNL     1      24.638   2.082  52.862  1.00  0.00     0.012 A 
HETATM   13  C19 UNL     1      23.807   1.029  53.164  1.00  0.00    -0.017 A 
HETATM   14  C20 UNL     1      22.336   1.260  52.709  1.00  0.00     0.031 A 
HETATM   15  C21 UNL     1      21.166   1.201  53.429  1.00  0.00     0.026 A 
HETATM   16  H18 UNL     1      23.398  -1.989  54.622  1.00  0.00     0.165 HD
ENDROOT
BRANCH   1  17
HETATM   17  C8  UNL     1      22.303   1.685  49.374  1.00  0.00     0.017 C 
HETATM   18  C7  UNL     1      22.278   2.354  48.208  1.00  0.00     0.091 C 
BRANCH  18  19
HETATM   19  N2  UNL     1      22.949   3.620  48.185  1.00  0.00    -0.334 N 
HETATM   20  C6  UNL     1      22.586   4.982  47.981  1.00  0.00     0.244 C 
HETATM   21  O1  UNL     1      21.335   5.128  47.759  1.00  0.00    -0.268 OA
HETATM   22  H11 UNL     1      23.986   3.460  48.364  1.00  0.00     0.168 HD
BRANCH  20  23
HETATM   23  C5  UNL     1      23.599   6.040  48.040  1.00  0.00     0.072 C 
HETATM   24  C4  UNL     1      24.786   6.010  48.605  1.00  0.00     0.008 C 
BRANCH  24  25
HETATM   25  C3  UNL     1      25.667   7.201  48.550  1.00  0.00     0.299 C 
BRANCH  25  26
HETATM   26  N1  UNL     1      27.006   6.913  48.978  1.00  0.00     0.083 N 
HETATM   27  C1  UNL     1      27.976   7.862  48.482  1.00  0.00     0.309 C 
HETATM   28  C2  UNL     1      27.368   5.589  48.570  1.00  0.00     0.309 C 
ENDBRANCH  25  26
ENDBRANCH  24  25
ENDBRANCH  20  23
ENDBRANCH  18  19
ENDBRANCH   1  17
TORSDOF 5
ENDMDL
MODEL 5
REMARK VINA RESULT:      -7.4      3.022      4.602
REMARK  5 active torsions:
REMARK  status: ('A' for Active; 'I' for Inactive)
REMARK    1  A    between atoms: N1_2  and  C3_4 
REMARK    2  A    between atoms: C3_4  and  C4_5 
REMARK    3  A    between atoms: C5_6  and  C6_7 
REMARK       I    between atoms: C6_7  and  N2_9 
REMARK    4  A    between atoms: N2_9  and  C7_10 
REMARK    5  A    between atoms: C8_11  and  C9_12 
ROOT
HETATM    1  C9  UNL     1      24.742   5.353  50.248  1.00  0.00     0.005 C 
HETATM    2  C10 UNL     1      24.672   6.488  49.659  1.00  0.00    -0.064 C 
HETATM    3  C11 UNL     1      24.067   7.916  49.866  1.00  0.00     0.052 C 
HETATM    4  C12 UNL     1      24.952   8.517  48.748  1.00  0.00     0.017 A 
HETATM    5  C13 UNL     1      25.926   9.481  48.839  1.00  0.00     0.073 C 
HETATM    6  N3  UNL     1      27.288   9.142  48.348  1.00  0.00    -0.368 N 
HETATM    7  C14 UNL     1      27.786   7.741  48.298  1.00  0.00     0.040 A 
HETATM    8  C15 UNL     1      29.112   7.468  48.267  1.00  0.00     0.049 A 
HETATM    9  C16 UNL     1      29.374   6.122  48.362  1.00  0.00     0.013 A 
HETATM   10 BR1  UNL     1      31.236   5.721  48.321  1.00  0.00    -0.051 Br
HETATM   11  C17 UNL     1      28.409   5.144  48.474  1.00  0.00     0.020 A 
HETATM   12  C18 UNL     1      27.061   5.315  48.511  1.00  0.00     0.012 A 
HETATM   13  C19 UNL     1      26.810   6.663  48.414  1.00  0.00    -0.017 A 
HETATM   14  C20 UNL     1      25.291   7.005  48.427  1.00  0.00     0.031 A 
HETATM   15  C21 UNL     1      24.537   7.728  47.534  1.00  0.00     0.026 A 
HETATM   16  H18 UNL     1      28.010   9.796  48.029  1.00  0.00     0.165 HD
ENDROOT
BRANCH   1  17
HETATM   17  C8  UNL     1      23.974   5.908  51.320  1.00  0.00     0.017 C 
HETATM   18  C7  UNL     1      23.704   5.142  52.392  1.00  0.00     0.091 C 
BRANCH  18  19
HETATM   19  N2  UNL     1      24.222   3.806  52.367  1.00  0.00    -0.334 N 
HETATM   20  C6  UNL     1      23.686   2.487  52.336  1.00  0.00     0.244 C 
HETATM   21  O1  UNL     1      22.407   2.477  52.330  1.00  0.00    -0.268 OA
HETATM   22  H11 UNL     1      25.285   3.852  52.383  1.00  0.00     0.168 HD
BRANCH  20  23
HETATM   23  C5  UNL     1      24.576   1.322  52.315  1.00  0.00     0.072 C 
HETATM   24  C4  UNL     1      25.848   1.254  52.639  1.00  0.00     0.008 C 
BRANCH  24  25
HETATM   25  C3  UNL     1      26.572  -0.036  52.545  1.00  0.00     0.299 C 
BRANCH  25  26
HETATM   26  N1  UNL     1      27.437  -0.263  53.667  1.00  0.00     0.083 N 
HETATM   27  C1  UNL     1      26.853   0.145  54.925  1.00  0.00     0.309 C 
HETATM   28  C2  UNL     1      28.679   0.420  53.465  1.00  0.00     0.309 C 
ENDBRANCH  25  26
ENDBRANCH  24  25
ENDBRANCH  20  23
ENDBRANCH  18  19
ENDBRANCH   1  17
TORSDOF 5
ENDMDL
MODEL 6
REMARK VINA RESULT:      -7.4      3.363      7.172
REMARK  5 active torsions:
REMARK  status: ('A' for Active; 'I' for Inactive)
REMARK    1  A    between atoms: N1_2  and  C3_4 
REMARK    2  A    between atoms: C3_4  and  C4_5 
REMARK    3  A    between atoms: C5_6  and  C6_7 
REMARK       I    between atoms: C6_7  and  N2_9 
REMARK    4  A    between atoms: N2_9  and  C7_10 
REMARK    5  A    between atoms: C8_11  and  C9_12 
ROOT
HETATM    1  C9  UNL     1      22.673   1.878  50.316  1.00  0.00     0.005 C 
HETATM    2  C10 UNL     1      21.997   1.261  51.211  1.00  0.00    -0.064 C 
HETATM    3  C11 UNL     1      20.829   0.227  51.337  1.00  0.00     0.052 C 
HETATM    4  C12 UNL     1      21.162  -0.056  52.822  1.00  0.00     0.017 A 
HETATM    5  C13 UNL     1      21.571  -1.229  53.408  1.00  0.00     0.073 C 
HETATM    6  N3  UNL     1      22.849  -1.217  54.168  1.00  0.00    -0.368 N 
HETATM    7  C14 UNL     1      23.933  -0.240  53.880  1.00  0.00     0.040 A 
HETATM    8  C15 UNL     1      25.213  -0.483  54.250  1.00  0.00     0.049 A 
HETATM    9  C16 UNL     1      26.087   0.467  53.776  1.00  0.00     0.013 A 
HETATM   10 BR1  UNL     1      27.892   0.140  54.287  1.00  0.00    -0.051 Br
HETATM   11  C17 UNL     1      25.719   1.554  53.010  1.00  0.00     0.020 A 
HETATM   12  C18 UNL     1      24.470   1.883  52.591  1.00  0.00     0.012 A 
HETATM   13  C19 UNL     1      23.605   0.928  53.071  1.00  0.00    -0.017 A 
HETATM   14  C20 UNL     1      22.121   1.193  52.677  1.00  0.00     0.031 A 
HETATM   15  C21 UNL     1      20.999   1.295  53.464  1.00  0.00     0.026 A 
HETATM   16  H18 UNL     1      23.128  -1.857  54.919  1.00  0.00     0.165 HD
ENDROOT
BRANCH   1  17
HETATM   17  C8  UNL     1      21.895   1.207  49.322  1.00  0.00     0.017 C 
HETATM   18  C7  UNL     1      21.540   1.876  48.211  1.00  0.00     0.091 C 
BRANCH  18  19
HETATM   19  N2  UNL     1      21.985   3.236  48.117  1.00  0.00    -0.334 N 
HETATM   20  C6  UNL     1      22.199   4.187  47.078  1.00  0.00     0.244 C 
HETATM   21  O1  UNL     1      21.929   3.717  45.920  1.00  0.00    -0.268 OA
HETATM   22  H11 UNL     1      22.210   3.589  49.095  1.00  0.00     0.168 HD
BRANCH  20  23
HETATM   23  C5  UNL     1      22.679   5.536  47.391  1.00  0.00     0.072 C 
HETATM   24  C4  UNL     1      23.598   5.900  48.258  1.00  0.00     0.008 C 
BRANCH  24  25
HETATM   25  C3  UNL     1      23.938   7.333  48.424  1.00  0.00     0.299 C 
BRANCH  25  26
HETATM   26  N1  UNL     1      24.203   7.679  49.791  1.00  0.00     0.083 N 
HETATM   27  C1  UNL     1      25.220   6.852  50.399  1.00  0.00     0.309 C 
HETATM   28  C2  UNL     1      22.993   7.600  50.552  1.00  0.00     0.309 C 
ENDBRANCH  25  26
ENDBRANCH  24  25
ENDBRANCH  20  23
ENDBRANCH  18  19
ENDBRANCH   1  17
TORSDOF 5
ENDMDL
MODEL 7
REMARK VINA RESULT:      -7.2      3.540      5.692
REMARK  5 active torsions:
REMARK  status: ('A' for Active; 'I' for Inactive)
REMARK    1  A    between atoms: N1_2  and  C3_4 
REMARK    2  A    between atoms: C3_4  and  C4_5 
REMARK    3  A    between atoms: C5_6  and  C6_7 
REMARK       I    between atoms: C6_7  and  N2_9 
REMARK    4  A    between atoms: N2_9  and  C7_10 
REMARK    5  A    between atoms: C8_11  and  C9_12 
ROOT
HETATM    1  C9  UNL     1      25.506   5.293  50.132  1.00  0.00     0.005 C 
HETATM    2  C10 UNL     1      25.991   6.398  49.705  1.00  0.00    -0.064 C 
HETATM    3  C11 UNL     1      27.041   6.933  48.675  1.00  0.00     0.052 C 
HETATM    4  C12 UNL     1      26.471   8.370  48.753  1.00  0.00     0.017 A 
HETATM    5  C13 UNL     1      25.887   9.123  47.763  1.00  0.00     0.073 C 
HETATM    6  N3  UNL     1      24.516   9.646  48.005  1.00  0.00    -0.368 N 
HETATM    7  C14 UNL     1      23.568   8.980  48.939  1.00  0.00     0.040 A 
HETATM    8  C15 UNL     1      22.232   9.182  48.844  1.00  0.00     0.049 A 
HETATM    9  C16 UNL     1      21.517   8.378  49.700  1.00  0.00     0.013 A 
HETATM   10 BR1  UNL     1      19.636   8.649  49.579  1.00  0.00    -0.051 Br
HETATM   11  C17 UNL     1      22.079   7.463  50.566  1.00  0.00     0.020 A 
HETATM   12  C18 UNL     1      23.399   7.191  50.735  1.00  0.00     0.012 A 
HETATM   13  C19 UNL     1      24.105   8.000  49.876  1.00  0.00    -0.017 A 
HETATM   14  C20 UNL     1      25.646   7.803  49.978  1.00  0.00     0.031 A 
HETATM   15  C21 UNL     1      26.645   8.720  50.206  1.00  0.00     0.026 A 
HETATM   16  H18 UNL     1      24.080  10.463  47.566  1.00  0.00     0.165 HD
ENDROOT
BRANCH   1  17
HETATM   17  C8  UNL     1      26.366   4.608  49.218  1.00  0.00     0.017 C 
HETATM   18  C7  UNL     1      26.605   3.298  49.406  1.00  0.00     0.091 C 
BRANCH  18  19
HETATM   19  N2  UNL     1      25.961   2.687  50.531  1.00  0.00    -0.334 N 
HETATM   20  C6  UNL     1      26.348   2.220  51.820  1.00  0.00     0.244 C 
HETATM   21  O1  UNL     1      27.597   2.379  52.045  1.00  0.00    -0.268 OA
HETATM   22  H11 UNL     1      24.929   2.562  50.306  1.00  0.00     0.168 HD
BRANCH  20  23
HETATM   23  C5  UNL     1      25.358   1.633  52.728  1.00  0.00     0.072 C 
HETATM   24  C4  UNL     1      24.848   0.421  52.715  1.00  0.00     0.008 C 
BRANCH  24  25
HETATM   25  C3  UNL     1      23.847   0.025  53.734  1.00  0.00     0.299 C 
BRANCH  25  26
HETATM   26  N1  UNL     1      22.778  -0.755  53.179  1.00  0.00     0.083 N 
HETATM   27  C1  UNL     1      21.892   0.016  52.337  1.00  0.00     0.309 C 
HETATM   28  C2  UNL     1      22.032  -1.371  54.233  1.00  0.00     0.309 C 
ENDBRANCH  25  26
ENDBRANCH  24  25
ENDBRANCH  20  23
ENDBRANCH  18  19
ENDBRANCH   1  17
TORSDOF 5
ENDMDL
MODEL 8
REMARK VINA RESULT:      -7.1      3.205      6.959
REMARK  5 active torsions:
REMARK  status: ('A' for Active; 'I' for Inactive)
REMARK    1  A    between atoms: N1_2  and  C3_4 
REMARK    2  A    between atoms: C3_4  and  C4_5 
REMARK    3  A    between atoms: C5_6  and  C6_7 
REMARK       I    between atoms: C6_7  and  N2_9 
REMARK    4  A    between atoms: N2_9  and  C7_10 
REMARK    5  A    between atoms: C8_11  and  C9_12 
ROOT
HETATM    1  C9  UNL     1      24.410   0.656  52.107  1.00  0.00     0.005 C 
HETATM    2  C10 UNL     1      23.695   0.044  52.976  1.00  0.00    -0.064 C 
HETATM    3  C11 UNL     1      23.624  -0.199  54.520  1.00  0.00     0.052 C 
HETATM    4  C12 UNL     1      22.167  -0.713  54.431  1.00  0.00     0.017 A 
HETATM    5  C13 UNL     1      21.028  -0.182  54.985  1.00  0.00     0.073 C 
HETATM    6  N3  UNL     1      19.901   0.151  54.073  1.00  0.00    -0.368 N 
HETATM    7  C14 UNL     1      20.114   0.468  52.635  1.00  0.00     0.040 A 
HETATM    8  C15 UNL     1      19.195   1.167  51.927  1.00  0.00     0.049 A 
HETATM    9  C16 UNL     1      19.631   1.476  50.661  1.00  0.00     0.013 A 
HETATM   10 BR1  UNL     1      18.349   2.460  49.651  1.00  0.00    -0.051 Br
HETATM   11  C17 UNL     1      20.862   1.124  50.150  1.00  0.00     0.020 A 
HETATM   12  C18 UNL     1      21.846   0.426  50.776  1.00  0.00     0.012 A 
HETATM   13  C19 UNL     1      21.399   0.120  52.040  1.00  0.00    -0.017 A 
HETATM   14  C20 UNL     1      22.429  -0.700  52.871  1.00  0.00     0.031 A 
HETATM   15  C21 UNL     1      22.288  -1.904  53.519  1.00  0.00     0.026 A 
HETATM   16  H18 UNL     1      18.908   0.222  54.317  1.00  0.00     0.165 HD
ENDROOT
BRANCH   1  17
HETATM   17  C8  UNL     1      25.243   1.114  53.175  1.00  0.00     0.017 C 
HETATM   18  C7  UNL     1      25.717   2.373  53.138  1.00  0.00     0.091 C 
BRANCH  18  19
HETATM   19  N2  UNL     1      25.335   3.163  52.005  1.00  0.00    -0.334 N 
HETATM   20  C6  UNL     1      25.881   3.475  50.727  1.00  0.00     0.244 C 
HETATM   21  O1  UNL     1      27.009   2.908  50.524  1.00  0.00    -0.268 OA
HETATM   22  H11 UNL     1      24.399   3.626  52.212  1.00  0.00     0.168 HD
BRANCH  20  23
HETATM   23  C5  UNL     1      25.160   4.359  49.805  1.00  0.00     0.072 C 
HETATM   24  C4  UNL     1      23.973   4.191  49.266  1.00  0.00     0.008 C 
BRANCH  24  25
HETATM   25  C3  UNL     1      23.421   5.216  48.348  1.00  0.00     0.299 C 
BRANCH  25  26
HETATM   26  N1  UNL     1      22.200   5.789  48.838  1.00  0.00     0.083 N 
HETATM   27  C1  UNL     1      22.414   6.924  49.707  1.00  0.00     0.309 C 
HETATM   28  C2  UNL     1      21.438   4.789  49.522  1.00  0.00     0.309 C 
ENDBRANCH  25  26
ENDBRANCH  24  25
ENDBRANCH  20  23
ENDBRANCH  18  19
ENDBRANCH   1  17
TORSDOF 5
ENDMDL
MODEL 9
REMARK VINA RESULT:      -6.9      2.989      7.047
REMARK  5 active torsions:
REMARK  status: ('A' for Active; 'I' for Inactive)
REMARK    1  A    between atoms: N1_2  and  C3_4 
REMARK    2  A    between atoms: C3_4  and  C4_5 
REMARK    3  A    between atoms: C5_6  and  C6_7 
REMARK       I    between atoms: C6_7  and  N2_9 
REMARK    4  A    between atoms: N2_9  and  C7_10 
REMARK    5  A    between atoms: C8_11  and  C9_12 
ROOT
HETATM    1  C9  UNL     1      19.921   1.909  51.633  1.00  0.00     0.005 C 
HETATM    2  C10 UNL     1      20.142   1.002  52.508  1.00  0.00    -0.064 C 
HETATM    3  C11 UNL     1      19.654  -0.431  52.907  1.00  0.00     0.052 C 
HETATM    4  C12 UNL     1      20.881  -0.658  53.821  1.00  0.00     0.017 A 
HETATM    5  C13 UNL     1      21.882  -1.593  53.710  1.00  0.00     0.073 C 
HETATM    6  N3  UNL     1      23.285  -1.106  53.643  1.00  0.00    -0.368 N 
HETATM    7  C14 UNL     1      23.629   0.253  53.143  1.00  0.00     0.040 A 
HETATM    8  C15 UNL     1      24.871   0.540  52.688  1.00  0.00     0.049 A 
HETATM    9  C16 UNL     1      24.954   1.799  52.144  1.00  0.00     0.013 A 
HETATM   10 BR1  UNL     1      26.696   2.218  51.497  1.00  0.00    -0.051 Br
HETATM   11  C17 UNL     1      23.902   2.687  52.063  1.00  0.00     0.020 A 
HETATM   12  C18 UNL     1      22.627   2.495  52.491  1.00  0.00     0.012 A 
HETATM   13  C19 UNL     1      22.555   1.234  53.034  1.00  0.00    -0.017 A 
HETATM   14  C20 UNL     1      21.140   0.884  53.584  1.00  0.00     0.031 A 
HETATM   15  C21 UNL     1      20.756   0.451  54.831  1.00  0.00     0.026 A 
HETATM   16  H18 UNL     1      24.133  -1.624  53.896  1.00  0.00     0.165 HD
ENDROOT
BRANCH   1  17
HETATM   17  C8  UNL     1      18.938   1.050  51.049  1.00  0.00     0.017 C 
HETATM   18  C7  UNL     1      18.778   1.056  49.714  1.00  0.00     0.091 C 
BRANCH  18  19
HETATM   19  N2  UNL     1      19.627   1.943  48.974  1.00  0.00    -0.334 N 
HETATM   20  C6  UNL     1      20.906   1.874  48.350  1.00  0.00     0.244 C 
HETATM   21  O1  UNL     1      21.451   0.725  48.476  1.00  0.00    -0.268 OA
HETATM   22  H11 UNL     1      19.147   2.889  48.898  1.00  0.00     0.168 HD
BRANCH  20  23
HETATM   23  C5  UNL     1      21.461   3.042  47.659  1.00  0.00     0.072 C 
HETATM   24  C4  UNL     1      22.001   4.122  48.177  1.00  0.00     0.008 C 
BRANCH  24  25
HETATM   25  C3  UNL     1      22.506   5.199  47.292  1.00  0.00     0.299 C 
BRANCH  25  26
HETATM   26  N1  UNL     1      22.459   6.490  47.917  1.00  0.00     0.083 N 
HETATM   27  C1  UNL     1      22.459   7.580  46.968  1.00  0.00     0.309 C 
HETATM   28  C2  UNL     1      23.562   6.630  48.819  1.00  0.00     0.309 C 
ENDBRANCH  25  26
ENDBRANCH  24  25
ENDBRANCH  20  23
ENDBRANCH  18  19
ENDBRANCH   1  17
TORSDOF 5
ENDMDL
