MODEL 1
REMARK VINA RESULT:      -9.0      0.000      0.000
REMARK  10 active torsions:
REMARK  status: ('A' for Active; 'I' for Inactive)
REMARK    1  A    between atoms: O1_2  and  C2_3 
REMARK    2  A    between atoms: C6_7  and  C7_8 
REMARK    3  A    between atoms: C15_18  and  C16_19 
REMARK    4  A    between atoms: C17_20  and  C19_22 
REMARK    5  A    between atoms: C19_22  and  C20_23 
REMARK    6  A    between atoms: C20_23  and  C22_26 
REMARK    7  A    between atoms: C21_24  and  N2_25 
REMARK    8  A    between atoms: C22_26  and  C23_27 
REMARK    9  A    between atoms: C23_27  and  C24_28 
REMARK   10  A    between atoms: C24_28  and  O4_30 
ROOT
HETATM    1  C7  UNL     1      22.989   2.319  50.323  1.00  0.00    -0.046 A 
HETATM    2  C8  UNL     1      22.496   1.928  49.163  1.00  0.00     0.007 A 
HETATM    3  C9  UNL     1      22.370   2.854  48.045  1.00  0.00    -0.002 A 
HETATM    4  C10 UNL     1      22.780   4.095  48.283  1.00  0.00    -0.010 A 
HETATM    5  C11 UNL     1      23.357   4.681  49.546  1.00  0.00     0.030 A 
HETATM    6  C12 UNL     1      22.408   5.817  49.906  1.00  0.00     0.141 C 
HETATM    7  N1  UNL     1      22.583   6.668  48.732  1.00  0.00    -0.356 N 
HETATM    8  C13 UNL     1      23.928   6.429  48.260  1.00  0.00     0.248 C 
HETATM    9  O2  UNL     1      24.182   7.135  47.222  1.00  0.00    -0.268 OA
HETATM   10  C14 UNL     1      24.551   5.431  49.168  1.00  0.00     0.024 C 
HETATM   11  C15 UNL     1      25.839   5.539  49.309  1.00  0.00     0.014 C 
HETATM   12  C25 UNL     1      23.491   3.682  50.627  1.00  0.00     0.059 A 
HETATM   13  H12 UNL     1      21.773   7.268  48.442  1.00  0.00     0.162 HD
ENDROOT
BRANCH  11  14
HETATM   14  C16 UNL     1      26.776   6.464  48.752  1.00  0.00     0.003 C 
HETATM   15  C17 UNL     1      27.996   6.447  48.280  1.00  0.00    -0.080 C 
HETATM   16  C18 UNL     1      28.639   5.113  48.307  1.00  0.00     0.043 C 
BRANCH  15  17
HETATM   17  C19 UNL     1      28.573   7.702  47.771  1.00  0.00     0.069 C 
BRANCH  17  18
HETATM   18  C20 UNL     1      29.891   8.051  48.306  1.00  0.00    -0.061 C 
HETATM   19  C21 UNL     1      29.971   8.886  49.351  1.00  0.00     0.083 C 
BRANCH  19  20
HETATM   20  N2  UNL     1      28.829   9.454  49.969  1.00  0.00    -0.408 N 
HETATM   21  H21 UNL     1      28.241  10.201  49.490  1.00  0.00     0.155 HD
HETATM   22  H22 UNL     1      28.522   9.144  50.939  1.00  0.00     0.155 HD
ENDBRANCH  19  20
BRANCH  18  23
HETATM   23  C22 UNL     1      31.153   7.473  47.728  1.00  0.00     0.046 C 
BRANCH  23  24
HETATM   24  C23 UNL     1      32.174   7.291  48.851  1.00  0.00     0.114 C 
BRANCH  24  25
HETATM   25  C24 UNL     1      31.880   5.983  49.542  1.00  0.00     0.139 C 
HETATM   26  O3  UNL     1      32.013   4.893  48.879  1.00  0.00    -0.650 OA
BRANCH  25  27
HETATM   27  O4  UNL     1      31.466   5.474  50.784  1.00  0.00    -0.776 OA
HETATM   28  H27 UNL     1      30.479   5.273  50.948  1.00  0.00     0.167 HD
ENDBRANCH  25  27
ENDBRANCH  24  25
ENDBRANCH  23  24
ENDBRANCH  18  23
ENDBRANCH  17  18
ENDBRANCH  15  17
ENDBRANCH  11  14
BRANCH   1  29
HETATM   29  C6  UNL     1      23.075   1.329  51.394  1.00  0.00    -0.027 A 
HETATM   30  C5  UNL     1      22.025   0.544  51.806  1.00  0.00     0.012 A 
HETATM   31  C4  UNL     1      22.053  -0.377  52.822  1.00  0.00     0.004 A 
HETATM   32  C3  UNL     1      23.257  -0.541  53.511  1.00  0.00     0.037 A 
HETATM   33  C2  UNL     1      24.356   0.205  53.160  1.00  0.00     0.069 A 
HETATM   34  C26 UNL     1      24.265   1.133  52.110  1.00  0.00     0.048 A 
BRANCH  33  35
HETATM   35  O1  UNL     1      25.619   0.181  53.719  1.00  0.00    -0.356 OA
HETATM   36  C1  UNL     1      26.635  -0.619  53.162  1.00  0.00     0.210 C 
ENDBRANCH  33  35
ENDBRANCH   1  29
TORSDOF 10
ENDMDL
MODEL 2
REMARK VINA RESULT:      -9.0      1.314      2.044
REMARK  10 active torsions:
REMARK  status: ('A' for Active; 'I' for Inactive)
REMARK    1  A    between atoms: O1_2  and  C2_3 
REMARK    2  A    between atoms: C6_7  and  C7_8 
REMARK    3  A    between atoms: C15_18  and  C16_19 
REMARK    4  A    between atoms: C17_20  and  C19_22 
REMARK    5  A    between atoms: C19_22  and  C20_23 
REMARK    6  A    between atoms: C20_23  and  C22_26 
REMARK    7  A    between atoms: C21_24  and  N2_25 
REMARK    8  A    between atoms: C22_26  and  C23_27 
REMARK    9  A    between atoms: C23_27  and  C24_28 
REMARK   10  A    between atoms: C24_28  and  O4_30 
ROOT
HETATM    1  C7  UNL     1      22.341   1.069  51.738  1.00  0.00    -0.046 A 
HETATM    2  C8  UNL     1      21.733   0.474  50.728  1.00  0.00     0.007 A 
HETATM    3  C9  UNL     1      21.375   1.209  49.522  1.00  0.00    -0.002 A 
HETATM    4  C10 UNL     1      21.701   2.497  49.522  1.00  0.00    -0.010 A 
HETATM    5  C11 UNL     1      22.386   3.306  50.594  1.00  0.00     0.030 A 
HETATM    6  C12 UNL     1      21.396   4.415  50.927  1.00  0.00     0.141 C 
HETATM    7  N1  UNL     1      21.335   5.089  49.632  1.00  0.00    -0.356 N 
HETATM    8  C13 UNL     1      22.620   4.876  49.007  1.00  0.00     0.248 C 
HETATM    9  O2  UNL     1      22.667   5.432  47.854  1.00  0.00    -0.268 OA
HETATM   10  C14 UNL     1      23.447   4.071  49.944  1.00  0.00     0.024 C 
HETATM   11  C15 UNL     1      24.727   4.289  49.879  1.00  0.00     0.014 C 
HETATM   12  C25 UNL     1      22.754   2.493  51.772  1.00  0.00     0.059 A 
HETATM   13  H12 UNL     1      20.443   5.581  49.382  1.00  0.00     0.162 HD
ENDROOT
BRANCH  11  14
HETATM   14  C16 UNL     1      25.494   5.182  49.067  1.00  0.00     0.003 C 
HETATM   15  C17 UNL     1      25.920   6.417  49.116  1.00  0.00    -0.080 C 
HETATM   16  C18 UNL     1      25.524   7.149  50.342  1.00  0.00     0.043 C 
BRANCH  15  17
HETATM   17  C19 UNL     1      26.736   6.926  48.002  1.00  0.00     0.069 C 
BRANCH  17  18
HETATM   18  C20 UNL     1      28.178   6.990  48.256  1.00  0.00    -0.061 C 
HETATM   19  C21 UNL     1      28.732   8.166  48.582  1.00  0.00     0.083 C 
BRANCH  19  20
HETATM   20  N2  UNL     1      27.982   9.363  48.693  1.00  0.00    -0.408 N 
HETATM   21  H21 UNL     1      26.989   9.373  49.076  1.00  0.00     0.155 HD
HETATM   22  H22 UNL     1      28.396  10.297  48.396  1.00  0.00     0.155 HD
ENDBRANCH  19  20
BRANCH  18  23
HETATM   23  C22 UNL     1      29.044   5.763  48.186  1.00  0.00     0.046 C 
BRANCH  23  24
HETATM   24  C23 UNL     1      30.496   6.194  47.975  1.00  0.00     0.114 C 
BRANCH  24  25
HETATM   25  C24 UNL     1      31.345   5.496  49.007  1.00  0.00     0.139 C 
HETATM   26  O3  UNL     1      32.136   4.561  48.623  1.00  0.00    -0.650 OA
BRANCH  25  27
HETATM   27  O4  UNL     1      31.610   5.500  50.386  1.00  0.00    -0.776 OA
HETATM   28  H27 UNL     1      31.281   6.274  50.964  1.00  0.00     0.167 HD
ENDBRANCH  25  27
ENDBRANCH  24  25
ENDBRANCH  23  24
ENDBRANCH  18  23
ENDBRANCH  17  18
ENDBRANCH  15  17
ENDBRANCH  11  14
BRANCH   1  29
HETATM   29  C6  UNL     1      22.659   0.261  52.913  1.00  0.00    -0.027 A 
HETATM   30  C5  UNL     1      21.719  -0.250  53.776  1.00  0.00     0.012 A 
HETATM   31  C4  UNL     1      21.972  -0.990  54.903  1.00  0.00     0.004 A 
HETATM   32  C3  UNL     1      23.307  -1.256  55.213  1.00  0.00     0.037 A 
HETATM   33  C2  UNL     1      24.309  -0.783  54.399  1.00  0.00     0.069 A 
HETATM   34  C26 UNL     1      23.986  -0.030  53.259  1.00  0.00     0.048 A 
BRANCH  33  35
HETATM   35  O1  UNL     1      25.673  -0.943  54.543  1.00  0.00    -0.356 OA
HETATM   36  C1  UNL     1      26.489   0.145  54.910  1.00  0.00     0.210 C 
ENDBRANCH  33  35
ENDBRANCH   1  29
TORSDOF 10
ENDMDL
MODEL 3
REMARK VINA RESULT:      -8.9      2.986      9.219
REMARK  10 active torsions:
REMARK  status: ('A' for Active; 'I' for Inactive)
REMARK    1  A    between atoms: O1_2  and  C2_3 
REMARK    2  A    between atoms: C6_7  and  C7_8 
REMARK    3  A    between atoms: C15_18  and  C16_19 
REMARK    4  A    between atoms: C17_20  and  C19_22 
REMARK    5  A    between atoms: C19_22  and  C20_23 
REMARK    6  A    between atoms: C20_23  and  C22_26 
REMARK    7  A    between atoms: C21_24  and  N2_25 
REMARK    8  A    between atoms: C22_26  and  C23_27 
REMARK    9  A    between atoms: C23_27  and  C24_28 
REMARK   10  A    between atoms: C24_28  and  O4_30 
ROOT
HETATM    1  C7  UNL     1      26.422   6.170  49.121  1.00  0.00    -0.046 A 
HETATM    2  C8  UNL     1      25.831   7.018  49.943  1.00  0.00     0.007 A 
HETATM    3  C9  UNL     1      24.725   6.599  50.793  1.00  0.00    -0.002 A 
HETATM    4  C10 UNL     1      24.366   5.325  50.675  1.00  0.00    -0.010 A 
HETATM    5  C11 UNL     1      24.940   4.253  49.785  1.00  0.00     0.030 A 
HETATM    6  C12 UNL     1      23.763   3.795  48.932  1.00  0.00     0.141 C 
HETATM    7  N1  UNL     1      22.884   3.280  49.979  1.00  0.00    -0.356 N 
HETATM    8  C13 UNL     1      23.749   2.825  51.043  1.00  0.00     0.248 C 
HETATM    9  O2  UNL     1      23.067   2.352  52.018  1.00  0.00    -0.268 OA
HETATM   10  C14 UNL     1      25.152   3.071  50.616  1.00  0.00     0.024 C 
HETATM   11  C15 UNL     1      26.028   2.233  51.086  1.00  0.00     0.014 C 
HETATM   12  C25 UNL     1      26.080   4.734  48.978  1.00  0.00     0.059 A 
HETATM   13  H12 UNL     1      21.850   3.318  49.807  1.00  0.00     0.162 HD
ENDROOT
BRANCH  11  14
HETATM   14  C16 UNL     1      25.885   1.096  51.940  1.00  0.00     0.003 C 
HETATM   15  C17 UNL     1      25.839   0.842  53.222  1.00  0.00    -0.080 C 
HETATM   16  C18 UNL     1      25.967   2.040  54.084  1.00  0.00     0.043 C 
BRANCH  15  17
HETATM   17  C19 UNL     1      25.649  -0.551  53.659  1.00  0.00     0.069 C 
BRANCH  17  18
HETATM   18  C20 UNL     1      24.324  -0.866  54.199  1.00  0.00    -0.061 C 
HETATM   19  C21 UNL     1      24.209  -1.208  55.490  1.00  0.00     0.083 C 
BRANCH  19  20
HETATM   20  N2  UNL     1      25.321  -1.279  56.366  1.00  0.00    -0.408 N 
HETATM   21  H21 UNL     1      26.316  -1.105  56.031  1.00  0.00     0.155 HD
HETATM   22  H22 UNL     1      25.190  -1.510  57.396  1.00  0.00     0.155 HD
ENDBRANCH  19  20
BRANCH  18  23
HETATM   23  C22 UNL     1      23.089  -0.789  53.345  1.00  0.00     0.046 C 
BRANCH  23  24
HETATM   24  C23 UNL     1      22.035   0.044  54.075  1.00  0.00     0.114 C 
BRANCH  24  25
HETATM   25  C24 UNL     1      20.788  -0.792  54.208  1.00  0.00     0.139 C 
HETATM   26  O3  UNL     1      20.887  -1.969  54.710  1.00  0.00    -0.650 OA
BRANCH  25  27
HETATM   27  O4  UNL     1      19.408  -0.742  53.953  1.00  0.00    -0.776 OA
HETATM   28  H27 UNL     1      18.907   0.144  54.033  1.00  0.00     0.167 HD
ENDBRANCH  25  27
ENDBRANCH  24  25
ENDBRANCH  23  24
ENDBRANCH  18  23
ENDBRANCH  17  18
ENDBRANCH  15  17
ENDBRANCH  11  14
BRANCH   1  29
HETATM   29  C6  UNL     1      27.520   6.673  48.298  1.00  0.00    -0.027 A 
HETATM   30  C5  UNL     1      27.423   7.758  47.461  1.00  0.00     0.012 A 
HETATM   31  C4  UNL     1      28.417   8.249  46.653  1.00  0.00     0.004 A 
HETATM   32  C3  UNL     1      29.649   7.591  46.674  1.00  0.00     0.037 A 
HETATM   33  C2  UNL     1      29.829   6.497  47.487  1.00  0.00     0.069 A 
HETATM   34  C26 UNL     1      28.773   6.042  48.292  1.00  0.00     0.048 A 
BRANCH  33  35
HETATM   35  O1  UNL     1      30.964   5.726  47.641  1.00  0.00    -0.356 OA
HETATM   36  C1  UNL     1      31.752   5.834  48.804  1.00  0.00     0.210 C 
ENDBRANCH  33  35
ENDBRANCH   1  29
TORSDOF 10
ENDMDL
MODEL 4
REMARK VINA RESULT:      -8.9      2.192      2.713
REMARK  10 active torsions:
REMARK  status: ('A' for Active; 'I' for Inactive)
REMARK    1  A    between atoms: O1_2  and  C2_3 
REMARK    2  A    between atoms: C6_7  and  C7_8 
REMARK    3  A    between atoms: C15_18  and  C16_19 
REMARK    4  A    between atoms: C17_20  and  C19_22 
REMARK    5  A    between atoms: C19_22  and  C20_23 
REMARK    6  A    between atoms: C20_23  and  C22_26 
REMARK    7  A    between atoms: C21_24  and  N2_25 
REMARK    8  A    between atoms: C22_26  and  C23_27 
REMARK    9  A    between atoms: C23_27  and  C24_28 
REMARK   10  A    between atoms: C24_28  and  O4_30 
ROOT
HETATM    1  C7  UNL     1      24.290   2.549  50.840  1.00  0.00    -0.046 A 
HETATM    2  C8  UNL     1      23.321   2.349  49.965  1.00  0.00     0.007 A 
HETATM    3  C9  UNL     1      22.910   3.396  49.040  1.00  0.00    -0.002 A 
HETATM    4  C10 UNL     1      23.572   4.543  49.146  1.00  0.00    -0.010 A 
HETATM    5  C11 UNL     1      24.687   4.915  50.089  1.00  0.00     0.030 A 
HETATM    6  C12 UNL     1      24.152   6.117  50.857  1.00  0.00     0.141 C 
HETATM    7  N1  UNL     1      23.979   7.058  49.753  1.00  0.00    -0.356 N 
HETATM    8  C13 UNL     1      24.970   6.703  48.763  1.00  0.00     0.248 C 
HETATM    9  O2  UNL     1      24.898   7.477  47.745  1.00  0.00    -0.268 OA
HETATM   10  C14 UNL     1      25.735   5.544  49.291  1.00  0.00     0.024 C 
HETATM   11  C15 UNL     1      26.973   5.473  48.898  1.00  0.00     0.014 C 
HETATM   12  C25 UNL     1      25.080   3.797  50.974  1.00  0.00     0.059 A 
HETATM   13  H12 UNL     1      23.226   7.783  49.847  1.00  0.00     0.162 HD
ENDROOT
BRANCH  11  14
HETATM   14  C16 UNL     1      27.745   6.326  48.050  1.00  0.00     0.003 C 
HETATM   15  C17 UNL     1      28.992   6.455  47.675  1.00  0.00    -0.080 C 
HETATM   16  C18 UNL     1      29.911   5.458  48.271  1.00  0.00     0.043 C 
BRANCH  15  17
HETATM   17  C19 UNL     1      29.335   7.522  46.721  1.00  0.00     0.069 C 
BRANCH  17  18
HETATM   18  C20 UNL     1      29.805   8.774  47.320  1.00  0.00    -0.061 C 
HETATM   19  C21 UNL     1      31.112   9.071  47.272  1.00  0.00     0.083 C 
BRANCH  19  20
HETATM   20  N2  UNL     1      32.069   8.222  46.662  1.00  0.00    -0.408 N 
HETATM   21  H21 UNL     1      32.093   8.063  45.610  1.00  0.00     0.155 HD
HETATM   22  H22 UNL     1      32.800   7.716  47.245  1.00  0.00     0.155 HD
ENDBRANCH  19  20
BRANCH  18  23
HETATM   23  C22 UNL     1      28.854   9.744  47.964  1.00  0.00     0.046 C 
BRANCH  23  24
HETATM   24  C23 UNL     1      28.942   9.589  49.483  1.00  0.00     0.114 C 
BRANCH  24  25
HETATM   25  C24 UNL     1      27.551   9.342  50.009  1.00  0.00     0.139 C 
HETATM   26  O3  UNL     1      26.603  10.120  49.631  1.00  0.00    -0.650 OA
BRANCH  25  27
HETATM   27  O4  UNL     1      26.842   8.474  50.856  1.00  0.00    -0.776 OA
HETATM   28  H27 UNL     1      26.256   7.741  50.456  1.00  0.00     0.167 HD
ENDBRANCH  25  27
ENDBRANCH  24  25
ENDBRANCH  23  24
ENDBRANCH  18  23
ENDBRANCH  17  18
ENDBRANCH  15  17
ENDBRANCH  11  14
BRANCH   1  29
HETATM   29  C6  UNL     1      24.636   1.448  51.736  1.00  0.00    -0.027 A 
HETATM   30  C5  UNL     1      23.730   0.779  52.523  1.00  0.00     0.012 A 
HETATM   31  C4  UNL     1      24.014  -0.240  53.396  1.00  0.00     0.004 A 
HETATM   32  C3  UNL     1      25.346  -0.644  53.505  1.00  0.00     0.037 A 
HETATM   33  C2  UNL     1      26.315  -0.027  52.750  1.00  0.00     0.069 A 
HETATM   34  C26 UNL     1      25.962   1.011  51.873  1.00  0.00     0.048 A 
BRANCH  33  35
HETATM   35  O1  UNL     1      27.671  -0.287  52.722  1.00  0.00    -0.356 OA
HETATM   36  C1  UNL     1      28.429  -0.265  53.909  1.00  0.00     0.210 C 
ENDBRANCH  33  35
ENDBRANCH   1  29
TORSDOF 10
ENDMDL
MODEL 5
REMARK VINA RESULT:      -8.7      2.490      8.345
REMARK  10 active torsions:
REMARK  status: ('A' for Active; 'I' for Inactive)
REMARK    1  A    between atoms: O1_2  and  C2_3 
REMARK    2  A    between atoms: C6_7  and  C7_8 
REMARK    3  A    between atoms: C15_18  and  C16_19 
REMARK    4  A    between atoms: C17_20  and  C19_22 
REMARK    5  A    between atoms: C19_22  and  C20_23 
REMARK    6  A    between atoms: C20_23  and  C22_26 
REMARK    7  A    between atoms: C21_24  and  N2_25 
REMARK    8  A    between atoms: C22_26  and  C23_27 
REMARK    9  A    between atoms: C23_27  and  C24_28 
REMARK   10  A    between atoms: C24_28  and  O4_30 
ROOT
HETATM    1  C7  UNL     1      26.955   6.678  48.842  1.00  0.00    -0.046 A 
HETATM    2  C8  UNL     1      26.615   7.662  49.656  1.00  0.00     0.007 A 
HETATM    3  C9  UNL     1      25.340   7.655  50.360  1.00  0.00    -0.002 A 
HETATM    4  C10 UNL     1      24.563   6.604  50.121  1.00  0.00    -0.010 A 
HETATM    5  C11 UNL     1      24.813   5.419  49.224  1.00  0.00     0.030 A 
HETATM    6  C12 UNL     1      23.661   5.445  48.227  1.00  0.00     0.141 C 
HETATM    7  N1  UNL     1      22.538   5.260  49.143  1.00  0.00    -0.356 N 
HETATM    8  C13 UNL     1      23.048   4.493  50.256  1.00  0.00     0.248 C 
HETATM    9  O2  UNL     1      22.132   4.277  51.123  1.00  0.00    -0.268 OA
HETATM   10  C14 UNL     1      24.485   4.220  49.990  1.00  0.00     0.024 C 
HETATM   11  C15 UNL     1      24.939   3.109  50.489  1.00  0.00     0.014 C 
HETATM   12  C25 UNL     1      26.138   5.471  48.570  1.00  0.00     0.059 A 
HETATM   13  H12 UNL     1      21.615   5.678  48.871  1.00  0.00     0.162 HD
ENDROOT
BRANCH  11  14
HETATM   14  C16 UNL     1      24.296   2.080  51.246  1.00  0.00     0.003 C 
HETATM   15  C17 UNL     1      24.044   1.809  52.500  1.00  0.00    -0.080 C 
HETATM   16  C18 UNL     1      24.548   2.824  53.454  1.00  0.00     0.043 C 
BRANCH  15  17
HETATM   17  C19 UNL     1      23.296   0.582  52.820  1.00  0.00     0.069 C 
BRANCH  17  18
HETATM   18  C20 UNL     1      23.954  -0.329  53.760  1.00  0.00    -0.061 C 
HETATM   19  C21 UNL     1      23.216  -0.960  54.684  1.00  0.00     0.083 C 
BRANCH  19  20
HETATM   20  N2  UNL     1      21.814  -0.786  54.794  1.00  0.00    -0.408 N 
HETATM   21  H21 UNL     1      21.216  -1.406  55.419  1.00  0.00     0.155 HD
HETATM   22  H22 UNL     1      21.314  -0.020  54.251  1.00  0.00     0.155 HD
ENDBRANCH  19  20
BRANCH  18  23
HETATM   23  C22 UNL     1      25.434  -0.591  53.696  1.00  0.00     0.046 C 
BRANCH  23  24
HETATM   24  C23 UNL     1      26.075  -0.129  55.006  1.00  0.00     0.114 C 
BRANCH  24  25
HETATM   25  C24 UNL     1      27.547   0.080  54.757  1.00  0.00     0.139 C 
HETATM   26  O3  UNL     1      28.196  -0.820  54.115  1.00  0.00    -0.650 OA
BRANCH  25  27
HETATM   27  O4  UNL     1      28.574   1.005  55.003  1.00  0.00    -0.776 OA
HETATM   28  H27 UNL     1      29.493   0.871  54.578  1.00  0.00     0.167 HD
ENDBRANCH  25  27
ENDBRANCH  24  25
ENDBRANCH  23  24
ENDBRANCH  18  23
ENDBRANCH  17  18
ENDBRANCH  15  17
ENDBRANCH  11  14
BRANCH   1  29
HETATM   29  C6  UNL     1      28.249   6.766  48.171  1.00  0.00    -0.027 A 
HETATM   30  C5  UNL     1      28.589   7.753  47.277  1.00  0.00     0.012 A 
HETATM   31  C4  UNL     1      29.780   7.861  46.605  1.00  0.00     0.004 A 
HETATM   32  C3  UNL     1      30.745   6.880  46.842  1.00  0.00     0.037 A 
HETATM   33  C2  UNL     1      30.484   5.858  47.723  1.00  0.00     0.069 A 
HETATM   34  C26 UNL     1      29.245   5.802  48.382  1.00  0.00     0.048 A 
BRANCH  33  35
HETATM   35  O1  UNL     1      31.307   4.809  48.082  1.00  0.00    -0.356 OA
HETATM   36  C1  UNL     1      31.812   3.927  47.107  1.00  0.00     0.210 C 
ENDBRANCH  33  35
ENDBRANCH   1  29
TORSDOF 10
ENDMDL
MODEL 6
REMARK VINA RESULT:      -8.6      2.820      9.247
REMARK  10 active torsions:
REMARK  status: ('A' for Active; 'I' for Inactive)
REMARK    1  A    between atoms: O1_2  and  C2_3 
REMARK    2  A    between atoms: C6_7  and  C7_8 
REMARK    3  A    between atoms: C15_18  and  C16_19 
REMARK    4  A    between atoms: C17_20  and  C19_22 
REMARK    5  A    between atoms: C19_22  and  C20_23 
REMARK    6  A    between atoms: C20_23  and  C22_26 
REMARK    7  A    between atoms: C21_24  and  N2_25 
REMARK    8  A    between atoms: C22_26  and  C23_27 
REMARK    9  A    between atoms: C23_27  and  C24_28 
REMARK   10  A    between atoms: C24_28  and  O4_30 
ROOT
HETATM    1  C7  UNL     1      32.269   6.102  47.750  1.00  0.00    -0.046 A 
HETATM    2  C8  UNL     1      32.675   6.822  48.780  1.00  0.00     0.007 A 
HETATM    3  C9  UNL     1      31.782   7.761  49.446  1.00  0.00    -0.002 A 
HETATM    4  C10 UNL     1      30.554   7.834  48.943  1.00  0.00    -0.010 A 
HETATM    5  C11 UNL     1      29.956   7.084  47.780  1.00  0.00     0.030 A 
HETATM    6  C12 UNL     1      29.517   8.173  46.809  1.00  0.00     0.141 C 
HETATM    7  N1  UNL     1      28.528   8.859  47.637  1.00  0.00    -0.356 N 
HETATM    8  C13 UNL     1      27.986   7.858  48.528  1.00  0.00     0.248 C 
HETATM    9  O2  UNL     1      27.102   8.365  49.303  1.00  0.00    -0.268 OA
HETATM   10  C14 UNL     1      28.661   6.570  48.219  1.00  0.00     0.024 C 
HETATM   11  C15 UNL     1      27.945   5.506  48.428  1.00  0.00     0.014 C 
HETATM   12  C25 UNL     1      30.902   6.124  47.175  1.00  0.00     0.059 A 
HETATM   13  H12 UNL     1      28.379   9.883  47.467  1.00  0.00     0.162 HD
ENDROOT
BRANCH  11  14
HETATM   14  C16 UNL     1      26.603   5.347  48.896  1.00  0.00     0.003 C 
HETATM   15  C17 UNL     1      25.865   4.410  49.433  1.00  0.00    -0.080 C 
HETATM   16  C18 UNL     1      26.571   3.124  49.638  1.00  0.00     0.043 C 
BRANCH  15  17
HETATM   17  C19 UNL     1      24.471   4.725  49.785  1.00  0.00     0.069 C 
BRANCH  17  18
HETATM   18  C20 UNL     1      24.075   4.383  51.154  1.00  0.00    -0.061 C 
HETATM   19  C21 UNL     1      23.976   5.358  52.069  1.00  0.00     0.083 C 
BRANCH  19  20
HETATM   20  N2  UNL     1      24.239   6.719  51.771  1.00  0.00    -0.408 N 
HETATM   21  H21 UNL     1      24.682   7.020  50.851  1.00  0.00     0.155 HD
HETATM   22  H22 UNL     1      23.995   7.487  52.465  1.00  0.00     0.155 HD
ENDBRANCH  19  20
BRANCH  18  23
HETATM   23  C22 UNL     1      23.753   2.969  51.549  1.00  0.00     0.046 C 
BRANCH  23  24
HETATM   24  C23 UNL     1      24.012   2.802  53.047  1.00  0.00     0.114 C 
BRANCH  24  25
HETATM   25  C24 UNL     1      25.423   2.301  53.224  1.00  0.00     0.139 C 
HETATM   26  O3  UNL     1      25.754   1.191  52.674  1.00  0.00    -0.650 OA
BRANCH  25  27
HETATM   27  O4  UNL     1      26.635   2.648  53.843  1.00  0.00    -0.776 OA
HETATM   28  H27 UNL     1      27.191   1.932  54.311  1.00  0.00     0.167 HD
ENDBRANCH  25  27
ENDBRANCH  24  25
ENDBRANCH  23  24
ENDBRANCH  18  23
ENDBRANCH  17  18
ENDBRANCH  15  17
ENDBRANCH  11  14
BRANCH   1  29
HETATM   29  C6  UNL     1      33.230   5.189  47.137  1.00  0.00    -0.027 A 
HETATM   30  C5  UNL     1      33.940   4.237  47.828  1.00  0.00     0.012 A 
HETATM   31  C4  UNL     1      34.869   3.377  47.299  1.00  0.00     0.004 A 
HETATM   32  C3  UNL     1      35.128   3.470  45.930  1.00  0.00     0.037 A 
HETATM   33  C2  UNL     1      34.459   4.397  45.166  1.00  0.00     0.069 A 
HETATM   34  C26 UNL     1      33.518   5.249  45.765  1.00  0.00     0.048 A 
BRANCH  33  35
HETATM   35  O1  UNL     1      34.580   4.634  43.811  1.00  0.00    -0.356 OA
HETATM   36  C1  UNL     1      34.496   5.945  43.302  1.00  0.00     0.210 C 
ENDBRANCH  33  35
ENDBRANCH   1  29
TORSDOF 10
ENDMDL
MODEL 7
REMARK VINA RESULT:      -8.4      3.218      9.675
REMARK  10 active torsions:
REMARK  status: ('A' for Active; 'I' for Inactive)
REMARK    1  A    between atoms: O1_2  and  C2_3 
REMARK    2  A    between atoms: C6_7  and  C7_8 
REMARK    3  A    between atoms: C15_18  and  C16_19 
REMARK    4  A    between atoms: C17_20  and  C19_22 
REMARK    5  A    between atoms: C19_22  and  C20_23 
REMARK    6  A    between atoms: C20_23  and  C22_26 
REMARK    7  A    between atoms: C21_24  and  N2_25 
REMARK    8  A    between atoms: C22_26  and  C23_27 
REMARK    9  A    between atoms: C23_27  and  C24_28 
REMARK   10  A    between atoms: C24_28  and  O4_30 
ROOT
HETATM    1  C7  UNL     1      32.352   6.097  47.752  1.00  0.00    -0.046 A 
HETATM    2  C8  UNL     1      32.768   6.692  48.855  1.00  0.00     0.007 A 
HETATM    3  C9  UNL     1      31.905   7.605  49.592  1.00  0.00    -0.002 A 
HETATM    4  C10 UNL     1      30.694   7.788  49.076  1.00  0.00    -0.010 A 
HETATM    5  C11 UNL     1      30.088   7.186  47.834  1.00  0.00     0.030 A 
HETATM    6  C12 UNL     1      29.725   8.384  46.967  1.00  0.00     0.141 C 
HETATM    7  N1  UNL     1      28.751   9.035  47.840  1.00  0.00    -0.356 N 
HETATM    8  C13 UNL     1      28.141   7.980  48.617  1.00  0.00     0.248 C 
HETATM    9  O2  UNL     1      27.264   8.453  49.422  1.00  0.00    -0.268 OA
HETATM   10  C14 UNL     1      28.760   6.697  48.196  1.00  0.00     0.024 C 
HETATM   11  C15 UNL     1      27.989   5.654  48.286  1.00  0.00     0.014 C 
HETATM   12  C25 UNL     1      31.002   6.243  47.155  1.00  0.00     0.059 A 
HETATM   13  H12 UNL     1      28.655  10.077  47.769  1.00  0.00     0.162 HD
ENDROOT
BRANCH  11  14
HETATM   14  C16 UNL     1      26.631   5.517  48.711  1.00  0.00     0.003 C 
HETATM   15  C17 UNL     1      25.891   4.638  49.335  1.00  0.00    -0.080 C 
HETATM   16  C18 UNL     1      26.617   3.412  49.741  1.00  0.00     0.043 C 
BRANCH  15  17
HETATM   17  C19 UNL     1      24.474   4.954  49.579  1.00  0.00     0.069 C 
BRANCH  17  18
HETATM   18  C20 UNL     1      23.762   4.018  50.452  1.00  0.00    -0.061 C 
HETATM   19  C21 UNL     1      23.564   4.344  51.737  1.00  0.00     0.083 C 
BRANCH  19  20
HETATM   20  N2  UNL     1      24.016   5.565  52.296  1.00  0.00    -0.408 N 
HETATM   21  H21 UNL     1      23.361   6.388  52.458  1.00  0.00     0.155 HD
HETATM   22  H22 UNL     1      25.034   5.694  52.577  1.00  0.00     0.155 HD
ENDBRANCH  19  20
BRANCH  18  23
HETATM   23  C22 UNL     1      23.226   2.712  49.933  1.00  0.00     0.046 C 
BRANCH  23  24
HETATM   24  C23 UNL     1      22.758   2.908  48.491  1.00  0.00     0.114 C 
BRANCH  24  25
HETATM   25  C24 UNL     1      21.554   2.028  48.267  1.00  0.00     0.139 C 
HETATM   26  O3  UNL     1      21.698   0.756  48.348  1.00  0.00    -0.650 OA
BRANCH  25  27
HETATM   27  O4  UNL     1      20.184   2.109  47.969  1.00  0.00    -0.776 OA
HETATM   28  H27 UNL     1      19.799   1.564  47.196  1.00  0.00     0.167 HD
ENDBRANCH  25  27
ENDBRANCH  24  25
ENDBRANCH  23  24
ENDBRANCH  18  23
ENDBRANCH  17  18
ENDBRANCH  15  17
ENDBRANCH  11  14
BRANCH   1  29
HETATM   29  C6  UNL     1      33.283   5.201  47.069  1.00  0.00    -0.027 A 
HETATM   30  C5  UNL     1      34.006   4.215  47.697  1.00  0.00     0.012 A 
HETATM   31  C4  UNL     1      34.908   3.370  47.102  1.00  0.00     0.004 A 
HETATM   32  C3  UNL     1      35.121   3.516  45.730  1.00  0.00     0.037 A 
HETATM   33  C2  UNL     1      34.436   4.479  45.027  1.00  0.00     0.069 A 
HETATM   34  C26 UNL     1      33.524   5.314  45.692  1.00  0.00     0.048 A 
BRANCH  33  35
HETATM   35  O1  UNL     1      34.513   4.770  43.679  1.00  0.00    -0.356 OA
HETATM   36  C1  UNL     1      33.379   4.647  42.853  1.00  0.00     0.210 C 
ENDBRANCH  33  35
ENDBRANCH   1  29
TORSDOF 10
ENDMDL
MODEL 8
REMARK VINA RESULT:      -8.3      2.202      8.924
REMARK  10 active torsions:
REMARK  status: ('A' for Active; 'I' for Inactive)
REMARK    1  A    between atoms: O1_2  and  C2_3 
REMARK    2  A    between atoms: C6_7  and  C7_8 
REMARK    3  A    between atoms: C15_18  and  C16_19 
REMARK    4  A    between atoms: C17_20  and  C19_22 
REMARK    5  A    between atoms: C19_22  and  C20_23 
REMARK    6  A    between atoms: C20_23  and  C22_26 
REMARK    7  A    between atoms: C21_24  and  N2_25 
REMARK    8  A    between atoms: C22_26  and  C23_27 
REMARK    9  A    between atoms: C23_27  and  C24_28 
REMARK   10  A    between atoms: C24_28  and  O4_30 
ROOT
HETATM    1  C7  UNL     1      31.344   7.516  48.486  1.00  0.00    -0.046 A 
HETATM    2  C8  UNL     1      31.207   8.624  49.191  1.00  0.00     0.007 A 
HETATM    3  C9  UNL     1      29.922   9.303  49.290  1.00  0.00    -0.002 A 
HETATM    4  C10 UNL     1      28.923   8.731  48.626  1.00  0.00    -0.010 A 
HETATM    5  C11 UNL     1      28.931   7.481  47.784  1.00  0.00     0.030 A 
HETATM    6  C12 UNL     1      28.473   7.945  46.408  1.00  0.00     0.141 C 
HETATM    7  N1  UNL     1      27.132   8.420  46.740  1.00  0.00    -0.356 N 
HETATM    8  C13 UNL     1      26.693   7.627  47.866  1.00  0.00     0.248 C 
HETATM    9  O2  UNL     1      25.516   7.971  48.238  1.00  0.00    -0.268 OA
HETATM   10  C14 UNL     1      27.785   6.676  48.197  1.00  0.00     0.024 C 
HETATM   11  C15 UNL     1      27.397   5.544  48.706  1.00  0.00     0.014 C 
HETATM   12  C25 UNL     1      30.254   6.823  47.756  1.00  0.00     0.059 A 
HETATM   13  H12 UNL     1      26.732   9.195  46.157  1.00  0.00     0.162 HD
ENDROOT
BRANCH  11  14
HETATM   14  C16 UNL     1      26.093   5.036  48.997  1.00  0.00     0.003 C 
HETATM   15  C17 UNL     1      25.556   3.926  49.432  1.00  0.00    -0.080 C 
HETATM   16  C18 UNL     1      26.534   2.851  49.722  1.00  0.00     0.043 C 
BRANCH  15  17
HETATM   17  C19 UNL     1      24.095   3.868  49.603  1.00  0.00     0.069 C 
BRANCH  17  18
HETATM   18  C20 UNL     1      23.631   3.213  50.829  1.00  0.00    -0.061 C 
HETATM   19  C21 UNL     1      22.813   2.156  50.735  1.00  0.00     0.083 C 
BRANCH  19  20
HETATM   20  N2  UNL     1      22.371   1.636  49.493  1.00  0.00    -0.408 N 
HETATM   21  H21 UNL     1      22.081   0.619  49.378  1.00  0.00     0.155 HD
HETATM   22  H22 UNL     1      22.313   2.257  48.631  1.00  0.00     0.155 HD
ENDBRANCH  19  20
BRANCH  18  23
HETATM   23  C22 UNL     1      24.073   3.684  52.188  1.00  0.00     0.046 C 
BRANCH  23  24
HETATM   24  C23 UNL     1      24.184   2.475  53.117  1.00  0.00     0.114 C 
BRANCH  24  25
HETATM   25  C24 UNL     1      25.648   2.172  53.316  1.00  0.00     0.139 C 
HETATM   26  O3  UNL     1      26.169   1.198  52.663  1.00  0.00    -0.650 OA
BRANCH  25  27
HETATM   27  O4  UNL     1      26.767   2.620  54.037  1.00  0.00    -0.776 OA
HETATM   28  H27 UNL     1      26.748   3.536  54.487  1.00  0.00     0.167 HD
ENDBRANCH  25  27
ENDBRANCH  24  25
ENDBRANCH  23  24
ENDBRANCH  18  23
ENDBRANCH  17  18
ENDBRANCH  15  17
ENDBRANCH  11  14
BRANCH   1  29
HETATM   29  C6  UNL     1      32.669   6.902  48.434  1.00  0.00    -0.027 A 
HETATM   30  C5  UNL     1      33.847   7.598  48.558  1.00  0.00     0.012 A 
HETATM   31  C4  UNL     1      35.111   7.068  48.490  1.00  0.00     0.004 A 
HETATM   32  C3  UNL     1      35.223   5.693  48.273  1.00  0.00     0.037 A 
HETATM   33  C2  UNL     1      34.091   4.925  48.139  1.00  0.00     0.069 A 
HETATM   34  C26 UNL     1      32.825   5.525  48.219  1.00  0.00     0.048 A 
BRANCH  33  35
HETATM   35  O1  UNL     1      34.004   3.564  47.923  1.00  0.00    -0.356 OA
HETATM   36  C1  UNL     1      33.623   3.061  46.663  1.00  0.00     0.210 C 
ENDBRANCH  33  35
ENDBRANCH   1  29
TORSDOF 10
ENDMDL
MODEL 9
REMARK VINA RESULT:      -8.2      2.392      2.970
REMARK  10 active torsions:
REMARK  status: ('A' for Active; 'I' for Inactive)
REMARK    1  A    between atoms: O1_2  and  C2_3 
REMARK    2  A    between atoms: C6_7  and  C7_8 
REMARK    3  A    between atoms: C15_18  and  C16_19 
REMARK    4  A    between atoms: C17_20  and  C19_22 
REMARK    5  A    between atoms: C19_22  and  C20_23 
REMARK    6  A    between atoms: C20_23  and  C22_26 
REMARK    7  A    between atoms: C21_24  and  N2_25 
REMARK    8  A    between atoms: C22_26  and  C23_27 
REMARK    9  A    between atoms: C23_27  and  C24_28 
REMARK   10  A    between atoms: C24_28  and  O4_30 
ROOT
HETATM    1  C7  UNL     1      22.485   1.050  51.775  1.00  0.00    -0.046 A 
HETATM    2  C8  UNL     1      21.850   0.494  50.760  1.00  0.00     0.007 A 
HETATM    3  C9  UNL     1      21.595   1.234  49.531  1.00  0.00    -0.002 A 
HETATM    4  C10 UNL     1      22.040   2.485  49.516  1.00  0.00    -0.010 A 
HETATM    5  C11 UNL     1      22.771   3.249  50.591  1.00  0.00     0.030 A 
HETATM    6  C12 UNL     1      21.881   4.452  50.875  1.00  0.00     0.141 C 
HETATM    7  N1  UNL     1      21.918   5.101  49.567  1.00  0.00    -0.356 N 
HETATM    8  C13 UNL     1      23.193   4.756  48.983  1.00  0.00     0.248 C 
HETATM    9  O2  UNL     1      23.323   5.281  47.822  1.00  0.00    -0.268 OA
HETATM   10  C14 UNL     1      23.915   3.897  49.958  1.00  0.00     0.024 C 
HETATM   11  C15 UNL     1      25.211   3.992  49.925  1.00  0.00     0.014 C 
HETATM   12  C25 UNL     1      23.029   2.430  51.794  1.00  0.00     0.059 A 
HETATM   13  H12 UNL     1      21.083   5.669  49.283  1.00  0.00     0.162 HD
ENDROOT
BRANCH  11  14
HETATM   14  C16 UNL     1      26.080   4.792  49.118  1.00  0.00     0.003 C 
HETATM   15  C17 UNL     1      26.470   6.038  49.050  1.00  0.00    -0.080 C 
HETATM   16  C18 UNL     1      25.871   6.920  50.079  1.00  0.00     0.043 C 
BRANCH  15  17
HETATM   17  C19 UNL     1      27.443   6.417  48.012  1.00  0.00     0.069 C 
BRANCH  17  18
HETATM   18  C20 UNL     1      27.790   7.840  47.966  1.00  0.00    -0.061 C 
HETATM   19  C21 UNL     1      27.072   8.663  47.188  1.00  0.00     0.083 C 
BRANCH  19  20
HETATM   20  N2  UNL     1      25.982   8.216  46.400  1.00  0.00    -0.408 N 
HETATM   21  H21 UNL     1      25.254   7.537  46.777  1.00  0.00     0.155 HD
HETATM   22  H22 UNL     1      25.857   8.553  45.399  1.00  0.00     0.155 HD
ENDBRANCH  19  20
BRANCH  18  23
HETATM   23  C22 UNL     1      28.916   8.402  48.790  1.00  0.00     0.046 C 
BRANCH  23  24
HETATM   24  C23 UNL     1      28.470   9.736  49.391  1.00  0.00     0.114 C 
BRANCH  24  25
HETATM   25  C24 UNL     1      29.512  10.772  49.054  1.00  0.00     0.139 C 
HETATM   26  O3  UNL     1      29.498  11.302  47.886  1.00  0.00    -0.650 OA
BRANCH  25  27
HETATM   27  O4  UNL     1      30.612  11.436  49.620  1.00  0.00    -0.776 OA
HETATM   28  H27 UNL     1      31.445  11.612  49.056  1.00  0.00     0.167 HD
ENDBRANCH  25  27
ENDBRANCH  24  25
ENDBRANCH  23  24
ENDBRANCH  18  23
ENDBRANCH  17  18
ENDBRANCH  15  17
ENDBRANCH  11  14
BRANCH   1  29
HETATM   29  C6  UNL     1      22.694   0.241  52.973  1.00  0.00    -0.027 A 
HETATM   30  C5  UNL     1      21.679  -0.277  53.742  1.00  0.00     0.012 A 
HETATM   31  C4  UNL     1      21.828  -1.019  54.887  1.00  0.00     0.004 A 
HETATM   32  C3  UNL     1      23.129  -1.278  55.321  1.00  0.00     0.037 A 
HETATM   33  C2  UNL     1      24.201  -0.797  54.608  1.00  0.00     0.069 A 
HETATM   34  C26 UNL     1      23.984  -0.044  53.443  1.00  0.00     0.048 A 
BRANCH  33  35
HETATM   35  O1  UNL     1      25.546  -0.951  54.880  1.00  0.00    -0.356 OA
HETATM   36  C1  UNL     1      26.412   0.160  54.863  1.00  0.00     0.210 C 
ENDBRANCH  33  35
ENDBRANCH   1  29
TORSDOF 10
ENDMDL
