MODEL 1
REMARK VINA RESULT:      -8.8      0.000      0.000
REMARK  6 active torsions:
REMARK  status: ('A' for Active; 'I' for Inactive)
REMARK       I    between atoms: C1_2  and  N1_3 
REMARK       I    between atoms: C1_2  and  N3_12 
REMARK    1  A    between atoms: N1_3  and  C2_4 
REMARK    2  A    between atoms: C2_4  and  C3_5 
REMARK    3  A    between atoms: C3_5  and  N2_6 
REMARK    4  A    between atoms: N3_12  and  C9_13 
REMARK    5  A    between atoms: C13_18  and  N5_19 
REMARK    6  A    between atoms: N5_19  and  C14_20 
ROOT
HETATM    1  C9  UNL     1      21.006   0.664  52.061  1.00  0.00     0.048 A 
HETATM    2  C10 UNL     1      21.398  -0.089  53.058  1.00  0.00     0.002 A 
HETATM    3  C11 UNL     1      21.233  -1.054  54.136  1.00  0.00     0.031 A 
HETATM    4  C12 UNL     1      22.290  -1.415  54.870  1.00  0.00     0.086 A 
HETATM    5  N4  UNL     1      23.625  -0.917  54.683  1.00  0.00    -0.374 N 
HETATM    6  C13 UNL     1      23.978   0.046  53.665  1.00  0.00     0.216 A 
HETATM    7  C20 UNL     1      22.766   0.391  52.903  1.00  0.00    -0.002 A 
HETATM    8  C21 UNL     1      22.358   1.156  51.886  1.00  0.00     0.042 A 
HETATM    9  H19 UNL     1      24.229  -1.379  55.395  1.00  0.00     0.161 HD
ENDROOT
BRANCH   1  10
HETATM   10  N3  UNL     1      19.803   0.954  51.363  1.00  0.00    -0.308 N 
HETATM   11  C1  UNL     1      19.000   2.107  51.548  1.00  0.00     0.320 C 
HETATM   12  O1  UNL     1      19.323   2.980  52.381  1.00  0.00    -0.247 OA
HETATM   13  N1  UNL     1      17.810   2.384  50.853  1.00  0.00    -0.341 N 
HETATM   14  H1  UNL     1      17.473   1.682  50.128  1.00  0.00     0.164 HD
HETATM   15  H16 UNL     1      19.407   0.329  50.643  1.00  0.00     0.170 HD
BRANCH  13  16
HETATM   16  C2  UNL     1      17.101   3.631  51.173  1.00  0.00     0.154 C 
BRANCH  16  17
HETATM   17  C3  UNL     1      15.641   3.267  51.314  1.00  0.00     0.292 C 
BRANCH  17  18
HETATM   18  N2  UNL     1      15.252   2.970  52.672  1.00  0.00     0.090 N 
HETATM   19  C4  UNL     1      14.095   2.130  52.750  1.00  0.00     0.272 C 
HETATM   20  C5  UNL     1      12.861   2.721  52.136  1.00  0.00     0.030 C 
HETATM   21  C6  UNL     1      12.683   4.144  52.615  1.00  0.00     0.003 C 
HETATM   22  C7  UNL     1      13.607   4.439  53.756  1.00  0.00     0.030 C 
HETATM   23  C8  UNL     1      15.039   4.255  53.328  1.00  0.00     0.272 C 
ENDBRANCH  17  18
ENDBRANCH  16  17
ENDBRANCH  13  16
ENDBRANCH   1  10
BRANCH   6  24
HETATM   24  N5  UNL     1      25.000  -0.507  52.826  1.00  0.00    -0.365 N 
HETATM   25  H21 UNL     1      24.681  -0.871  51.877  1.00  0.00     0.162 HD
BRANCH  24  26
HETATM   26  C14 UNL     1      26.382  -0.647  53.058  1.00  0.00     0.031 A 
HETATM   27  C15 UNL     1      27.100  -1.794  52.780  1.00  0.00     0.032 A 
HETATM   28  C16 UNL     1      28.445  -1.889  53.010  1.00  0.00     0.046 A 
HETATM   29  C17 UNL     1      29.166  -0.843  53.533  1.00  0.00     0.138 A 
HETATM   30  F1  UNL     1      30.486  -1.025  53.727  1.00  0.00    -0.204 F 
HETATM   31  C18 UNL     1      28.479   0.310  53.820  1.00  0.00     0.074 A 
HETATM   32 CL1  UNL     1      29.424   1.631  54.489  1.00  0.00    -0.081 Cl
HETATM   33  C19 UNL     1      27.114   0.391  53.581  1.00  0.00     0.056 A 
ENDBRANCH  24  26
ENDBRANCH   6  24
TORSDOF 6
ENDMDL
MODEL 2
REMARK VINA RESULT:      -8.7      6.923      9.151
REMARK  6 active torsions:
REMARK  status: ('A' for Active; 'I' for Inactive)
REMARK       I    between atoms: C1_2  and  N1_3 
REMARK       I    between atoms: C1_2  and  N3_12 
REMARK    1  A    between atoms: N1_3  and  C2_4 
REMARK    2  A    between atoms: C2_4  and  C3_5 
REMARK    3  A    between atoms: C3_5  and  N2_6 
REMARK    4  A    between atoms: N3_12  and  C9_13 
REMARK    5  A    between atoms: C13_18  and  N5_19 
REMARK    6  A    between atoms: N5_19  and  C14_20 
ROOT
HETATM    1  C9  UNL     1      26.535   4.979  49.149  1.00  0.00     0.048 A 
HETATM    2  C10 UNL     1      26.775   6.256  48.977  1.00  0.00     0.002 A 
HETATM    3  C11 UNL     1      26.480   7.680  49.040  1.00  0.00     0.031 A 
HETATM    4  C12 UNL     1      27.378   8.563  48.594  1.00  0.00     0.086 A 
HETATM    5  N4  UNL     1      28.657   8.219  48.038  1.00  0.00    -0.374 N 
HETATM    6  C13 UNL     1      29.121   6.858  47.895  1.00  0.00     0.216 A 
HETATM    7  C20 UNL     1      28.081   5.950  48.406  1.00  0.00    -0.002 A 
HETATM    8  C21 UNL     1      27.829   4.650  48.585  1.00  0.00     0.042 A 
HETATM    9  H19 UNL     1      29.133   9.110  47.784  1.00  0.00     0.161 HD
ENDROOT
BRANCH   1  10
HETATM   10  N3  UNL     1      25.495   4.157  49.658  1.00  0.00    -0.308 N 
HETATM   11  C1  UNL     1      25.654   3.128  50.620  1.00  0.00     0.320 C 
HETATM   12  O1  UNL     1      26.779   2.874  51.099  1.00  0.00    -0.247 OA
HETATM   13  N1  UNL     1      24.618   2.318  51.117  1.00  0.00    -0.341 N 
HETATM   14  H1  UNL     1      23.632   2.479  50.752  1.00  0.00     0.164 HD
HETATM   15  H16 UNL     1      24.510   4.247  49.360  1.00  0.00     0.170 HD
BRANCH  13  16
HETATM   16  C2  UNL     1      24.963   1.295  52.114  1.00  0.00     0.154 C 
BRANCH  16  17
HETATM   17  C3  UNL     1      23.740   1.118  52.984  1.00  0.00     0.292 C 
BRANCH  17  18
HETATM   18  N2  UNL     1      23.137  -0.188  52.868  1.00  0.00     0.090 N 
HETATM   19  C4  UNL     1      21.799  -0.141  52.361  1.00  0.00     0.272 C 
HETATM   20  C5  UNL     1      20.841   0.631  53.219  1.00  0.00     0.030 C 
HETATM   21  C6  UNL     1      20.990   0.206  54.662  1.00  0.00     0.003 C 
HETATM   22  C7  UNL     1      21.825  -1.033  54.766  1.00  0.00     0.030 C 
HETATM   23  C8  UNL     1      23.197  -0.787  54.196  1.00  0.00     0.272 C 
ENDBRANCH  17  18
ENDBRANCH  16  17
ENDBRANCH  13  16
ENDBRANCH   1  10
BRANCH   6  24
HETATM   24  N5  UNL     1      30.360   6.705  48.599  1.00  0.00    -0.365 N 
HETATM   25  H21 UNL     1      30.475   7.294  49.479  1.00  0.00     0.162 HD
BRANCH  24  26
HETATM   26  C14 UNL     1      31.469   5.885  48.310  1.00  0.00     0.031 A 
HETATM   27  C15 UNL     1      31.399   4.726  47.564  1.00  0.00     0.032 A 
HETATM   28  C16 UNL     1      32.501   3.961  47.295  1.00  0.00     0.046 A 
HETATM   29  C17 UNL     1      33.750   4.304  47.754  1.00  0.00     0.138 A 
HETATM   30  F1  UNL     1      34.778   3.493  47.442  1.00  0.00    -0.204 F 
HETATM   31  C18 UNL     1      33.850   5.452  48.499  1.00  0.00     0.074 A 
HETATM   32 CL1  UNL     1      35.457   5.868  49.074  1.00  0.00    -0.081 Cl
HETATM   33  C19 UNL     1      32.723   6.218  48.763  1.00  0.00     0.056 A 
ENDBRANCH  24  26
ENDBRANCH   6  24
TORSDOF 6
ENDMDL
MODEL 3
REMARK VINA RESULT:      -8.6      5.578      7.936
REMARK  6 active torsions:
REMARK  status: ('A' for Active; 'I' for Inactive)
REMARK       I    between atoms: C1_2  and  N1_3 
REMARK       I    between atoms: C1_2  and  N3_12 
REMARK    1  A    between atoms: N1_3  and  C2_4 
REMARK    2  A    between atoms: C2_4  and  C3_5 
REMARK    3  A    between atoms: C3_5  and  N2_6 
REMARK    4  A    between atoms: N3_12  and  C9_13 
REMARK    5  A    between atoms: C13_18  and  N5_19 
REMARK    6  A    between atoms: N5_19  and  C14_20 
ROOT
HETATM    1  C9  UNL     1      23.699   3.961  52.768  1.00  0.00     0.048 A 
HETATM    2  C10 UNL     1      22.937   2.920  52.535  1.00  0.00     0.002 A 
HETATM    3  C11 UNL     1      21.736   2.231  52.086  1.00  0.00     0.031 A 
HETATM    4  C12 UNL     1      21.667   0.899  52.167  1.00  0.00     0.086 A 
HETATM    5  N4  UNL     1      22.712   0.055  52.676  1.00  0.00    -0.374 N 
HETATM    6  C13 UNL     1      23.973   0.561  53.167  1.00  0.00     0.216 A 
HETATM    7  C20 UNL     1      23.971   2.029  53.044  1.00  0.00    -0.002 A 
HETATM    8  C21 UNL     1      24.743   3.095  53.279  1.00  0.00     0.042 A 
HETATM    9  H19 UNL     1      22.374  -0.928  52.611  1.00  0.00     0.161 HD
ENDROOT
BRANCH   1  10
HETATM   10  N3  UNL     1      23.637   5.372  52.623  1.00  0.00    -0.308 N 
HETATM   11  C1  UNL     1      24.020   6.100  51.468  1.00  0.00     0.320 C 
HETATM   12  O1  UNL     1      24.458   5.507  50.460  1.00  0.00    -0.247 OA
HETATM   13  N1  UNL     1      23.956   7.497  51.334  1.00  0.00    -0.341 N 
HETATM   14  H1  UNL     1      23.593   8.067  52.156  1.00  0.00     0.164 HD
HETATM   15  H16 UNL     1      23.295   5.999  53.369  1.00  0.00     0.170 HD
BRANCH  13  16
HETATM   16  C2  UNL     1      24.397   8.087  50.063  1.00  0.00     0.154 C 
BRANCH  16  17
HETATM   17  C3  UNL     1      25.726   8.752  50.339  1.00  0.00     0.292 C 
BRANCH  17  18
HETATM   18  N2  UNL     1      26.831   8.134  49.647  1.00  0.00     0.090 N 
HETATM   19  C4  UNL     1      27.919   9.036  49.417  1.00  0.00     0.272 C 
HETATM   20  C5  UNL     1      27.570  10.221  48.567  1.00  0.00     0.030 C 
HETATM   21  C6  UNL     1      26.815   9.765  47.339  1.00  0.00     0.003 C 
HETATM   22  C7  UNL     1      26.889   8.276  47.194  1.00  0.00     0.030 C 
HETATM   23  C8  UNL     1      26.289   7.604  48.401  1.00  0.00     0.272 C 
ENDBRANCH  17  18
ENDBRANCH  16  17
ENDBRANCH  13  16
ENDBRANCH   1  10
BRANCH   6  24
HETATM   24  N5  UNL     1      25.044  -0.037  52.425  1.00  0.00    -0.365 N 
HETATM   25  H21 UNL     1      24.826  -0.297  51.415  1.00  0.00     0.162 HD
BRANCH  24  26
HETATM   26  C14 UNL     1      26.360  -0.342  52.824  1.00  0.00     0.031 A 
HETATM   27  C15 UNL     1      26.946  -1.583  52.670  1.00  0.00     0.032 A 
HETATM   28  C16 UNL     1      28.232  -1.838  53.061  1.00  0.00     0.046 A 
HETATM   29  C17 UNL     1      29.021  -0.870  53.633  1.00  0.00     0.138 A 
HETATM   30  F1  UNL     1      30.275  -1.209  53.987  1.00  0.00    -0.204 F 
HETATM   31  C18 UNL     1      28.465   0.374  53.799  1.00  0.00     0.074 A 
HETATM   32 CL1  UNL     1      29.494   1.594  54.532  1.00  0.00    -0.081 Cl
HETATM   33  C19 UNL     1      27.159   0.618  53.397  1.00  0.00     0.056 A 
ENDBRANCH  24  26
ENDBRANCH   6  24
TORSDOF 6
ENDMDL
MODEL 4
REMARK VINA RESULT:      -8.5      6.624     10.370
REMARK  6 active torsions:
REMARK  status: ('A' for Active; 'I' for Inactive)
REMARK       I    between atoms: C1_2  and  N1_3 
REMARK       I    between atoms: C1_2  and  N3_12 
REMARK    1  A    between atoms: N1_3  and  C2_4 
REMARK    2  A    between atoms: C2_4  and  C3_5 
REMARK    3  A    between atoms: C3_5  and  N2_6 
REMARK    4  A    between atoms: N3_12  and  C9_13 
REMARK    5  A    between atoms: C13_18  and  N5_19 
REMARK    6  A    between atoms: N5_19  and  C14_20 
ROOT
HETATM    1  C9  UNL     1      23.437   5.788  51.920  1.00  0.00     0.048 A 
HETATM    2  C10 UNL     1      22.275   5.565  51.358  1.00  0.00     0.002 A 
HETATM    3  C11 UNL     1      21.182   5.816  50.430  1.00  0.00     0.031 A 
HETATM    4  C12 UNL     1      20.115   5.010  50.429  1.00  0.00     0.086 A 
HETATM    5  N4  UNL     1      19.946   3.876  51.294  1.00  0.00    -0.374 N 
HETATM    6  C13 UNL     1      20.925   3.475  52.278  1.00  0.00     0.216 A 
HETATM    7  C20 UNL     1      22.063   4.406  52.217  1.00  0.00    -0.002 A 
HETATM    8  C21 UNL     1      23.250   4.640  52.786  1.00  0.00     0.042 A 
HETATM    9  H19 UNL     1      19.027   3.445  51.062  1.00  0.00     0.161 HD
ENDROOT
BRANCH   1  10
HETATM   10  N3  UNL     1      24.505   6.718  51.811  1.00  0.00    -0.308 N 
HETATM   11  C1  UNL     1      25.264   6.968  50.641  1.00  0.00     0.320 C 
HETATM   12  O1  UNL     1      25.023   6.349  49.583  1.00  0.00    -0.247 OA
HETATM   13  N1  UNL     1      26.320   7.890  50.543  1.00  0.00    -0.341 N 
HETATM   14  H1  UNL     1      26.581   8.452  51.408  1.00  0.00     0.164 HD
HETATM   15  H16 UNL     1      24.821   7.305  52.600  1.00  0.00     0.170 HD
BRANCH  13  16
HETATM   16  C2  UNL     1      27.002   8.021  49.248  1.00  0.00     0.154 C 
BRANCH  16  17
HETATM   17  C3  UNL     1      28.089   9.054  49.440  1.00  0.00     0.292 C 
BRANCH  17  18
HETATM   18  N2  UNL     1      28.856   9.308  48.244  1.00  0.00     0.090 N 
HETATM   19  C4  UNL     1      29.552   8.149  47.772  1.00  0.00     0.272 C 
HETATM   20  C5  UNL     1      30.555   7.594  48.740  1.00  0.00     0.030 C 
HETATM   21  C6  UNL     1      31.416   8.712  49.282  1.00  0.00     0.003 C 
HETATM   22  C7  UNL     1      31.209   9.969  48.495  1.00  0.00     0.030 C 
HETATM   23  C8  UNL     1      29.768  10.399  48.567  1.00  0.00     0.272 C 
ENDBRANCH  17  18
ENDBRANCH  16  17
ENDBRANCH  13  16
ENDBRANCH   1  10
BRANCH   6  24
HETATM   24  N5  UNL     1      21.325   2.122  52.023  1.00  0.00    -0.365 N 
HETATM   25  H21 UNL     1      21.303   1.811  51.005  1.00  0.00     0.162 HD
BRANCH  24  26
HETATM   26  C14 UNL     1      21.750   1.121  52.918  1.00  0.00     0.031 A 
HETATM   27  C15 UNL     1      20.918   0.485  53.818  1.00  0.00     0.032 A 
HETATM   28  C16 UNL     1      21.366  -0.491  54.666  1.00  0.00     0.046 A 
HETATM   29  C17 UNL     1      22.678  -0.899  54.671  1.00  0.00     0.138 A 
HETATM   30  F1  UNL     1      23.031  -1.866  55.539  1.00  0.00    -0.204 F 
HETATM   31  C18 UNL     1      23.529  -0.285  53.787  1.00  0.00     0.074 A 
HETATM   32 CL1  UNL     1      25.200  -0.825  53.814  1.00  0.00    -0.081 Cl
HETATM   33  C19 UNL     1      23.059   0.704  52.933  1.00  0.00     0.056 A 
ENDBRANCH  24  26
ENDBRANCH   6  24
TORSDOF 6
ENDMDL
MODEL 5
REMARK VINA RESULT:      -8.4      6.385      9.603
REMARK  6 active torsions:
REMARK  status: ('A' for Active; 'I' for Inactive)
REMARK       I    between atoms: C1_2  and  N1_3 
REMARK       I    between atoms: C1_2  and  N3_12 
REMARK    1  A    between atoms: N1_3  and  C2_4 
REMARK    2  A    between atoms: C2_4  and  C3_5 
REMARK    3  A    between atoms: C3_5  and  N2_6 
REMARK    4  A    between atoms: N3_12  and  C9_13 
REMARK    5  A    between atoms: C13_18  and  N5_19 
REMARK    6  A    between atoms: N5_19  and  C14_20 
ROOT
HETATM    1  C9  UNL     1      23.985   5.591  51.801  1.00  0.00     0.048 A 
HETATM    2  C10 UNL     1      23.853   4.535  51.035  1.00  0.00     0.002 A 
HETATM    3  C11 UNL     1      23.949   3.775  49.798  1.00  0.00     0.031 A 
HETATM    4  C12 UNL     1      23.542   2.502  49.769  1.00  0.00     0.086 A 
HETATM    5  N4  UNL     1      22.999   1.791  50.892  1.00  0.00    -0.374 N 
HETATM    6  C13 UNL     1      22.828   2.383  52.199  1.00  0.00     0.216 A 
HETATM    7  C20 UNL     1      23.296   3.778  52.150  1.00  0.00    -0.002 A 
HETATM    8  C21 UNL     1      23.435   4.858  52.924  1.00  0.00     0.042 A 
HETATM    9  H19 UNL     1      22.778   0.826  50.569  1.00  0.00     0.161 HD
ENDROOT
BRANCH   1  10
HETATM   10  N3  UNL     1      24.454   6.926  51.689  1.00  0.00    -0.308 N 
HETATM   11  C1  UNL     1      25.219   7.445  50.615  1.00  0.00     0.320 C 
HETATM   12  O1  UNL     1      25.541   6.715  49.654  1.00  0.00    -0.247 OA
HETATM   13  N1  UNL     1      25.680   8.769  50.514  1.00  0.00    -0.341 N 
HETATM   14  H1  UNL     1      25.443   9.447  51.298  1.00  0.00     0.164 HD
HETATM   15  H16 UNL     1      24.268   7.649  52.404  1.00  0.00     0.170 HD
BRANCH  13  16
HETATM   16  C2  UNL     1      26.464   9.136  49.327  1.00  0.00     0.154 C 
BRANCH  16  17
HETATM   17  C3  UNL     1      27.904   9.224  49.777  1.00  0.00     0.292 C 
BRANCH  17  18
HETATM   18  N2  UNL     1      28.806   9.650  48.733  1.00  0.00     0.090 N 
HETATM   19  C4  UNL     1      28.905   8.706  47.662  1.00  0.00     0.272 C 
HETATM   20  C5  UNL     1      29.426   7.360  48.071  1.00  0.00     0.030 C 
HETATM   21  C6  UNL     1      30.662   7.528  48.924  1.00  0.00     0.003 C 
HETATM   22  C7  UNL     1      31.155   8.941  48.870  1.00  0.00     0.030 C 
HETATM   23  C8  UNL     1      30.095   9.883  49.376  1.00  0.00     0.272 C 
ENDBRANCH  17  18
ENDBRANCH  16  17
ENDBRANCH  13  16
ENDBRANCH   1  10
BRANCH   6  24
HETATM   24  N5  UNL     1      23.548   1.609  53.167  1.00  0.00    -0.365 N 
HETATM   25  H21 UNL     1      23.020   1.364  54.059  1.00  0.00     0.162 HD
BRANCH  24  26
HETATM   26  C14 UNL     1      24.866   1.113  53.128  1.00  0.00     0.031 A 
HETATM   27  C15 UNL     1      25.190  -0.200  52.854  1.00  0.00     0.032 A 
HETATM   28  C16 UNL     1      26.484  -0.643  52.815  1.00  0.00     0.046 A 
HETATM   29  C17 UNL     1      27.545   0.199  53.048  1.00  0.00     0.138 A 
HETATM   30  F1  UNL     1      28.785  -0.321  52.990  1.00  0.00    -0.204 F 
HETATM   31  C18 UNL     1      27.253   1.512  53.325  1.00  0.00     0.074 A 
HETATM   32 CL1  UNL     1      28.626   2.567  53.619  1.00  0.00    -0.081 Cl
HETATM   33  C19 UNL     1      25.935   1.946  53.360  1.00  0.00     0.056 A 
ENDBRANCH  24  26
ENDBRANCH   6  24
TORSDOF 6
ENDMDL
MODEL 6
REMARK VINA RESULT:      -8.3      6.511     10.210
REMARK  6 active torsions:
REMARK  status: ('A' for Active; 'I' for Inactive)
REMARK       I    between atoms: C1_2  and  N1_3 
REMARK       I    between atoms: C1_2  and  N3_12 
REMARK    1  A    between atoms: N1_3  and  C2_4 
REMARK    2  A    between atoms: C2_4  and  C3_5 
REMARK    3  A    between atoms: C3_5  and  N2_6 
REMARK    4  A    between atoms: N3_12  and  C9_13 
REMARK    5  A    between atoms: C13_18  and  N5_19 
REMARK    6  A    between atoms: N5_19  and  C14_20 
ROOT
HETATM    1  C9  UNL     1      24.043   5.767  51.059  1.00  0.00     0.048 A 
HETATM    2  C10 UNL     1      23.779   4.759  50.265  1.00  0.00     0.002 A 
HETATM    3  C11 UNL     1      24.052   3.801  49.204  1.00  0.00     0.031 A 
HETATM    4  C12 UNL     1      23.131   2.886  48.884  1.00  0.00     0.086 A 
HETATM    5  N4  UNL     1      21.849   2.759  49.519  1.00  0.00    -0.374 N 
HETATM    6  C13 UNL     1      21.404   3.621  50.589  1.00  0.00     0.216 A 
HETATM    7  C20 UNL     1      22.468   4.597  50.881  1.00  0.00    -0.002 A 
HETATM    8  C21 UNL     1      22.745   5.626  51.688  1.00  0.00     0.042 A 
HETATM    9  H19 UNL     1      21.357   1.962  49.063  1.00  0.00     0.161 HD
ENDROOT
BRANCH   1  10
HETATM   10  N3  UNL     1      25.106   6.679  51.295  1.00  0.00    -0.308 N 
HETATM   11  C1  UNL     1      25.709   7.512  50.320  1.00  0.00     0.320 C 
HETATM   12  O1  UNL     1      25.315   7.491  49.134  1.00  0.00    -0.247 OA
HETATM   13  N1  UNL     1      26.762   8.411  50.562  1.00  0.00    -0.341 N 
HETATM   14  H1  UNL     1      27.148   8.481  51.551  1.00  0.00     0.164 HD
HETATM   15  H16 UNL     1      25.538   6.811  52.224  1.00  0.00     0.170 HD
BRANCH  13  16
HETATM   16  C2  UNL     1      27.268   9.200  49.431  1.00  0.00     0.154 C 
BRANCH  16  17
HETATM   17  C3  UNL     1      28.695   8.756  49.205  1.00  0.00     0.292 C 
BRANCH  17  18
HETATM   18  N2  UNL     1      28.973   8.394  47.835  1.00  0.00     0.090 N 
HETATM   19  C4  UNL     1      28.243   7.240  47.405  1.00  0.00     0.272 C 
HETATM   20  C5  UNL     1      28.543   5.994  48.183  1.00  0.00     0.030 C 
HETATM   21  C6  UNL     1      30.040   5.822  48.315  1.00  0.00     0.003 C 
HETATM   22  C7  UNL     1      30.764   6.767  47.407  1.00  0.00     0.030 C 
HETATM   23  C8  UNL     1      30.415   8.191  47.750  1.00  0.00     0.272 C 
ENDBRANCH  17  18
ENDBRANCH  16  17
ENDBRANCH  13  16
ENDBRANCH   1  10
BRANCH   6  24
HETATM   24  N5  UNL     1      21.078   2.824  51.735  1.00  0.00    -0.365 N 
HETATM   25  H21 UNL     1      20.127   3.007  52.178  1.00  0.00     0.162 HD
BRANCH  24  26
HETATM   26  C14 UNL     1      21.826   1.820  52.380  1.00  0.00     0.031 A 
HETATM   27  C15 UNL     1      23.203   1.830  52.487  1.00  0.00     0.032 A 
HETATM   28  C16 UNL     1      23.895   0.841  53.131  1.00  0.00     0.046 A 
HETATM   29  C17 UNL     1      23.256  -0.227  53.714  1.00  0.00     0.138 A 
HETATM   30  F1  UNL     1      24.016  -1.154  54.327  1.00  0.00    -0.204 F 
HETATM   31  C18 UNL     1      21.887  -0.264  53.624  1.00  0.00     0.074 A 
HETATM   32 CL1  UNL     1      21.096  -1.640  54.377  1.00  0.00    -0.081 Cl
HETATM   33  C19 UNL     1      21.200   0.747  52.967  1.00  0.00     0.056 A 
ENDBRANCH  24  26
ENDBRANCH   6  24
TORSDOF 6
ENDMDL
MODEL 7
REMARK VINA RESULT:      -8.3      6.226      9.353
REMARK  6 active torsions:
REMARK  status: ('A' for Active; 'I' for Inactive)
REMARK       I    between atoms: C1_2  and  N1_3 
REMARK       I    between atoms: C1_2  and  N3_12 
REMARK    1  A    between atoms: N1_3  and  C2_4 
REMARK    2  A    between atoms: C2_4  and  C3_5 
REMARK    3  A    between atoms: C3_5  and  N2_6 
REMARK    4  A    between atoms: N3_12  and  C9_13 
REMARK    5  A    between atoms: C13_18  and  N5_19 
REMARK    6  A    between atoms: N5_19  and  C14_20 
ROOT
HETATM    1  C9  UNL     1      23.533   3.157  52.710  1.00  0.00     0.048 A 
HETATM    2  C10 UNL     1      23.894   1.924  52.969  1.00  0.00     0.002 A 
HETATM    3  C11 UNL     1      24.808   0.871  53.387  1.00  0.00     0.031 A 
HETATM    4  C12 UNL     1      24.393  -0.400  53.400  1.00  0.00     0.086 A 
HETATM    5  N4  UNL     1      23.076  -0.833  53.026  1.00  0.00    -0.374 N 
HETATM    6  C13 UNL     1      22.038   0.069  52.584  1.00  0.00     0.216 A 
HETATM    7  C20 UNL     1      22.570   1.442  52.597  1.00  0.00    -0.002 A 
HETATM    8  C21 UNL     1      22.209   2.702  52.335  1.00  0.00     0.042 A 
HETATM    9  H19 UNL     1      23.048  -1.868  53.141  1.00  0.00     0.161 HD
ENDROOT
BRANCH   1  10
HETATM   10  N3  UNL     1      24.104   4.457  52.745  1.00  0.00    -0.308 N 
HETATM   11  C1  UNL     1      23.818   5.509  51.840  1.00  0.00     0.320 C 
HETATM   12  O1  UNL     1      23.001   5.341  50.909  1.00  0.00    -0.247 OA
HETATM   13  N1  UNL     1      24.389   6.792  51.883  1.00  0.00    -0.341 N 
HETATM   14  H1  UNL     1      25.095   7.005  52.649  1.00  0.00     0.164 HD
HETATM   15  H16 UNL     1      24.795   4.748  53.456  1.00  0.00     0.170 HD
BRANCH  13  16
HETATM   16  C2  UNL     1      23.977   7.764  50.860  1.00  0.00     0.154 C 
BRANCH  16  17
HETATM   17  C3  UNL     1      25.229   8.146  50.105  1.00  0.00     0.292 C 
BRANCH  17  18
HETATM   18  N2  UNL     1      25.152   7.869  48.690  1.00  0.00     0.090 N 
HETATM   19  C4  UNL     1      25.163   6.468  48.396  1.00  0.00     0.272 C 
HETATM   20  C5  UNL     1      26.403   5.753  48.844  1.00  0.00     0.030 C 
HETATM   21  C6  UNL     1      27.626   6.531  48.415  1.00  0.00     0.003 C 
HETATM   22  C7  UNL     1      27.254   7.609  47.445  1.00  0.00     0.030 C 
HETATM   23  C8  UNL     1      26.276   8.565  48.075  1.00  0.00     0.272 C 
ENDBRANCH  17  18
ENDBRANCH  16  17
ENDBRANCH  13  16
ENDBRANCH   1  10
BRANCH   6  24
HETATM   24  N5  UNL     1      20.895  -0.070  53.438  1.00  0.00    -0.365 N 
HETATM   25  H21 UNL     1      21.010   0.281  54.437  1.00  0.00     0.162 HD
BRANCH  24  26
HETATM   26  C14 UNL     1      19.622  -0.607  53.164  1.00  0.00     0.031 A 
HETATM   27  C15 UNL     1      19.082  -1.693  53.824  1.00  0.00     0.032 A 
HETATM   28  C16 UNL     1      17.836  -2.180  53.537  1.00  0.00     0.046 A 
HETATM   29  C17 UNL     1      17.043  -1.613  52.569  1.00  0.00     0.138 A 
HETATM   30  F1  UNL     1      15.831  -2.156  52.352  1.00  0.00    -0.204 F 
HETATM   31  C18 UNL     1      17.553  -0.531  51.895  1.00  0.00     0.074 A 
HETATM   32 CL1  UNL     1      16.519   0.175  50.663  1.00  0.00    -0.081 Cl
HETATM   33  C19 UNL     1      18.819  -0.049  52.198  1.00  0.00     0.056 A 
ENDBRANCH  24  26
ENDBRANCH   6  24
TORSDOF 6
ENDMDL
MODEL 8
REMARK VINA RESULT:      -8.2      5.551      7.785
REMARK  6 active torsions:
REMARK  status: ('A' for Active; 'I' for Inactive)
REMARK       I    between atoms: C1_2  and  N1_3 
REMARK       I    between atoms: C1_2  and  N3_12 
REMARK    1  A    between atoms: N1_3  and  C2_4 
REMARK    2  A    between atoms: C2_4  and  C3_5 
REMARK    3  A    between atoms: C3_5  and  N2_6 
REMARK    4  A    between atoms: N3_12  and  C9_13 
REMARK    5  A    between atoms: C13_18  and  N5_19 
REMARK    6  A    between atoms: N5_19  and  C14_20 
ROOT
HETATM    1  C9  UNL     1      26.560   2.301  51.546  1.00  0.00     0.048 A 
HETATM    2  C10 UNL     1      27.106   1.390  52.314  1.00  0.00     0.002 A 
HETATM    3  C11 UNL     1      28.182   0.766  53.071  1.00  0.00     0.031 A 
HETATM    4  C12 UNL     1      27.952  -0.373  53.733  1.00  0.00     0.086 A 
HETATM    5  N4  UNL     1      26.692  -1.060  53.765  1.00  0.00    -0.374 N 
HETATM    6  C13 UNL     1      25.513  -0.591  53.072  1.00  0.00     0.216 A 
HETATM    7  C20 UNL     1      25.846   0.660  52.372  1.00  0.00    -0.002 A 
HETATM    8  C21 UNL     1      25.296   1.594  51.589  1.00  0.00     0.042 A 
HETATM    9  H19 UNL     1      26.817  -1.907  54.358  1.00  0.00     0.161 HD
ENDROOT
BRANCH   1  10
HETATM   10  N3  UNL     1      26.943   3.504  50.896  1.00  0.00    -0.308 N 
HETATM   11  C1  UNL     1      26.125   4.266  50.025  1.00  0.00     0.320 C 
HETATM   12  O1  UNL     1      24.957   3.902  49.768  1.00  0.00    -0.247 OA
HETATM   13  N1  UNL     1      26.512   5.456  49.385  1.00  0.00    -0.341 N 
HETATM   14  H1  UNL     1      27.495   5.825  49.558  1.00  0.00     0.164 HD
HETATM   15  H16 UNL     1      27.875   3.932  51.010  1.00  0.00     0.170 HD
BRANCH  13  16
HETATM   16  C2  UNL     1      25.533   6.118  48.512  1.00  0.00     0.154 C 
BRANCH  16  17
HETATM   17  C3  UNL     1      24.974   7.280  49.302  1.00  0.00     0.292 C 
BRANCH  17  18
HETATM   18  N2  UNL     1      23.756   7.819  48.745  1.00  0.00     0.090 N 
HETATM   19  C4  UNL     1      22.842   8.278  49.745  1.00  0.00     0.272 C 
HETATM   20  C5  UNL     1      22.373   7.212  50.690  1.00  0.00     0.030 C 
HETATM   21  C6  UNL     1      21.945   5.989  49.910  1.00  0.00     0.003 C 
HETATM   22  C7  UNL     1      21.846   6.301  48.449  1.00  0.00     0.030 C 
HETATM   23  C8  UNL     1      23.180   6.761  47.922  1.00  0.00     0.272 C 
ENDBRANCH  17  18
ENDBRANCH  16  17
ENDBRANCH  13  16
ENDBRANCH   1  10
BRANCH   6  24
HETATM   24  N5  UNL     1      24.450  -0.411  54.017  1.00  0.00    -0.365 N 
HETATM   25  H21 UNL     1      24.738  -0.086  54.990  1.00  0.00     0.162 HD
BRANCH  24  26
HETATM   26  C14 UNL     1      23.063  -0.598  53.863  1.00  0.00     0.031 A 
HETATM   27  C15 UNL     1      22.277  -1.315  54.743  1.00  0.00     0.032 A 
HETATM   28  C16 UNL     1      20.929  -1.466  54.565  1.00  0.00     0.046 A 
HETATM   29  C17 UNL     1      20.273  -0.910  53.493  1.00  0.00     0.138 A 
HETATM   30  F1  UNL     1      18.945  -1.109  53.397  1.00  0.00    -0.204 F 
HETATM   31  C18 UNL     1      21.029  -0.191  52.601  1.00  0.00     0.074 A 
HETATM   32 CL1  UNL     1      20.166   0.510  51.241  1.00  0.00    -0.081 Cl
HETATM   33  C19 UNL     1      22.396  -0.046  52.796  1.00  0.00     0.056 A 
ENDBRANCH  24  26
ENDBRANCH   6  24
TORSDOF 6
ENDMDL
MODEL 9
REMARK VINA RESULT:      -8.1      6.662     11.699
REMARK  6 active torsions:
REMARK  status: ('A' for Active; 'I' for Inactive)
REMARK       I    between atoms: C1_2  and  N1_3 
REMARK       I    between atoms: C1_2  and  N3_12 
REMARK    1  A    between atoms: N1_3  and  C2_4 
REMARK    2  A    between atoms: C2_4  and  C3_5 
REMARK    3  A    between atoms: C3_5  and  N2_6 
REMARK    4  A    between atoms: N3_12  and  C9_13 
REMARK    5  A    between atoms: C13_18  and  N5_19 
REMARK    6  A    between atoms: N5_19  and  C14_20 
ROOT
HETATM    1  C9  UNL     1      25.278   5.164  49.680  1.00  0.00     0.048 A 
HETATM    2  C10 UNL     1      24.130   4.931  49.092  1.00  0.00     0.002 A 
HETATM    3  C11 UNL     1      23.128   5.059  48.044  1.00  0.00     0.031 A 
HETATM    4  C12 UNL     1      21.974   4.391  48.146  1.00  0.00     0.086 A 
HETATM    5  N4  UNL     1      21.623   3.526  49.237  1.00  0.00    -0.374 N 
HETATM    6  C13 UNL     1      22.491   3.278  50.365  1.00  0.00     0.216 A 
HETATM    7  C20 UNL     1      23.735   4.045  50.180  1.00  0.00    -0.002 A 
HETATM    8  C21 UNL     1      24.908   4.287  50.773  1.00  0.00     0.042 A 
HETATM    9  H19 UNL     1      20.673   3.148  49.038  1.00  0.00     0.161 HD
ENDROOT
BRANCH   1  10
HETATM   10  N3  UNL     1      26.453   5.925  49.443  1.00  0.00    -0.308 N 
HETATM   11  C1  UNL     1      27.657   5.430  48.881  1.00  0.00     0.320 C 
HETATM   12  O1  UNL     1      27.755   4.231  48.544  1.00  0.00    -0.247 OA
HETATM   13  N1  UNL     1      28.815   6.191  48.651  1.00  0.00    -0.341 N 
HETATM   14  H1  UNL     1      28.804   7.221  48.914  1.00  0.00     0.164 HD
HETATM   15  H16 UNL     1      26.527   6.930  49.667  1.00  0.00     0.170 HD
BRANCH  13  16
HETATM   16  C2  UNL     1      29.977   5.513  48.059  1.00  0.00     0.154 C 
BRANCH  16  17
HETATM   17  C3  UNL     1      31.185   6.354  48.407  1.00  0.00     0.292 C 
BRANCH  17  18
HETATM   18  N2  UNL     1      32.333   5.573  48.801  1.00  0.00     0.090 N 
HETATM   19  C4  UNL     1      33.562   6.301  48.702  1.00  0.00     0.272 C 
HETATM   20  C5  UNL     1      33.893   6.768  47.316  1.00  0.00     0.030 C 
HETATM   21  C6  UNL     1      33.714   5.631  46.336  1.00  0.00     0.003 C 
HETATM   22  C7  UNL     1      33.542   4.331  47.059  1.00  0.00     0.030 C 
HETATM   23  C8  UNL     1      32.331   4.386  47.952  1.00  0.00     0.272 C 
ENDBRANCH  17  18
ENDBRANCH  16  17
ENDBRANCH  13  16
ENDBRANCH   1  10
BRANCH   6  24
HETATM   24  N5  UNL     1      22.740   1.871  50.470  1.00  0.00    -0.365 N 
HETATM   25  H21 UNL     1      22.766   1.329  49.553  1.00  0.00     0.162 HD
BRANCH  24  26
HETATM   26  C14 UNL     1      22.959   1.074  51.611  1.00  0.00     0.031 A 
HETATM   27  C15 UNL     1      24.179   0.955  52.249  1.00  0.00     0.032 A 
HETATM   28  C16 UNL     1      24.350   0.179  53.362  1.00  0.00     0.046 A 
HETATM   29  C17 UNL     1      23.313  -0.533  53.915  1.00  0.00     0.138 A 
HETATM   30  F1  UNL     1      23.572  -1.271  55.010  1.00  0.00    -0.204 F 
HETATM   31  C18 UNL     1      22.089  -0.435  53.303  1.00  0.00     0.074 A 
HETATM   32 CL1  UNL     1      20.781  -1.354  54.030  1.00  0.00    -0.081 Cl
HETATM   33  C19 UNL     1      21.930   0.358  52.174  1.00  0.00     0.056 A 
ENDBRANCH  24  26
ENDBRANCH   6  24
TORSDOF 6
ENDMDL
