MODEL 1
REMARK VINA RESULT:      -8.2      0.000      0.000
REMARK  5 active torsions:
REMARK  status: ('A' for Active; 'I' for Inactive)
REMARK    1  A    between atoms: C1_2  and  C2_3 
REMARK    2  A    between atoms: C2_3  and  C3_4 
REMARK    3  A    between atoms: C4_6  and  C5_7 
REMARK    4  A    between atoms: C5_7  and  C6_8 
REMARK    5  A    between atoms: C8_11  and  N2_12 
ROOT
HETATM    1  C6  UNL     1      23.772   0.381  52.636  1.00  0.00     0.319 C 
HETATM    2  N1  UNL     1      23.728   1.681  53.166  1.00  0.00     0.112 N 
HETATM    3  C7  UNL     1      24.913   2.538  53.158  1.00  0.00     0.331 C 
HETATM    4  C8  UNL     1      25.168   2.833  51.783  1.00  0.00     0.067 C 
HETATM    5  C14 UNL     1      26.240   2.416  51.125  1.00  0.00     0.112 C 
HETATM    6  N3  UNL     1      26.793   1.488  51.835  1.00  0.00    -0.245 NA
HETATM    7  C15 UNL     1      27.576   1.918  52.937  1.00  0.00     0.181 C 
HETATM    8  N4  UNL     1      27.819   1.055  53.973  1.00  0.00    -0.251 NA
HETATM    9  C16 UNL     1      27.146  -0.233  53.704  1.00  0.00     0.067 A 
HETATM   10  C17 UNL     1      27.355  -0.640  52.433  1.00  0.00    -0.015 A 
HETATM   11  C18 UNL     1      26.062  -0.954  52.796  1.00  0.00     0.069 A 
HETATM   12  C19 UNL     1      25.710  -0.601  54.060  1.00  0.00     0.069 A 
HETATM   13  C20 UNL     1      25.590  -0.161  55.343  1.00  0.00     0.002 A 
HETATM   14  C21 UNL     1      26.916   0.175  54.996  1.00  0.00     0.123 A 
HETATM   15  N5  UNL     1      24.337  -0.608  53.595  1.00  0.00    -0.379 N 
HETATM   16  H9  UNL     1      22.942   2.173  52.683  1.00  0.00     0.319 HD
HETATM   17  H27 UNL     1      23.785  -1.404  54.012  1.00  0.00     0.156 HD
ENDROOT
BRANCH   1  18
HETATM   18  C5  UNL     1      22.330  -0.134  52.494  1.00  0.00     0.085 C 
BRANCH  18  19
HETATM   19  C4  UNL     1      21.669   0.252  51.262  1.00  0.00    -0.003 C 
HETATM   20  C3  UNL     1      20.390   0.672  51.246  1.00  0.00     0.010 C 
HETATM   21 CL1  UNL     1      19.568   1.153  49.760  1.00  0.00    -0.089 Cl
BRANCH  20  22
HETATM   22  C2  UNL     1      19.410   0.843  52.318  1.00  0.00     0.082 C 
BRANCH  22  23
HETATM   23  C1  UNL     1      18.595  -0.435  52.546  1.00  0.00     0.227 C 
HETATM   24  F1  UNL     1      19.227  -1.316  53.368  1.00  0.00    -0.255 F 
ENDBRANCH  22  23
ENDBRANCH  20  22
ENDBRANCH  18  19
ENDBRANCH   1  18
BRANCH   4  25
HETATM   25  N2  UNL     1      24.320   3.592  50.947  1.00  0.00    -0.381 N 
HETATM   26  C9  UNL     1      23.426   4.616  51.363  1.00  0.00     0.123 C 
HETATM   27  C10 UNL     1      22.052   4.500  50.702  1.00  0.00     0.020 C 
HETATM   28  C11 UNL     1      22.158   4.263  49.211  1.00  0.00     0.003 C 
HETATM   29  C12 UNL     1      22.958   2.981  49.016  1.00  0.00     0.020 C 
HETATM   30  C13 UNL     1      24.377   3.281  49.520  1.00  0.00     0.123 C 
ENDBRANCH   4  25
TORSDOF 5
ENDMDL
MODEL 2
REMARK VINA RESULT:      -8.1      3.029      6.488
REMARK  5 active torsions:
REMARK  status: ('A' for Active; 'I' for Inactive)
REMARK    1  A    between atoms: C1_2  and  C2_3 
REMARK    2  A    between atoms: C2_3  and  C3_4 
REMARK    3  A    between atoms: C4_6  and  C5_7 
REMARK    4  A    between atoms: C5_7  and  C6_8 
REMARK    5  A    between atoms: C8_11  and  N2_12 
ROOT
HETATM    1  C6  UNL     1      24.563   2.711  51.731  1.00  0.00     0.319 C 
HETATM    2  N1  UNL     1      23.602   3.022  52.707  1.00  0.00     0.112 N 
HETATM    3  C7  UNL     1      22.228   3.354  52.332  1.00  0.00     0.331 C 
HETATM    4  C8  UNL     1      21.670   2.150  51.800  1.00  0.00     0.067 C 
HETATM    5  C14 UNL     1      21.312   1.998  50.533  1.00  0.00     0.112 C 
HETATM    6  N3  UNL     1      21.836   2.972  49.864  1.00  0.00    -0.245 NA
HETATM    7  C15 UNL     1      21.178   4.226  49.952  1.00  0.00     0.181 C 
HETATM    8  N4  UNL     1      21.868   5.374  49.668  1.00  0.00    -0.251 NA
HETATM    9  C16 UNL     1      23.263   5.033  49.319  1.00  0.00     0.067 A 
HETATM   10  C17 UNL     1      23.313   3.993  48.458  1.00  0.00    -0.015 A 
HETATM   11  C18 UNL     1      24.353   3.880  49.356  1.00  0.00     0.069 A 
HETATM   12  C19 UNL     1      24.428   4.866  50.288  1.00  0.00     0.069 A 
HETATM   13  C20 UNL     1      24.302   5.947  51.107  1.00  0.00     0.002 A 
HETATM   14  C21 UNL     1      23.226   6.083  50.203  1.00  0.00     0.123 A 
HETATM   15  N5  UNL     1      25.161   3.924  51.110  1.00  0.00    -0.379 N 
HETATM   16  H9  UNL     1      23.593   2.223  53.382  1.00  0.00     0.319 HD
HETATM   17  H27 UNL     1      26.174   4.199  51.213  1.00  0.00     0.156 HD
ENDROOT
BRANCH   1  18
HETATM   18  C5  UNL     1      25.788   2.102  52.433  1.00  0.00     0.085 C 
BRANCH  18  19
HETATM   19  C4  UNL     1      26.068   0.724  52.075  1.00  0.00    -0.003 C 
HETATM   20  C3  UNL     1      26.571  -0.151  52.965  1.00  0.00     0.010 C 
HETATM   21 CL1  UNL     1      26.912  -1.833  52.554  1.00  0.00    -0.089 Cl
BRANCH  20  22
HETATM   22  C2  UNL     1      26.939  -0.002  54.374  1.00  0.00     0.082 C 
BRANCH  22  23
HETATM   23  C1  UNL     1      28.459   0.062  54.555  1.00  0.00     0.227 C 
HETATM   24  F1  UNL     1      29.109   0.384  53.404  1.00  0.00    -0.255 F 
ENDBRANCH  22  23
ENDBRANCH  20  22
ENDBRANCH  18  19
ENDBRANCH   1  18
BRANCH   4  25
HETATM   25  N2  UNL     1      21.435   0.970  52.540  1.00  0.00    -0.381 N 
HETATM   26  C9  UNL     1      20.505   0.816  53.604  1.00  0.00     0.123 C 
HETATM   27  C10 UNL     1      21.098   0.066  54.798  1.00  0.00     0.020 C 
HETATM   28  C11 UNL     1      21.845  -1.178  54.371  1.00  0.00     0.003 C 
HETATM   29  C12 UNL     1      22.946  -0.736  53.416  1.00  0.00     0.020 C 
HETATM   30  C13 UNL     1      22.236  -0.194  52.167  1.00  0.00     0.123 C 
ENDBRANCH   4  25
TORSDOF 5
ENDMDL
MODEL 3
REMARK VINA RESULT:      -7.8      2.960      6.533
REMARK  5 active torsions:
REMARK  status: ('A' for Active; 'I' for Inactive)
REMARK    1  A    between atoms: C1_2  and  C2_3 
REMARK    2  A    between atoms: C2_3  and  C3_4 
REMARK    3  A    between atoms: C4_6  and  C5_7 
REMARK    4  A    between atoms: C5_7  and  C6_8 
REMARK    5  A    between atoms: C8_11  and  N2_12 
ROOT
HETATM    1  C6  UNL     1      23.730   2.552  50.623  1.00  0.00     0.319 C 
HETATM    2  N1  UNL     1      24.189   2.957  51.887  1.00  0.00     0.112 N 
HETATM    3  C7  UNL     1      23.797   2.236  53.098  1.00  0.00     0.331 C 
HETATM    4  C8  UNL     1      24.417   0.951  53.002  1.00  0.00     0.067 C 
HETATM    5  C14 UNL     1      23.747  -0.184  52.866  1.00  0.00     0.112 C 
HETATM    6  N3  UNL     1      22.535   0.120  52.534  1.00  0.00    -0.245 NA
HETATM    7  C15 UNL     1      21.682   0.556  53.581  1.00  0.00     0.181 C 
HETATM    8  N4  UNL     1      20.572   1.301  53.285  1.00  0.00    -0.251 NA
HETATM    9  C16 UNL     1      20.506   1.520  51.825  1.00  0.00     0.067 A 
HETATM   10  C17 UNL     1      20.744   0.377  51.146  1.00  0.00    -0.015 A 
HETATM   11  C18 UNL     1      21.329   1.427  50.471  1.00  0.00     0.069 A 
HETATM   12  C19 UNL     1      21.168   2.649  51.043  1.00  0.00     0.069 A 
HETATM   13  C20 UNL     1      20.878   3.750  51.790  1.00  0.00     0.002 A 
HETATM   14  C21 UNL     1      20.274   2.692  52.502  1.00  0.00     0.123 A 
HETATM   15  N5  UNL     1      22.360   3.054  50.325  1.00  0.00    -0.379 N 
HETATM   16  H9  UNL     1      25.233   2.991  51.828  1.00  0.00     0.319 HD
HETATM   17  H27 UNL     1      22.142   3.745  49.559  1.00  0.00     0.156 HD
ENDROOT
BRANCH   1  18
HETATM   18  C5  UNL     1      24.554   3.283  49.550  1.00  0.00     0.085 C 
BRANCH  18  19
HETATM   19  C4  UNL     1      23.878   4.407  48.931  1.00  0.00    -0.003 C 
HETATM   20  C3  UNL     1      24.510   5.572  48.696  1.00  0.00     0.010 C 
HETATM   21 CL1  UNL     1      23.710   6.950  47.937  1.00  0.00    -0.089 Cl
BRANCH  20  22
HETATM   22  C2  UNL     1      25.884   6.002  48.957  1.00  0.00     0.082 C 
BRANCH  22  23
HETATM   23  C1  UNL     1      25.931   7.156  49.965  1.00  0.00     0.227 C 
HETATM   24  F1  UNL     1      25.135   6.937  51.046  1.00  0.00    -0.255 F 
ENDBRANCH  22  23
ENDBRANCH  20  22
ENDBRANCH  18  19
ENDBRANCH   1  18
BRANCH   4  25
HETATM   25  N2  UNL     1      25.810   0.721  53.029  1.00  0.00    -0.381 N 
HETATM   26  C9  UNL     1      26.553  -0.047  52.091  1.00  0.00     0.123 C 
HETATM   27  C10 UNL     1      27.554  -0.987  52.764  1.00  0.00     0.020 C 
HETATM   28  C11 UNL     1      28.350  -0.289  53.845  1.00  0.00     0.003 C 
HETATM   29  C12 UNL     1      27.351   0.249  54.862  1.00  0.00     0.020 C 
HETATM   30  C13 UNL     1      26.542   1.333  54.135  1.00  0.00     0.123 C 
ENDBRANCH   4  25
TORSDOF 5
ENDMDL
MODEL 4
REMARK VINA RESULT:      -7.5      2.716      5.023
REMARK  5 active torsions:
REMARK  status: ('A' for Active; 'I' for Inactive)
REMARK    1  A    between atoms: C1_2  and  C2_3 
REMARK    2  A    between atoms: C2_3  and  C3_4 
REMARK    3  A    between atoms: C4_6  and  C5_7 
REMARK    4  A    between atoms: C5_7  and  C6_8 
REMARK    5  A    between atoms: C8_11  and  N2_12 
ROOT
HETATM    1  C6  UNL     1      23.911   3.276  52.260  1.00  0.00     0.319 C 
HETATM    2  N1  UNL     1      23.392   2.495  51.213  1.00  0.00     0.112 N 
HETATM    3  C7  UNL     1      23.292   1.041  51.336  1.00  0.00     0.331 C 
HETATM    4  C8  UNL     1      22.305   0.805  52.343  1.00  0.00     0.067 C 
HETATM    5  C14 UNL     1      22.567   0.255  53.520  1.00  0.00     0.112 C 
HETATM    6  N3  UNL     1      23.849   0.281  53.682  1.00  0.00    -0.245 NA
HETATM    7  C15 UNL     1      24.594  -0.714  52.996  1.00  0.00     0.181 C 
HETATM    8  N4  UNL     1      25.924  -0.510  52.743  1.00  0.00    -0.251 NA
HETATM    9  C16 UNL     1      26.324   0.813  53.266  1.00  0.00     0.067 A 
HETATM   10  C17 UNL     1      25.843   1.015  54.512  1.00  0.00    -0.015 A 
HETATM   11  C18 UNL     1      25.778   2.200  53.811  1.00  0.00     0.069 A 
HETATM   12  C19 UNL     1      26.234   2.147  52.532  1.00  0.00     0.069 A 
HETATM   13  C20 UNL     1      26.737   1.853  51.301  1.00  0.00     0.002 A 
HETATM   14  C21 UNL     1      26.810   0.627  51.995  1.00  0.00     0.123 A 
HETATM   15  N5  UNL     1      25.399   3.302  52.270  1.00  0.00    -0.379 N 
HETATM   16  H9  UNL     1      22.450   2.888  50.986  1.00  0.00     0.319 HD
HETATM   17  H27 UNL     1      25.972   4.169  52.094  1.00  0.00     0.156 HD
ENDROOT
BRANCH   1  18
HETATM   18  C5  UNL     1      23.590   4.751  51.969  1.00  0.00     0.085 C 
BRANCH  18  19
HETATM   19  C4  UNL     1      23.190   5.025  50.602  1.00  0.00    -0.003 C 
HETATM   20  C3  UNL     1      24.033   5.587  49.716  1.00  0.00     0.010 C 
HETATM   21 CL1  UNL     1      23.570   5.922  48.046  1.00  0.00    -0.089 Cl
BRANCH  20  22
HETATM   22  C2  UNL     1      25.421   6.032  49.842  1.00  0.00     0.082 C 
BRANCH  22  23
HETATM   23  C1  UNL     1      26.383   5.089  49.110  1.00  0.00     0.227 C 
HETATM   24  F1  UNL     1      25.899   3.821  49.014  1.00  0.00    -0.255 F 
ENDBRANCH  22  23
ENDBRANCH  20  22
ENDBRANCH  18  19
ENDBRANCH   1  18
BRANCH   4  25
HETATM   25  N2  UNL     1      20.935   1.127  52.225  1.00  0.00    -0.381 N 
HETATM   26  C9  UNL     1      19.952   0.376  51.525  1.00  0.00     0.123 C 
HETATM   27  C10 UNL     1      19.044   1.256  50.665  1.00  0.00     0.020 C 
HETATM   28  C11 UNL     1      18.552   2.472  51.419  1.00  0.00     0.003 C 
HETATM   29  C12 UNL     1      19.783   3.249  51.869  1.00  0.00     0.020 C 
HETATM   30  C13 UNL     1      20.504   2.356  52.888  1.00  0.00     0.123 C 
ENDBRANCH   4  25
TORSDOF 5
ENDMDL
MODEL 5
REMARK VINA RESULT:      -7.4      2.935      6.432
REMARK  5 active torsions:
REMARK  status: ('A' for Active; 'I' for Inactive)
REMARK    1  A    between atoms: C1_2  and  C2_3 
REMARK    2  A    between atoms: C2_3  and  C3_4 
REMARK    3  A    between atoms: C4_6  and  C5_7 
REMARK    4  A    between atoms: C5_7  and  C6_8 
REMARK    5  A    between atoms: C8_11  and  N2_12 
ROOT
HETATM    1  C6  UNL     1      24.126   3.871  51.165  1.00  0.00     0.319 C 
HETATM    2  N1  UNL     1      23.115   4.205  52.082  1.00  0.00     0.112 N 
HETATM    3  C7  UNL     1      21.885   4.863  51.641  1.00  0.00     0.331 C 
HETATM    4  C8  UNL     1      21.196   3.900  50.841  1.00  0.00     0.067 C 
HETATM    5  C14 UNL     1      20.988   4.033  49.539  1.00  0.00     0.112 C 
HETATM    6  N3  UNL     1      21.763   4.978  49.119  1.00  0.00    -0.245 NA
HETATM    7  C15 UNL     1      21.336   6.307  49.373  1.00  0.00     0.181 C 
HETATM    8  N4  UNL     1      22.254   7.324  49.379  1.00  0.00    -0.251 NA
HETATM    9  C16 UNL     1      23.598   6.771  49.112  1.00  0.00     0.067 A 
HETATM   10  C17 UNL     1      23.574   5.898  48.082  1.00  0.00    -0.015 A 
HETATM   11  C18 UNL     1      24.448   5.432  49.041  1.00  0.00     0.069 A 
HETATM   12  C19 UNL     1      24.575   6.216  50.143  1.00  0.00     0.069 A 
HETATM   13  C20 UNL     1      24.537   7.151  51.134  1.00  0.00     0.002 A 
HETATM   14  C21 UNL     1      23.634   7.647  50.169  1.00  0.00     0.123 A 
HETATM   15  N5  UNL     1      25.010   5.025  50.844  1.00  0.00    -0.379 N 
HETATM   16  H9  UNL     1      22.872   3.324  52.591  1.00  0.00     0.319 HD
HETATM   17  H27 UNL     1      26.033   5.069  51.096  1.00  0.00     0.156 HD
ENDROOT
BRANCH   1  18
HETATM   18  C5  UNL     1      25.116   2.922  51.859  1.00  0.00     0.085 C 
BRANCH  18  19
HETATM   19  C4  UNL     1      24.497   1.858  52.628  1.00  0.00    -0.003 C 
HETATM   20  C3  UNL     1      25.031   0.624  52.687  1.00  0.00     0.010 C 
HETATM   21 CL1  UNL     1      24.299  -0.682  53.621  1.00  0.00    -0.089 Cl
BRANCH  20  22
HETATM   22  C2  UNL     1      26.234   0.055  52.080  1.00  0.00     0.082 C 
BRANCH  22  23
HETATM   23  C1  UNL     1      26.727  -1.175  52.851  1.00  0.00     0.227 C 
HETATM   24  F1  UNL     1      26.760  -2.295  52.080  1.00  0.00    -0.255 F 
ENDBRANCH  22  23
ENDBRANCH  20  22
ENDBRANCH  18  19
ENDBRANCH   1  18
BRANCH   4  25
HETATM   25  N2  UNL     1      20.656   2.686  51.321  1.00  0.00    -0.381 N 
HETATM   26  C9  UNL     1      20.149   2.450  52.628  1.00  0.00     0.123 C 
HETATM   27  C10 UNL     1      20.634   1.124  53.215  1.00  0.00     0.020 C 
HETATM   28  C11 UNL     1      20.504  -0.015  52.227  1.00  0.00     0.003 C 
HETATM   29  C12 UNL     1      21.325   0.361  50.999  1.00  0.00     0.020 C 
HETATM   30  C13 UNL     1      20.625   1.576  50.373  1.00  0.00     0.123 C 
ENDBRANCH   4  25
TORSDOF 5
ENDMDL
MODEL 6
REMARK VINA RESULT:      -7.2      2.463      4.743
REMARK  5 active torsions:
REMARK  status: ('A' for Active; 'I' for Inactive)
REMARK    1  A    between atoms: C1_2  and  C2_3 
REMARK    2  A    between atoms: C2_3  and  C3_4 
REMARK    3  A    between atoms: C4_6  and  C5_7 
REMARK    4  A    between atoms: C5_7  and  C6_8 
REMARK    5  A    between atoms: C8_11  and  N2_12 
ROOT
HETATM    1  C6  UNL     1      23.796   3.040  52.744  1.00  0.00     0.319 C 
HETATM    2  N1  UNL     1      23.255   2.311  51.672  1.00  0.00     0.112 N 
HETATM    3  C7  UNL     1      23.377   0.855  51.613  1.00  0.00     0.331 C 
HETATM    4  C8  UNL     1      22.578   0.356  52.688  1.00  0.00     0.067 C 
HETATM    5  C14 UNL     1      23.071  -0.275  53.744  1.00  0.00     0.112 C 
HETATM    6  N3  UNL     1      24.347  -0.068  53.757  1.00  0.00    -0.245 NA
HETATM    7  C15 UNL     1      25.124  -0.852  52.865  1.00  0.00     0.181 C 
HETATM    8  N4  UNL     1      26.366  -0.416  52.487  1.00  0.00    -0.251 NA
HETATM    9  C16 UNL     1      26.644   0.886  53.128  1.00  0.00     0.067 A 
HETATM   10  C17 UNL     1      26.312   0.868  54.438  1.00  0.00    -0.015 A 
HETATM   11  C18 UNL     1      25.988   2.100  53.912  1.00  0.00     0.069 A 
HETATM   12  C19 UNL     1      26.270   2.263  52.592  1.00  0.00     0.069 A 
HETATM   13  C20 UNL     1      26.637   2.192  51.283  1.00  0.00     0.002 A 
HETATM   14  C21 UNL     1      26.974   0.921  51.796  1.00  0.00     0.123 A 
HETATM   15  N5  UNL     1      25.253   3.297  52.584  1.00  0.00    -0.379 N 
HETATM   16  H9  UNL     1      22.245   2.576  51.610  1.00  0.00     0.319 HD
HETATM   17  H27 UNL     1      25.671   4.256  52.457  1.00  0.00     0.156 HD
ENDROOT
BRANCH   1  18
HETATM   18  C5  UNL     1      23.235   4.471  52.690  1.00  0.00     0.085 C 
BRANCH  18  19
HETATM   19  C4  UNL     1      23.738   5.276  51.592  1.00  0.00    -0.003 C 
HETATM   20  C3  UNL     1      22.933   6.085  50.880  1.00  0.00     0.010 C 
HETATM   21 CL1  UNL     1      23.525   7.078  49.546  1.00  0.00    -0.089 Cl
BRANCH  20  22
HETATM   22  C2  UNL     1      21.500   6.364  50.979  1.00  0.00     0.082 C 
BRANCH  22  23
HETATM   23  C1  UNL     1      20.679   5.405  50.110  1.00  0.00     0.227 C 
HETATM   24  F1  UNL     1      21.396   4.322  49.706  1.00  0.00    -0.255 F 
ENDBRANCH  22  23
ENDBRANCH  20  22
ENDBRANCH  18  19
ENDBRANCH   1  18
BRANCH   4  25
HETATM   25  N2  UNL     1      21.174   0.473  52.775  1.00  0.00    -0.381 N 
HETATM   26  C9  UNL     1      20.348  -0.048  53.809  1.00  0.00     0.123 C 
HETATM   27  C10 UNL     1      19.097  -0.741  53.268  1.00  0.00     0.020 C 
HETATM   28  C11 UNL     1      18.405   0.084  52.206  1.00  0.00     0.003 C 
HETATM   29  C12 UNL     1      19.415   0.317  51.089  1.00  0.00     0.020 C 
HETATM   30  C13 UNL     1      20.520   1.199  51.688  1.00  0.00     0.123 C 
ENDBRANCH   4  25
TORSDOF 5
ENDMDL
MODEL 7
REMARK VINA RESULT:      -7.1      3.347      6.406
REMARK  5 active torsions:
REMARK  status: ('A' for Active; 'I' for Inactive)
REMARK    1  A    between atoms: C1_2  and  C2_3 
REMARK    2  A    between atoms: C2_3  and  C3_4 
REMARK    3  A    between atoms: C4_6  and  C5_7 
REMARK    4  A    between atoms: C5_7  and  C6_8 
REMARK    5  A    between atoms: C8_11  and  N2_12 
ROOT
HETATM    1  C6  UNL     1      22.947   2.847  51.869  1.00  0.00     0.319 C 
HETATM    2  N1  UNL     1      23.359   2.870  50.526  1.00  0.00     0.112 N 
HETATM    3  C7  UNL     1      22.462   3.340  49.471  1.00  0.00     0.331 C 
HETATM    4  C8  UNL     1      22.286   4.739  49.707  1.00  0.00     0.067 C 
HETATM    5  C14 UNL     1      21.134   5.289  50.063  1.00  0.00     0.112 C 
HETATM    6  N3  UNL     1      20.350   4.333  50.441  1.00  0.00    -0.245 NA
HETATM    7  C15 UNL     1      19.729   3.579  49.412  1.00  0.00     0.181 C 
HETATM    8  N4  UNL     1      19.264   2.319  49.682  1.00  0.00    -0.251 NA
HETATM    9  C16 UNL     1      19.547   1.986  51.094  1.00  0.00     0.067 A 
HETATM   10  C17 UNL     1      19.220   3.009  51.914  1.00  0.00    -0.015 A 
HETATM   11  C18 UNL     1      20.376   2.418  52.377  1.00  0.00     0.069 A 
HETATM   12  C19 UNL     1      20.825   1.365  51.645  1.00  0.00     0.069 A 
HETATM   13  C20 UNL     1      21.076   0.353  50.768  1.00  0.00     0.002 A 
HETATM   14  C21 UNL     1      19.894   0.944  50.271  1.00  0.00     0.123 A 
HETATM   15  N5  UNL     1      22.136   1.642  52.197  1.00  0.00    -0.379 N 
HETATM   16  H9  UNL     1      24.247   3.422  50.496  1.00  0.00     0.319 HD
HETATM   17  H27 UNL     1      22.447   0.889  52.867  1.00  0.00     0.156 HD
ENDROOT
BRANCH   1  18
HETATM   18  C5  UNL     1      24.185   2.621  52.752  1.00  0.00     0.085 C 
BRANCH  18  19
HETATM   19  C4  UNL     1      24.740   1.282  52.685  1.00  0.00    -0.003 C 
HETATM   20  C3  UNL     1      26.048   1.068  52.455  1.00  0.00     0.010 C 
HETATM   21 CL1  UNL     1      26.746  -0.551  52.377  1.00  0.00    -0.089 Cl
BRANCH  20  22
HETATM   22  C2  UNL     1      27.160   1.993  52.232  1.00  0.00     0.082 C 
BRANCH  22  23
HETATM   23  C1  UNL     1      28.123   2.013  53.425  1.00  0.00     0.227 C 
HETATM   24  F1  UNL     1      29.003   3.049  53.367  1.00  0.00    -0.255 F 
ENDBRANCH  22  23
ENDBRANCH  20  22
ENDBRANCH  18  19
ENDBRANCH   1  18
BRANCH   4  25
HETATM   25  N2  UNL     1      23.304   5.712  49.604  1.00  0.00    -0.381 N 
HETATM   26  C9  UNL     1      24.431   5.660  48.739  1.00  0.00     0.123 C 
HETATM   27  C10 UNL     1      25.731   6.050  49.445  1.00  0.00     0.020 C 
HETATM   28  C11 UNL     1      25.573   7.308  50.271  1.00  0.00     0.003 C 
HETATM   29  C12 UNL     1      24.469   7.042  51.287  1.00  0.00     0.020 C 
HETATM   30  C13 UNL     1      23.174   6.875  50.478  1.00  0.00     0.123 C 
ENDBRANCH   4  25
TORSDOF 5
ENDMDL
MODEL 8
REMARK VINA RESULT:      -7.1      8.175      9.924
REMARK  5 active torsions:
REMARK  status: ('A' for Active; 'I' for Inactive)
REMARK    1  A    between atoms: C1_2  and  C2_3 
REMARK    2  A    between atoms: C2_3  and  C3_4 
REMARK    3  A    between atoms: C4_6  and  C5_7 
REMARK    4  A    between atoms: C5_7  and  C6_8 
REMARK    5  A    between atoms: C8_11  and  N2_12 
ROOT
HETATM    1  C6  UNL     1      29.490   7.360  48.074  1.00  0.00     0.319 C 
HETATM    2  N1  UNL     1      29.762   8.309  49.073  1.00  0.00     0.112 N 
HETATM    3  C7  UNL     1      30.975   9.125  49.028  1.00  0.00     0.331 C 
HETATM    4  C8  UNL     1      30.821   9.984  47.895  1.00  0.00     0.067 C 
HETATM    5  C14 UNL     1      31.580   9.920  46.811  1.00  0.00     0.112 C 
HETATM    6  N3  UNL     1      32.217   8.796  46.851  1.00  0.00    -0.245 NA
HETATM    7  C15 UNL     1      33.348   8.740  47.706  1.00  0.00     0.181 C 
HETATM    8  N4  UNL     1      33.801   7.527  48.152  1.00  0.00    -0.251 NA
HETATM    9  C16 UNL     1      32.936   6.455  47.616  1.00  0.00     0.067 A 
HETATM   10  C17 UNL     1      32.691   6.634  46.300  1.00  0.00    -0.015 A 
HETATM   11  C18 UNL     1      31.549   6.156  46.906  1.00  0.00     0.069 A 
HETATM   12  C19 UNL     1      31.650   5.927  48.241  1.00  0.00     0.069 A 
HETATM   13  C20 UNL     1      31.987   5.775  49.552  1.00  0.00     0.002 A 
HETATM   14  C21 UNL     1      33.167   6.268  48.957  1.00  0.00     0.123 A 
HETATM   15  N5  UNL     1      30.209   6.076  48.296  1.00  0.00    -0.379 N 
HETATM   16  H9  UNL     1      28.926   8.936  49.125  1.00  0.00     0.319 HD
HETATM   17  H27 UNL     1      29.727   5.161  48.506  1.00  0.00     0.156 HD
ENDROOT
BRANCH   1  18
HETATM   18  C5  UNL     1      28.027   6.910  48.218  1.00  0.00     0.085 C 
BRANCH  18  19
HETATM   19  C4  UNL     1      27.857   5.522  48.607  1.00  0.00    -0.003 C 
HETATM   20  C3  UNL     1      26.651   5.020  48.933  1.00  0.00     0.010 C 
HETATM   21 CL1  UNL     1      26.420   3.335  49.401  1.00  0.00    -0.089 Cl
BRANCH  20  22
HETATM   22  C2  UNL     1      25.324   5.635  48.986  1.00  0.00     0.082 C 
BRANCH  22  23
HETATM   23  C1  UNL     1      24.995   6.142  50.395  1.00  0.00     0.227 C 
HETATM   24  F1  UNL     1      25.734   7.230  50.744  1.00  0.00    -0.255 F 
ENDBRANCH  22  23
ENDBRANCH  20  22
ENDBRANCH  18  19
ENDBRANCH   1  18
BRANCH   4  25
HETATM   25  N2  UNL     1      29.848  11.000  47.776  1.00  0.00    -0.381 N 
HETATM   26  C9  UNL     1      29.835  12.239  48.474  1.00  0.00     0.123 C 
HETATM   27  C10 UNL     1      28.454  12.584  49.032  1.00  0.00     0.020 C 
HETATM   28  C11 UNL     1      27.360  12.378  48.007  1.00  0.00     0.003 C 
HETATM   29  C12 UNL     1      27.416  10.917  47.579  1.00  0.00     0.020 C 
HETATM   30  C13 UNL     1      28.753  10.736  46.845  1.00  0.00     0.123 C 
ENDBRANCH   4  25
TORSDOF 5
ENDMDL
MODEL 9
REMARK VINA RESULT:      -7.0      7.960     10.509
REMARK  5 active torsions:
REMARK  status: ('A' for Active; 'I' for Inactive)
REMARK    1  A    between atoms: C1_2  and  C2_3 
REMARK    2  A    between atoms: C2_3  and  C3_4 
REMARK    3  A    between atoms: C4_6  and  C5_7 
REMARK    4  A    between atoms: C5_7  and  C6_8 
REMARK    5  A    between atoms: C8_11  and  N2_12 
ROOT
HETATM    1  C6  UNL     1      29.707   6.563  48.087  1.00  0.00     0.319 C 
HETATM    2  N1  UNL     1      30.220   6.441  46.785  1.00  0.00     0.112 N 
HETATM    3  C7  UNL     1      31.366   7.238  46.350  1.00  0.00     0.331 C 
HETATM    4  C8  UNL     1      32.480   6.761  47.108  1.00  0.00     0.067 C 
HETATM    5  C14 UNL     1      33.122   7.484  48.014  1.00  0.00     0.112 C 
HETATM    6  N3  UNL     1      32.383   8.510  48.283  1.00  0.00    -0.245 NA
HETATM    7  C15 UNL     1      32.411   9.573  47.342  1.00  0.00     0.181 C 
HETATM    8  N4  UNL     1      31.372  10.464  47.298  1.00  0.00    -0.251 NA
HETATM    9  C16 UNL     1      30.361  10.088  48.307  1.00  0.00     0.067 A 
HETATM   10  C17 UNL     1      30.937   9.793  49.493  1.00  0.00    -0.015 A 
HETATM   11  C18 UNL     1      29.884   8.929  49.281  1.00  0.00     0.069 A 
HETATM   12  C19 UNL     1      29.205   9.111  48.118  1.00  0.00     0.069 A 
HETATM   13  C20 UNL     1      28.687   9.480  46.913  1.00  0.00     0.002 A 
HETATM   14  C21 UNL     1      29.763  10.374  47.104  1.00  0.00     0.123 A 
HETATM   15  N5  UNL     1      28.791   7.727  48.234  1.00  0.00    -0.379 N 
HETATM   16  H9  UNL     1      30.429   5.426  46.641  1.00  0.00     0.319 HD
HETATM   17  H27 UNL     1      27.761   7.642  48.442  1.00  0.00     0.156 HD
ENDROOT
BRANCH   1  18
HETATM   18  C5  UNL     1      28.742   5.393  48.340  1.00  0.00     0.085 C 
BRANCH  18  19
HETATM   19  C4  UNL     1      27.361   5.783  48.555  1.00  0.00    -0.003 C 
HETATM   20  C3  UNL     1      26.449   4.923  49.043  1.00  0.00     0.010 C 
HETATM   21 CL1  UNL     1      24.767   5.378  49.319  1.00  0.00    -0.089 Cl
BRANCH  20  22
HETATM   22  C2  UNL     1      26.555   3.521  49.451  1.00  0.00     0.082 C 
BRANCH  22  23
HETATM   23  C1  UNL     1      25.858   3.272  50.793  1.00  0.00     0.227 C 
HETATM   24  F1  UNL     1      24.819   2.400  50.687  1.00  0.00    -0.255 F 
ENDBRANCH  22  23
ENDBRANCH  20  22
ENDBRANCH  18  19
ENDBRANCH   1  18
BRANCH   4  25
HETATM   25  N2  UNL     1      33.037   5.467  47.002  1.00  0.00    -0.381 N 
HETATM   26  C9  UNL     1      33.423   4.627  48.082  1.00  0.00     0.123 C 
HETATM   27  C10 UNL     1      34.786   3.972  47.858  1.00  0.00     0.020 C 
HETATM   28  C11 UNL     1      34.912   3.385  46.469  1.00  0.00     0.003 C 
HETATM   29  C12 UNL     1      34.694   4.522  45.479  1.00  0.00     0.020 C 
HETATM   30  C13 UNL     1      33.231   4.959  45.646  1.00  0.00     0.123 C 
ENDBRANCH   4  25
TORSDOF 5
ENDMDL
