MODEL 1
REMARK VINA RESULT:      -7.7      0.000      0.000
REMARK  8 active torsions:
REMARK  status: ('A' for Active; 'I' for Inactive)
REMARK    1  A    between atoms: C5_6  and  C6_7 
REMARK    2  A    between atoms: C6_7  and  O1_8 
REMARK    3  A    between atoms: O1_8  and  C7_9 
REMARK    4  A    between atoms: C8_10  and  C9_11 
REMARK    5  A    between atoms: C10_12  and  C11_13 
REMARK    6  A    between atoms: C11_13  and  N2_14 
REMARK    7  A    between atoms: N2_14  and  C12_15 
REMARK    8  A    between atoms: C15_19  and  C16_20 
ROOT
HETATM    1  N2  UNL     1      23.211   2.666  52.616  1.00  0.00    -0.219 N 
HETATM    2  H15 UNL     1      23.534   2.680  53.615  1.00  0.00     0.178 HD
ENDROOT
BRANCH   1   3
HETATM    3  C11 UNL     1      22.768   1.410  52.025  1.00  0.00     0.165 C 
BRANCH   3   4
HETATM    4  C10 UNL     1      22.240   0.513  53.074  1.00  0.00    -0.007 C 
HETATM    5  C9  UNL     1      22.950  -0.366  53.758  1.00  0.00    -0.001 C 
BRANCH   5   6
HETATM    6  C8  UNL     1      24.371  -0.563  53.559  1.00  0.00     0.024 C 
HETATM    7  C7  UNL     1      25.223  -0.606  54.548  1.00  0.00     0.134 C 
BRANCH   7   8
HETATM    8  O1  UNL     1      26.581  -0.785  54.504  1.00  0.00    -0.362 OA
BRANCH   8   9
HETATM    9  C6  UNL     1      27.228  -0.934  53.279  1.00  0.00     0.188 C 
BRANCH   9  10
HETATM   10  C5  UNL     1      28.268   0.122  53.018  1.00  0.00     0.080 A 
HETATM   11  C2  UNL     1      27.671   1.449  52.737  1.00  0.00    -0.055 A 
HETATM   12  C1  UNL     1      26.763   1.831  51.632  1.00  0.00     0.046 C 
HETATM   13  C3  UNL     1      28.078   2.331  53.667  1.00  0.00     0.119 A 
HETATM   14  N1  UNL     1      28.946   1.662  54.597  1.00  0.00    -0.276 NA
HETATM   15  C4  UNL     1      29.064   0.423  54.250  1.00  0.00     0.100 A 
ENDBRANCH   9  10
ENDBRANCH   8   9
ENDBRANCH   7   8
ENDBRANCH   5   6
ENDBRANCH   3   4
ENDBRANCH   1   3
BRANCH   1  16
HETATM   16  C12 UNL     1      23.230   3.894  51.901  1.00  0.00     0.723 A 
HETATM   17  N3  UNL     1      22.168   4.713  51.876  1.00  0.00    -0.075 NA
HETATM   18  C13 UNL     1      22.135   5.883  51.218  1.00  0.00     0.139 A 
HETATM   19  C14 UNL     1      23.277   6.239  50.532  1.00  0.00     0.053 A 
HETATM   20  C15 UNL     1      24.390   5.426  50.532  1.00  0.00     0.089 A 
HETATM   21  N5  UNL     1      24.314   4.293  51.214  1.00  0.00    -0.062 NA
BRANCH  20  22
HETATM   22  C16 UNL     1      25.598   5.797  49.809  1.00  0.00     0.011 A 
HETATM   23  C17 UNL     1      26.433   4.949  49.138  1.00  0.00     0.017 A 
HETATM   24  C18 UNL     1      27.559   5.393  48.479  1.00  0.00     0.020 A 
HETATM   25  C19 UNL     1      27.886   6.737  48.474  1.00  0.00     0.116 A 
HETATM   26  N4  UNL     1      27.066   7.584  49.135  1.00  0.00    -0.272 NA
HETATM   27  C20 UNL     1      25.971   7.134  49.773  1.00  0.00     0.130 A 
ENDBRANCH  20  22
ENDBRANCH   1  16
TORSDOF 8
ENDMDL
MODEL 2
REMARK VINA RESULT:      -7.7      4.323      8.047
REMARK  8 active torsions:
REMARK  status: ('A' for Active; 'I' for Inactive)
REMARK    1  A    between atoms: C5_6  and  C6_7 
REMARK    2  A    between atoms: C6_7  and  O1_8 
REMARK    3  A    between atoms: O1_8  and  C7_9 
REMARK    4  A    between atoms: C8_10  and  C9_11 
REMARK    5  A    between atoms: C10_12  and  C11_13 
REMARK    6  A    between atoms: C11_13  and  N2_14 
REMARK    7  A    between atoms: N2_14  and  C12_15 
REMARK    8  A    between atoms: C15_19  and  C16_20 
ROOT
HETATM    1  N2  UNL     1      26.292   3.962  50.723  1.00  0.00    -0.219 N 
HETATM    2  H15 UNL     1      26.237   4.847  51.283  1.00  0.00     0.178 HD
ENDROOT
BRANCH   1   3
HETATM    3  C11 UNL     1      26.821   4.006  49.365  1.00  0.00     0.165 C 
BRANCH   3   4
HETATM    4  C10 UNL     1      26.598   5.344  48.776  1.00  0.00    -0.007 C 
HETATM    5  C9  UNL     1      27.540   6.136  48.297  1.00  0.00    -0.001 C 
BRANCH   5   6
HETATM    6  C8  UNL     1      28.944   5.781  48.288  1.00  0.00     0.024 C 
HETATM    7  C7  UNL     1      29.884   6.628  47.967  1.00  0.00     0.134 C 
BRANCH   7   8
HETATM    8  O1  UNL     1      31.240   6.429  47.917  1.00  0.00    -0.362 OA
BRANCH   8   9
HETATM    9  C6  UNL     1      31.777   5.189  48.252  1.00  0.00     0.188 C 
BRANCH   9  10
HETATM   10  C5  UNL     1      32.782   4.681  47.254  1.00  0.00     0.080 A 
HETATM   11  C2  UNL     1      34.136   4.532  47.838  1.00  0.00    -0.055 A 
HETATM   12  C1  UNL     1      35.000   5.578  48.429  1.00  0.00     0.046 C 
HETATM   13  C3  UNL     1      34.518   3.245  47.765  1.00  0.00     0.119 A 
HETATM   14  N1  UNL     1      33.470   2.481  47.144  1.00  0.00    -0.276 NA
HETATM   15  C4  UNL     1      32.489   3.268  46.851  1.00  0.00     0.100 A 
ENDBRANCH   9  10
ENDBRANCH   8   9
ENDBRANCH   7   8
ENDBRANCH   5   6
ENDBRANCH   3   4
ENDBRANCH   1   3
BRANCH   1  16
HETATM   16  C12 UNL     1      25.840   2.763  51.338  1.00  0.00     0.723 A 
HETATM   17  N3  UNL     1      24.539   2.538  51.574  1.00  0.00    -0.075 NA
HETATM   18  C13 UNL     1      24.060   1.424  52.151  1.00  0.00     0.139 A 
HETATM   19  C14 UNL     1      24.986   0.469  52.513  1.00  0.00     0.053 A 
HETATM   20  C15 UNL     1      26.332   0.660  52.287  1.00  0.00     0.089 A 
HETATM   21  N5  UNL     1      26.695   1.796  51.712  1.00  0.00    -0.062 NA
BRANCH  20  22
HETATM   22  C16 UNL     1      27.313  -0.345  52.668  1.00  0.00     0.011 A 
HETATM   23  C17 UNL     1      28.573  -0.110  53.142  1.00  0.00     0.017 A 
HETATM   24  C18 UNL     1      29.436  -1.130  53.478  1.00  0.00     0.020 A 
HETATM   25  C19 UNL     1      29.048  -2.451  53.346  1.00  0.00     0.116 A 
HETATM   26  N4  UNL     1      27.803  -2.695  52.879  1.00  0.00    -0.272 NA
HETATM   27  C20 UNL     1      26.973  -1.688  52.555  1.00  0.00     0.130 A 
ENDBRANCH  20  22
ENDBRANCH   1  16
TORSDOF 8
ENDMDL
MODEL 3
REMARK VINA RESULT:      -7.4      2.593      7.808
REMARK  8 active torsions:
REMARK  status: ('A' for Active; 'I' for Inactive)
REMARK    1  A    between atoms: C5_6  and  C6_7 
REMARK    2  A    between atoms: C6_7  and  O1_8 
REMARK    3  A    between atoms: O1_8  and  C7_9 
REMARK    4  A    between atoms: C8_10  and  C9_11 
REMARK    5  A    between atoms: C10_12  and  C11_13 
REMARK    6  A    between atoms: C11_13  and  N2_14 
REMARK    7  A    between atoms: N2_14  and  C12_15 
REMARK    8  A    between atoms: C15_19  and  C16_20 
ROOT
HETATM    1  N2  UNL     1      26.722   3.053  51.443  1.00  0.00    -0.219 N 
HETATM    2  H15 UNL     1      27.099   3.952  51.833  1.00  0.00     0.178 HD
ENDROOT
BRANCH   1   3
HETATM    3  C11 UNL     1      26.301   2.999  50.048  1.00  0.00     0.165 C 
BRANCH   3   4
HETATM    4  C10 UNL     1      26.951   4.081  49.279  1.00  0.00    -0.007 C 
HETATM    5  C9  UNL     1      26.415   5.258  49.011  1.00  0.00    -0.001 C 
BRANCH   5   6
HETATM    6  C8  UNL     1      25.090   5.643  49.450  1.00  0.00     0.024 C 
HETATM    7  C7  UNL     1      24.041   5.568  48.676  1.00  0.00     0.134 C 
BRANCH   7   8
HETATM    8  O1  UNL     1      22.740   5.896  48.959  1.00  0.00    -0.362 OA
BRANCH   8   9
HETATM    9  C6  UNL     1      21.740   4.930  48.872  1.00  0.00     0.188 C 
BRANCH   9  10
HETATM   10  C5  UNL     1      21.360   4.339  50.203  1.00  0.00     0.080 A 
HETATM   11  C2  UNL     1      22.327   3.315  50.665  1.00  0.00    -0.055 A 
HETATM   12  C1  UNL     1      22.693   2.038  50.012  1.00  0.00     0.046 C 
HETATM   13  C3  UNL     1      22.872   3.706  51.830  1.00  0.00     0.119 A 
HETATM   14  N1  UNL     1      22.316   4.979  52.203  1.00  0.00    -0.276 NA
HETATM   15  C4  UNL     1      21.467   5.350  51.303  1.00  0.00     0.100 A 
ENDBRANCH   9  10
ENDBRANCH   8   9
ENDBRANCH   7   8
ENDBRANCH   5   6
ENDBRANCH   3   4
ENDBRANCH   1   3
BRANCH   1  16
HETATM   16  C12 UNL     1      26.649   1.935  52.318  1.00  0.00     0.723 A 
HETATM   17  N3  UNL     1      27.748   1.390  52.859  1.00  0.00    -0.075 NA
HETATM   18  C13 UNL     1      27.733   0.335  53.691  1.00  0.00     0.139 A 
HETATM   19  C14 UNL     1      26.498  -0.199  53.989  1.00  0.00     0.053 A 
HETATM   20  C15 UNL     1      25.344   0.332  53.454  1.00  0.00     0.089 A 
HETATM   21  N5  UNL     1      25.474   1.372  52.644  1.00  0.00    -0.062 NA
BRANCH  20  22
HETATM   22  C16 UNL     1      24.038  -0.229  53.766  1.00  0.00     0.011 A 
HETATM   23  C17 UNL     1      22.905  -0.113  53.011  1.00  0.00     0.017 A 
HETATM   24  C18 UNL     1      21.707  -0.681  53.388  1.00  0.00     0.020 A 
HETATM   25  C19 UNL     1      21.611  -1.403  54.563  1.00  0.00     0.116 A 
HETATM   26  N4  UNL     1      22.726  -1.524  55.318  1.00  0.00    -0.272 NA
HETATM   27  C20 UNL     1      23.887  -0.963  54.936  1.00  0.00     0.130 A 
ENDBRANCH  20  22
ENDBRANCH   1  16
TORSDOF 8
ENDMDL
MODEL 4
REMARK VINA RESULT:      -7.3      4.156      8.129
REMARK  8 active torsions:
REMARK  status: ('A' for Active; 'I' for Inactive)
REMARK    1  A    between atoms: C5_6  and  C6_7 
REMARK    2  A    between atoms: C6_7  and  O1_8 
REMARK    3  A    between atoms: O1_8  and  C7_9 
REMARK    4  A    between atoms: C8_10  and  C9_11 
REMARK    5  A    between atoms: C10_12  and  C11_13 
REMARK    6  A    between atoms: C11_13  and  N2_14 
REMARK    7  A    between atoms: N2_14  and  C12_15 
REMARK    8  A    between atoms: C15_19  and  C16_20 
ROOT
HETATM    1  N2  UNL     1      26.382   3.667  50.915  1.00  0.00    -0.219 N 
HETATM    2  H15 UNL     1      26.313   4.544  51.488  1.00  0.00     0.178 HD
ENDROOT
BRANCH   1   3
HETATM    3  C11 UNL     1      26.651   3.766  49.486  1.00  0.00     0.165 C 
BRANCH   3   4
HETATM    4  C10 UNL     1      26.376   5.139  49.011  1.00  0.00    -0.007 C 
HETATM    5  C9  UNL     1      27.268   5.960  48.486  1.00  0.00    -0.001 C 
BRANCH   5   6
HETATM    6  C8  UNL     1      28.661   5.606  48.306  1.00  0.00     0.024 C 
HETATM    7  C7  UNL     1      29.542   6.434  47.812  1.00  0.00     0.134 C 
BRANCH   7   8
HETATM    8  O1  UNL     1      30.879   6.233  47.589  1.00  0.00    -0.362 OA
BRANCH   8   9
HETATM    9  C6  UNL     1      31.476   5.029  47.956  1.00  0.00     0.188 C 
BRANCH   9  10
HETATM   10  C5  UNL     1      32.491   4.535  46.961  1.00  0.00     0.080 A 
HETATM   11  C2  UNL     1      33.855   4.456  47.534  1.00  0.00    -0.055 A 
HETATM   12  C1  UNL     1      34.683   5.551  48.087  1.00  0.00     0.046 C 
HETATM   13  C3  UNL     1      34.288   3.184  47.490  1.00  0.00     0.119 A 
HETATM   14  N1  UNL     1      33.265   2.362  46.901  1.00  0.00    -0.276 NA
HETATM   15  C4  UNL     1      32.250   3.102  46.599  1.00  0.00     0.100 A 
ENDBRANCH   9  10
ENDBRANCH   8   9
ENDBRANCH   7   8
ENDBRANCH   5   6
ENDBRANCH   3   4
ENDBRANCH   1   3
BRANCH   1  16
HETATM   16  C12 UNL     1      26.204   2.426  51.585  1.00  0.00     0.723 A 
HETATM   17  N3  UNL     1      27.227   1.586  51.797  1.00  0.00    -0.075 NA
HETATM   18  C13 UNL     1      27.113   0.404  52.425  1.00  0.00     0.139 A 
HETATM   19  C14 UNL     1      25.853   0.059  52.867  1.00  0.00     0.053 A 
HETATM   20  C15 UNL     1      24.775   0.894  52.669  1.00  0.00     0.089 A 
HETATM   21  N5  UNL     1      25.000   2.036  52.038  1.00  0.00    -0.062 NA
BRANCH  20  22
HETATM   22  C16 UNL     1      23.444   0.534  53.134  1.00  0.00     0.011 A 
HETATM   23  C17 UNL     1      23.115  -0.560  53.884  1.00  0.00     0.017 A 
HETATM   24  C18 UNL     1      21.821  -0.821  54.278  1.00  0.00     0.020 A 
HETATM   25  C19 UNL     1      20.793   0.032  53.923  1.00  0.00     0.116 A 
HETATM   26  N4  UNL     1      21.106   1.117  53.181  1.00  0.00    -0.272 NA
HETATM   27  C20 UNL     1      22.374   1.358  52.804  1.00  0.00     0.130 A 
ENDBRANCH  20  22
ENDBRANCH   1  16
TORSDOF 8
ENDMDL
MODEL 5
REMARK VINA RESULT:      -7.3      2.850      6.818
REMARK  8 active torsions:
REMARK  status: ('A' for Active; 'I' for Inactive)
REMARK    1  A    between atoms: C5_6  and  C6_7 
REMARK    2  A    between atoms: C6_7  and  O1_8 
REMARK    3  A    between atoms: O1_8  and  C7_9 
REMARK    4  A    between atoms: C8_10  and  C9_11 
REMARK    5  A    between atoms: C10_12  and  C11_13 
REMARK    6  A    between atoms: C11_13  and  N2_14 
REMARK    7  A    between atoms: N2_14  and  C12_15 
REMARK    8  A    between atoms: C15_19  and  C16_20 
ROOT
HETATM    1  N2  UNL     1      23.905   4.532  52.291  1.00  0.00    -0.219 N 
HETATM    2  H15 UNL     1      23.424   5.144  52.996  1.00  0.00     0.178 HD
ENDROOT
BRANCH   1   3
HETATM    3  C11 UNL     1      24.391   5.119  51.048  1.00  0.00     0.165 C 
BRANCH   3   4
HETATM    4  C10 UNL     1      24.270   4.143  49.945  1.00  0.00    -0.007 C 
HETATM    5  C9  UNL     1      25.278   3.638  49.256  1.00  0.00    -0.001 C 
BRANCH   5   6
HETATM    6  C8  UNL     1      26.661   3.987  49.504  1.00  0.00     0.024 C 
HETATM    7  C7  UNL     1      27.360   4.726  48.685  1.00  0.00     0.134 C 
BRANCH   7   8
HETATM    8  O1  UNL     1      28.666   5.129  48.795  1.00  0.00    -0.362 OA
BRANCH   8   9
HETATM    9  C6  UNL     1      29.082   6.321  48.206  1.00  0.00     0.188 C 
BRANCH   9  10
HETATM   10  C5  UNL     1      30.528   6.312  47.789  1.00  0.00     0.080 A 
HETATM   11  C2  UNL     1      31.425   6.841  48.843  1.00  0.00    -0.055 A 
HETATM   12  C1  UNL     1      31.433   8.193  49.447  1.00  0.00     0.046 C 
HETATM   13  C3  UNL     1      32.294   5.886  49.215  1.00  0.00     0.119 A 
HETATM   14  N1  UNL     1      32.035   4.695  48.451  1.00  0.00    -0.276 NA
HETATM   15  C4  UNL     1      31.048   4.915  47.647  1.00  0.00     0.100 A 
ENDBRANCH   9  10
ENDBRANCH   8   9
ENDBRANCH   7   8
ENDBRANCH   5   6
ENDBRANCH   3   4
ENDBRANCH   1   3
BRANCH   1  16
HETATM   16  C12 UNL     1      24.048   3.153  52.605  1.00  0.00     0.723 A 
HETATM   17  N3  UNL     1      22.989   2.335  52.690  1.00  0.00    -0.075 NA
HETATM   18  C13 UNL     1      23.070   1.027  52.981  1.00  0.00     0.139 A 
HETATM   19  C14 UNL     1      24.333   0.520  53.202  1.00  0.00     0.053 A 
HETATM   20  C15 UNL     1      25.447   1.327  53.123  1.00  0.00     0.089 A 
HETATM   21  N5  UNL     1      25.253   2.603  52.830  1.00  0.00    -0.062 NA
BRANCH  20  22
HETATM   22  C16 UNL     1      26.783   0.797  53.356  1.00  0.00     0.011 A 
HETATM   23  C17 UNL     1      27.946   1.513  53.384  1.00  0.00     0.017 A 
HETATM   24  C18 UNL     1      29.170   0.922  53.614  1.00  0.00     0.020 A 
HETATM   25  C19 UNL     1      29.263  -0.441  53.828  1.00  0.00     0.116 A 
HETATM   26  N4  UNL     1      28.118  -1.159  53.803  1.00  0.00    -0.272 NA
HETATM   27  C20 UNL     1      26.932  -0.567  53.578  1.00  0.00     0.130 A 
ENDBRANCH  20  22
ENDBRANCH   1  16
TORSDOF 8
ENDMDL
MODEL 6
REMARK VINA RESULT:      -7.2      2.073      5.919
REMARK  8 active torsions:
REMARK  status: ('A' for Active; 'I' for Inactive)
REMARK    1  A    between atoms: C5_6  and  C6_7 
REMARK    2  A    between atoms: C6_7  and  O1_8 
REMARK    3  A    between atoms: O1_8  and  C7_9 
REMARK    4  A    between atoms: C8_10  and  C9_11 
REMARK    5  A    between atoms: C10_12  and  C11_13 
REMARK    6  A    between atoms: C11_13  and  N2_14 
REMARK    7  A    between atoms: N2_14  and  C12_15 
REMARK    8  A    between atoms: C15_19  and  C16_20 
ROOT
HETATM    1  N2  UNL     1      23.629   4.259  50.032  1.00  0.00    -0.219 N 
HETATM    2  H15 UNL     1      23.677   4.833  50.909  1.00  0.00     0.178 HD
ENDROOT
BRANCH   1   3
HETATM    3  C11 UNL     1      24.327   4.718  48.837  1.00  0.00     0.165 C 
BRANCH   3   4
HETATM    4  C10 UNL     1      25.736   5.027  49.159  1.00  0.00    -0.007 C 
HETATM    5  C9  UNL     1      26.600   4.185  49.696  1.00  0.00    -0.001 C 
BRANCH   5   6
HETATM    6  C8  UNL     1      26.265   2.820  50.046  1.00  0.00     0.024 C 
HETATM    7  C7  UNL     1      26.316   2.373  51.271  1.00  0.00     0.134 C 
BRANCH   7   8
HETATM    8  O1  UNL     1      26.028   1.117  51.739  1.00  0.00    -0.362 OA
BRANCH   8   9
HETATM    9  C6  UNL     1      27.031   0.154  51.821  1.00  0.00     0.188 C 
BRANCH   9  10
HETATM   10  C5  UNL     1      27.088  -0.541  53.154  1.00  0.00     0.080 A 
HETATM   11  C2  UNL     1      28.424  -0.446  53.787  1.00  0.00    -0.055 A 
HETATM   12  C1  UNL     1      29.718  -0.954  53.278  1.00  0.00     0.046 C 
HETATM   13  C3  UNL     1      28.321   0.199  54.962  1.00  0.00     0.119 A 
HETATM   14  N1  UNL     1      26.946   0.563  55.175  1.00  0.00    -0.276 NA
HETATM   15  C4  UNL     1      26.240   0.157  54.173  1.00  0.00     0.100 A 
ENDBRANCH   9  10
ENDBRANCH   8   9
ENDBRANCH   7   8
ENDBRANCH   5   6
ENDBRANCH   3   4
ENDBRANCH   1   3
BRANCH   1  16
HETATM   16  C12 UNL     1      22.875   3.054  50.074  1.00  0.00     0.723 A 
HETATM   17  N3  UNL     1      22.301   2.544  48.976  1.00  0.00    -0.075 NA
HETATM   18  C13 UNL     1      21.580   1.411  48.961  1.00  0.00     0.139 A 
HETATM   19  C14 UNL     1      21.439   0.752  50.164  1.00  0.00     0.053 A 
HETATM   20  C15 UNL     1      22.015   1.243  51.315  1.00  0.00     0.089 A 
HETATM   21  N5  UNL     1      22.704   2.370  51.217  1.00  0.00    -0.062 NA
BRANCH  20  22
HETATM   22  C16 UNL     1      21.868   0.552  52.588  1.00  0.00     0.011 A 
HETATM   23  C17 UNL     1      20.912   0.791  53.535  1.00  0.00     0.017 A 
HETATM   24  C18 UNL     1      20.852   0.083  54.716  1.00  0.00     0.020 A 
HETATM   25  C19 UNL     1      21.772  -0.913  54.986  1.00  0.00     0.116 A 
HETATM   26  N4  UNL     1      22.722  -1.158  54.056  1.00  0.00    -0.272 NA
HETATM   27  C20 UNL     1      22.768  -0.457  52.909  1.00  0.00     0.130 A 
ENDBRANCH  20  22
ENDBRANCH   1  16
TORSDOF 8
ENDMDL
MODEL 7
REMARK VINA RESULT:      -7.2      2.806      4.483
REMARK  8 active torsions:
REMARK  status: ('A' for Active; 'I' for Inactive)
REMARK    1  A    between atoms: C5_6  and  C6_7 
REMARK    2  A    between atoms: C6_7  and  O1_8 
REMARK    3  A    between atoms: O1_8  and  C7_9 
REMARK    4  A    between atoms: C8_10  and  C9_11 
REMARK    5  A    between atoms: C10_12  and  C11_13 
REMARK    6  A    between atoms: C11_13  and  N2_14 
REMARK    7  A    between atoms: N2_14  and  C12_15 
REMARK    8  A    between atoms: C15_19  and  C16_20 
ROOT
HETATM    1  N2  UNL     1      26.476   3.752  49.313  1.00  0.00    -0.219 N 
HETATM    2  H15 UNL     1      26.728   2.796  48.959  1.00  0.00     0.178 HD
ENDROOT
BRANCH   1   3
HETATM    3  C11 UNL     1      25.391   3.894  50.276  1.00  0.00     0.165 C 
BRANCH   3   4
HETATM    4  C10 UNL     1      24.169   3.238  49.766  1.00  0.00    -0.007 C 
HETATM    5  C9  UNL     1      23.395   2.419  50.455  1.00  0.00    -0.001 C 
BRANCH   5   6
HETATM    6  C8  UNL     1      23.656   2.053  51.832  1.00  0.00     0.024 C 
HETATM    7  C7  UNL     1      24.300   0.966  52.163  1.00  0.00     0.134 C 
BRANCH   7   8
HETATM    8  O1  UNL     1      24.614   0.502  53.415  1.00  0.00    -0.362 OA
BRANCH   8   9
HETATM    9  C6  UNL     1      25.879   0.733  53.949  1.00  0.00     0.188 C 
BRANCH   9  10
HETATM   10  C5  UNL     1      27.000   0.380  53.010  1.00  0.00     0.080 A 
HETATM   11  C2  UNL     1      28.300   0.950  53.438  1.00  0.00    -0.055 A 
HETATM   12  C1  UNL     1      28.664   2.375  53.607  1.00  0.00     0.046 C 
HETATM   13  C3  UNL     1      29.172  -0.045  53.672  1.00  0.00     0.119 A 
HETATM   14  N1  UNL     1      28.524  -1.304  53.420  1.00  0.00    -0.276 NA
HETATM   15  C4  UNL     1      27.306  -1.086  53.049  1.00  0.00     0.100 A 
ENDBRANCH   9  10
ENDBRANCH   8   9
ENDBRANCH   7   8
ENDBRANCH   5   6
ENDBRANCH   3   4
ENDBRANCH   1   3
BRANCH   1  16
HETATM   16  C12 UNL     1      27.222   4.856  48.819  1.00  0.00     0.723 A 
HETATM   17  N3  UNL     1      26.631   6.009  48.474  1.00  0.00    -0.075 NA
HETATM   18  C13 UNL     1      27.289   7.081  48.004  1.00  0.00     0.139 A 
HETATM   19  C14 UNL     1      28.657   6.960  47.878  1.00  0.00     0.053 A 
HETATM   20  C15 UNL     1      29.303   5.792  48.222  1.00  0.00     0.089 A 
HETATM   21  N5  UNL     1      28.556   4.797  48.674  1.00  0.00    -0.062 NA
BRANCH  20  22
HETATM   22  C16 UNL     1      30.746   5.659  48.090  1.00  0.00     0.011 A 
HETATM   23  C17 UNL     1      31.411   4.685  47.400  1.00  0.00     0.017 A 
HETATM   24  C18 UNL     1      32.787   4.640  47.330  1.00  0.00     0.020 A 
HETATM   25  C19 UNL     1      33.554   5.597  47.966  1.00  0.00     0.116 A 
HETATM   26  N4  UNL     1      32.907   6.566  48.652  1.00  0.00    -0.272 NA
HETATM   27  C20 UNL     1      31.564   6.596  48.710  1.00  0.00     0.130 A 
ENDBRANCH  20  22
ENDBRANCH   1  16
TORSDOF 8
ENDMDL
MODEL 8
REMARK VINA RESULT:      -7.1      2.867      5.961
REMARK  8 active torsions:
REMARK  status: ('A' for Active; 'I' for Inactive)
REMARK    1  A    between atoms: C5_6  and  C6_7 
REMARK    2  A    between atoms: C6_7  and  O1_8 
REMARK    3  A    between atoms: O1_8  and  C7_9 
REMARK    4  A    between atoms: C8_10  and  C9_11 
REMARK    5  A    between atoms: C10_12  and  C11_13 
REMARK    6  A    between atoms: C11_13  and  N2_14 
REMARK    7  A    between atoms: N2_14  and  C12_15 
REMARK    8  A    between atoms: C15_19  and  C16_20 
ROOT
HETATM    1  N2  UNL     1      20.640   4.171  51.683  1.00  0.00    -0.219 N 
HETATM    2  H15 UNL     1      19.797   4.785  51.569  1.00  0.00     0.178 HD
ENDROOT
BRANCH   1   3
HETATM    3  C11 UNL     1      21.969   4.771  51.669  1.00  0.00     0.165 C 
BRANCH   3   4
HETATM    4  C10 UNL     1      22.696   4.366  50.448  1.00  0.00    -0.007 C 
HETATM    5  C9  UNL     1      23.702   3.511  50.404  1.00  0.00    -0.001 C 
BRANCH   5   6
HETATM    6  C8  UNL     1      24.230   2.848  51.578  1.00  0.00     0.024 C 
HETATM    7  C7  UNL     1      25.507   2.646  51.761  1.00  0.00     0.134 C 
BRANCH   7   8
HETATM    8  O1  UNL     1      26.138   2.037  52.815  1.00  0.00    -0.362 OA
BRANCH   8   9
HETATM    9  C6  UNL     1      27.439   1.561  52.671  1.00  0.00     0.188 C 
BRANCH   9  10
HETATM   10  C5  UNL     1      27.805   0.505  53.678  1.00  0.00     0.080 A 
HETATM   11  C2  UNL     1      27.821  -0.856  53.093  1.00  0.00    -0.055 A 
HETATM   12  C1  UNL     1      26.702  -1.599  52.470  1.00  0.00     0.046 C 
HETATM   13  C3  UNL     1      29.055  -1.378  53.199  1.00  0.00     0.119 A 
HETATM   14  N1  UNL     1      29.912  -0.420  53.845  1.00  0.00    -0.276 NA
HETATM   15  C4  UNL     1      29.230   0.641  54.121  1.00  0.00     0.100 A 
ENDBRANCH   9  10
ENDBRANCH   8   9
ENDBRANCH   7   8
ENDBRANCH   5   6
ENDBRANCH   3   4
ENDBRANCH   1   3
BRANCH   1  16
HETATM   16  C12 UNL     1      20.422   2.776  51.845  1.00  0.00     0.723 A 
HETATM   17  N3  UNL     1      19.415   2.143  51.226  1.00  0.00    -0.075 NA
HETATM   18  C13 UNL     1      19.166   0.828  51.345  1.00  0.00     0.139 A 
HETATM   19  C14 UNL     1      20.015   0.110  52.160  1.00  0.00     0.053 A 
HETATM   20  C15 UNL     1      21.063   0.723  52.813  1.00  0.00     0.089 A 
HETATM   21  N5  UNL     1      21.216   2.025  52.626  1.00  0.00    -0.062 NA
BRANCH  20  22
HETATM   22  C16 UNL     1      21.961  -0.031  53.675  1.00  0.00     0.011 A 
HETATM   23  C17 UNL     1      23.324   0.054  53.698  1.00  0.00     0.017 A 
HETATM   24  C18 UNL     1      24.096  -0.703  54.553  1.00  0.00     0.020 A 
HETATM   25  C19 UNL     1      23.504  -1.589  55.434  1.00  0.00     0.116 A 
HETATM   26  N4  UNL     1      22.156  -1.680  55.422  1.00  0.00    -0.272 NA
HETATM   27  C20 UNL     1      21.418  -0.935  54.580  1.00  0.00     0.130 A 
ENDBRANCH  20  22
ENDBRANCH   1  16
TORSDOF 8
ENDMDL
MODEL 9
REMARK VINA RESULT:      -7.0      2.624      5.793
REMARK  8 active torsions:
REMARK  status: ('A' for Active; 'I' for Inactive)
REMARK    1  A    between atoms: C5_6  and  C6_7 
REMARK    2  A    between atoms: C6_7  and  O1_8 
REMARK    3  A    between atoms: O1_8  and  C7_9 
REMARK    4  A    between atoms: C8_10  and  C9_11 
REMARK    5  A    between atoms: C10_12  and  C11_13 
REMARK    6  A    between atoms: C11_13  and  N2_14 
REMARK    7  A    between atoms: N2_14  and  C12_15 
REMARK    8  A    between atoms: C15_19  and  C16_20 
ROOT
HETATM    1  N2  UNL     1      22.639   3.734  50.523  1.00  0.00    -0.219 N 
HETATM    2  H15 UNL     1      22.243   3.807  51.491  1.00  0.00     0.178 HD
ENDROOT
BRANCH   1   3
HETATM    3  C11 UNL     1      21.739   3.774  49.376  1.00  0.00     0.165 C 
BRANCH   3   4
HETATM    4  C10 UNL     1      21.780   2.485  48.654  1.00  0.00    -0.007 C 
HETATM    5  C9  UNL     1      21.082   1.409  48.970  1.00  0.00    -0.001 C 
BRANCH   5   6
HETATM    6  C8  UNL     1      20.167   1.359  50.092  1.00  0.00     0.024 C 
HETATM    7  C7  UNL     1      20.274   0.479  51.051  1.00  0.00     0.134 C 
BRANCH   7   8
HETATM    8  O1  UNL     1      19.486   0.319  52.161  1.00  0.00    -0.362 OA
BRANCH   8   9
HETATM    9  C6  UNL     1      20.069   0.107  53.408  1.00  0.00     0.188 C 
BRANCH   9  10
HETATM   10  C5  UNL     1      21.241  -0.836  53.369  1.00  0.00     0.080 A 
HETATM   11  C2  UNL     1      22.491  -0.207  53.859  1.00  0.00    -0.055 A 
HETATM   12  C1  UNL     1      23.202   0.969  53.310  1.00  0.00     0.046 C 
HETATM   13  C3  UNL     1      22.937  -0.875  54.937  1.00  0.00     0.119 A 
HETATM   14  N1  UNL     1      22.036  -1.959  55.222  1.00  0.00    -0.276 NA
HETATM   15  C4  UNL     1      21.079  -1.952  54.354  1.00  0.00     0.100 A 
ENDBRANCH   9  10
ENDBRANCH   8   9
ENDBRANCH   7   8
ENDBRANCH   5   6
ENDBRANCH   3   4
ENDBRANCH   1   3
BRANCH   1  16
HETATM   16  C12 UNL     1      24.048   3.598  50.396  1.00  0.00     0.723 A 
HETATM   17  N3  UNL     1      24.752   4.332  49.521  1.00  0.00    -0.075 NA
HETATM   18  C13 UNL     1      26.083   4.243  49.363  1.00  0.00     0.139 A 
HETATM   19  C14 UNL     1      26.740   3.333  50.163  1.00  0.00     0.053 A 
HETATM   20  C15 UNL     1      26.054   2.561  51.075  1.00  0.00     0.089 A 
HETATM   21  N5  UNL     1      24.743   2.728  51.148  1.00  0.00    -0.062 NA
BRANCH  20  22
HETATM   22  C16 UNL     1      26.744   1.598  51.922  1.00  0.00     0.011 A 
HETATM   23  C17 UNL     1      26.550   0.246  51.937  1.00  0.00     0.017 A 
HETATM   24  C18 UNL     1      27.253  -0.591  52.776  1.00  0.00     0.020 A 
HETATM   25  C19 UNL     1      28.198  -0.080  53.647  1.00  0.00     0.116 A 
HETATM   26  N4  UNL     1      28.399   1.257  53.640  1.00  0.00    -0.272 NA
HETATM   27  C20 UNL     1      27.704   2.059  52.815  1.00  0.00     0.130 A 
ENDBRANCH  20  22
ENDBRANCH   1  16
TORSDOF 8
ENDMDL
