MODEL 1
REMARK VINA RESULT:      -8.2      0.000      0.000
REMARK  7 active torsions:
REMARK  status: ('A' for Active; 'I' for Inactive)
REMARK    1  A    between atoms: N1_9  and  C7_10 
REMARK    2  A    between atoms: C13_18  and  C14_19 
REMARK    3  A    between atoms: C14_19  and  C16_21 
REMARK    4  A    between atoms: C16_21  and  N4_22 
REMARK    5  A    between atoms: N4_22  and  C17_23 
REMARK    6  A    between atoms: C17_23  and  C18_24 
REMARK    7  A    between atoms: C19_26  and  O2_27 
ROOT
HETATM    1  C7  UNL     1      24.213   5.327  49.969  1.00  0.00     0.190 A 
HETATM    2  C8  UNL     1      23.423   5.019  48.814  1.00  0.00     0.102 C 
HETATM    3  N2  UNL     1      22.794   4.789  47.876  1.00  0.00    -0.194 NA
HETATM    4  C9  UNL     1      23.374   6.239  50.835  1.00  0.00     0.142 A 
HETATM    5  N3  UNL     1      23.873   7.415  50.976  1.00  0.00    -0.261 NA
HETATM    6  C10 UNL     1      25.095   7.489  50.249  1.00  0.00     0.066 A 
HETATM    7  C11 UNL     1      26.021   8.501  50.065  1.00  0.00     0.033 A 
HETATM    8  C12 UNL     1      27.172   8.347  49.295  1.00  0.00     0.010 A 
HETATM    9  C13 UNL     1      27.398   7.111  48.682  1.00  0.00    -0.052 A 
HETATM   10  C20 UNL     1      26.454   6.131  48.890  1.00  0.00     0.021 A 
HETATM   11  C21 UNL     1      25.324   6.273  49.643  1.00  0.00     0.019 A 
ENDROOT
BRANCH   1  12
HETATM   12  N1  UNL     1      24.628   4.244  50.783  1.00  0.00    -0.327 N 
HETATM   13  C2  UNL     1      25.559   3.178  50.756  1.00  0.00     0.034 C 
HETATM   14  C1  UNL     1      26.317   3.235  49.478  1.00  0.00     0.070 C 
HETATM   15  C3  UNL     1      25.637   2.339  51.774  1.00  0.00     0.096 C 
HETATM   16 CL1  UNL     1      26.836   1.082  51.588  1.00  0.00    -0.079 Cl
HETATM   17  C4  UNL     1      24.757   2.517  52.921  1.00  0.00     0.152 C 
HETATM   18  F1  UNL     1      24.834   1.563  53.895  1.00  0.00    -0.203 F 
HETATM   19  C5  UNL     1      23.948   3.521  53.014  1.00  0.00     0.035 C 
HETATM   20  C6  UNL     1      23.818   4.310  51.985  1.00  0.00     0.109 C 
ENDBRANCH   1  12
BRANCH   9  21
HETATM   21  C14 UNL     1      28.589   6.794  47.828  1.00  0.00     0.032 C 
HETATM   22  C15 UNL     1      29.095   5.382  48.160  1.00  0.00     0.017 C 
BRANCH  21  23
HETATM   23  C16 UNL     1      29.733   7.727  48.143  1.00  0.00     0.122 C 
BRANCH  23  24
HETATM   24  N4  UNL     1      30.505   7.365  49.288  1.00  0.00    -0.418 N 
HETATM   25  H14 UNL     1      30.131   6.643  49.904  1.00  0.00     0.153 HD
BRANCH  24  26
HETATM   26  C17 UNL     1      31.904   7.354  49.022  1.00  0.00     0.151 C 
BRANCH  26  27
HETATM   27  C18 UNL     1      32.565   6.034  49.343  1.00  0.00     0.197 A 
HETATM   28  O1  UNL     1      33.824   5.753  48.866  1.00  0.00    -0.347 OA
HETATM   29  C19 UNL     1      32.808   5.069  48.207  1.00  0.00     0.288 A 
BRANCH  29  30
HETATM   30  O2  UNL     1      32.604   3.721  48.466  1.00  0.00    -0.369 OA
HETATM   31  H19 UNL     1      33.195   3.178  47.884  1.00  0.00     0.212 HD
ENDBRANCH  29  30
ENDBRANCH  26  27
ENDBRANCH  24  26
ENDBRANCH  23  24
ENDBRANCH  21  23
ENDBRANCH   9  21
TORSDOF 7
ENDMDL
MODEL 2
REMARK VINA RESULT:      -8.1      5.595      7.079
REMARK  7 active torsions:
REMARK  status: ('A' for Active; 'I' for Inactive)
REMARK    1  A    between atoms: N1_9  and  C7_10 
REMARK    2  A    between atoms: C13_18  and  C14_19 
REMARK    3  A    between atoms: C14_19  and  C16_21 
REMARK    4  A    between atoms: C16_21  and  N4_22 
REMARK    5  A    between atoms: N4_22  and  C17_23 
REMARK    6  A    between atoms: C17_23  and  C18_24 
REMARK    7  A    between atoms: C19_26  and  O2_27 
ROOT
HETATM    1  C7  UNL     1      21.688   2.985  50.303  1.00  0.00     0.190 A 
HETATM    2  C8  UNL     1      22.121   2.585  48.997  1.00  0.00     0.102 C 
HETATM    3  N2  UNL     1      22.489   2.265  47.953  1.00  0.00    -0.194 NA
HETATM    4  C9  UNL     1      21.817   4.490  50.360  1.00  0.00     0.142 A 
HETATM    5  N3  UNL     1      22.676   4.900  51.222  1.00  0.00    -0.261 NA
HETATM    6  C10 UNL     1      23.254   3.772  51.872  1.00  0.00     0.066 A 
HETATM    7  C11 UNL     1      24.211   3.644  52.863  1.00  0.00     0.033 A 
HETATM    8  C12 UNL     1      24.633   2.412  53.358  1.00  0.00     0.010 A 
HETATM    9  C13 UNL     1      24.060   1.253  52.826  1.00  0.00    -0.052 A 
HETATM   10  C20 UNL     1      23.112   1.424  51.843  1.00  0.00     0.021 A 
HETATM   11  C21 UNL     1      22.692   2.626  51.352  1.00  0.00     0.019 A 
ENDROOT
BRANCH   1  12
HETATM   12  N1  UNL     1      20.359   2.665  50.676  1.00  0.00    -0.327 N 
HETATM   13  C2  UNL     1      19.550   1.523  50.889  1.00  0.00     0.034 C 
HETATM   14  C1  UNL     1      20.367   0.304  50.639  1.00  0.00     0.070 C 
HETATM   15  C3  UNL     1      18.288   1.661  51.250  1.00  0.00     0.096 C 
HETATM   16 CL1  UNL     1      17.427   0.158  51.475  1.00  0.00    -0.079 Cl
HETATM   17  C4  UNL     1      17.732   2.997  51.425  1.00  0.00     0.152 C 
HETATM   18  F1  UNL     1      16.400   3.064  51.715  1.00  0.00    -0.203 F 
HETATM   19  C5  UNL     1      18.459   4.060  51.314  1.00  0.00     0.035 C 
HETATM   20  C6  UNL     1      19.684   3.932  50.890  1.00  0.00     0.109 C 
ENDBRANCH   1  12
BRANCH   9  21
HETATM   21  C14 UNL     1      24.409  -0.139  53.257  1.00  0.00     0.032 C 
HETATM   22  C15 UNL     1      23.225  -0.748  54.023  1.00  0.00     0.017 C 
BRANCH  21  23
HETATM   23  C16 UNL     1      25.564  -0.122  54.229  1.00  0.00     0.122 C 
BRANCH  23  24
HETATM   24  N4  UNL     1      26.671  -0.945  53.862  1.00  0.00    -0.418 N 
HETATM   25  H14 UNL     1      26.478  -1.914  53.605  1.00  0.00     0.153 HD
BRANCH  24  26
HETATM   26  C17 UNL     1      27.649  -0.238  53.105  1.00  0.00     0.151 C 
BRANCH  26  27
HETATM   27  C18 UNL     1      27.915   1.156  53.624  1.00  0.00     0.197 A 
HETATM   28  O1  UNL     1      28.486   2.104  52.807  1.00  0.00    -0.347 OA
HETATM   29  C19 UNL     1      29.353   1.595  53.770  1.00  0.00     0.288 A 
BRANCH  29  30
HETATM   30  O2  UNL     1      29.673   2.359  54.882  1.00  0.00    -0.369 OA
HETATM   31  H19 UNL     1      29.566   1.813  55.702  1.00  0.00     0.212 HD
ENDBRANCH  29  30
ENDBRANCH  26  27
ENDBRANCH  24  26
ENDBRANCH  23  24
ENDBRANCH  21  23
ENDBRANCH   9  21
TORSDOF 7
ENDMDL
MODEL 3
REMARK VINA RESULT:      -8.0      3.617      6.483
REMARK  7 active torsions:
REMARK  status: ('A' for Active; 'I' for Inactive)
REMARK    1  A    between atoms: N1_9  and  C7_10 
REMARK    2  A    between atoms: C13_18  and  C14_19 
REMARK    3  A    between atoms: C14_19  and  C16_21 
REMARK    4  A    between atoms: C16_21  and  N4_22 
REMARK    5  A    between atoms: N4_22  and  C17_23 
REMARK    6  A    between atoms: C17_23  and  C18_24 
REMARK    7  A    between atoms: C19_26  and  O2_27 
ROOT
HETATM    1  C7  UNL     1      23.944   5.672  49.249  1.00  0.00     0.190 A 
HETATM    2  C8  UNL     1      23.390   6.664  50.123  1.00  0.00     0.102 C 
HETATM    3  N2  UNL     1      22.931   7.449  50.831  1.00  0.00    -0.194 NA
HETATM    4  C9  UNL     1      23.124   5.709  47.979  1.00  0.00     0.142 A 
HETATM    5  N3  UNL     1      22.478   4.622  47.753  1.00  0.00    -0.261 NA
HETATM    6  C10 UNL     1      22.745   3.698  48.802  1.00  0.00     0.066 A 
HETATM    7  C11 UNL     1      22.318   2.405  49.051  1.00  0.00     0.033 A 
HETATM    8  C12 UNL     1      22.717   1.674  50.167  1.00  0.00     0.010 A 
HETATM    9  C13 UNL     1      23.590   2.278  51.077  1.00  0.00    -0.052 A 
HETATM   10  C20 UNL     1      23.992   3.563  50.793  1.00  0.00     0.021 A 
HETATM   11  C21 UNL     1      23.607   4.287  49.702  1.00  0.00     0.019 A 
ENDROOT
BRANCH   1  12
HETATM   12  N1  UNL     1      25.302   5.817  48.874  1.00  0.00    -0.327 N 
HETATM   13  C2  UNL     1      26.161   6.793  48.313  1.00  0.00     0.034 C 
HETATM   14  C1  UNL     1      25.376   8.028  48.047  1.00  0.00     0.070 C 
HETATM   15  C3  UNL     1      27.437   6.517  48.113  1.00  0.00     0.096 C 
HETATM   16 CL1  UNL     1      28.363   7.824  47.417  1.00  0.00    -0.079 Cl
HETATM   17  C4  UNL     1      27.953   5.201  48.470  1.00  0.00     0.152 C 
HETATM   18  F1  UNL     1      29.259   4.959  48.154  1.00  0.00    -0.203 F 
HETATM   19  C5  UNL     1      27.217   4.312  49.052  1.00  0.00     0.035 C 
HETATM   20  C6  UNL     1      25.944   4.554  49.188  1.00  0.00     0.109 C 
ENDBRANCH   1  12
BRANCH   9  21
HETATM   21  C14 UNL     1      24.108   1.618  52.319  1.00  0.00     0.032 C 
HETATM   22  C15 UNL     1      22.935   1.004  53.098  1.00  0.00     0.017 C 
BRANCH  21  23
HETATM   23  C16 UNL     1      24.729   2.637  53.244  1.00  0.00     0.122 C 
BRANCH  23  24
HETATM   24  N4  UNL     1      26.135   2.487  53.446  1.00  0.00    -0.418 N 
HETATM   25  H14 UNL     1      26.684   3.332  53.604  1.00  0.00     0.153 HD
BRANCH  24  26
HETATM   26  C17 UNL     1      26.457   1.330  54.211  1.00  0.00     0.151 C 
BRANCH  26  27
HETATM   27  C18 UNL     1      27.575   0.508  53.614  1.00  0.00     0.197 A 
HETATM   28  O1  UNL     1      28.050  -0.602  54.272  1.00  0.00    -0.347 OA
HETATM   29  C19 UNL     1      28.904   0.494  54.330  1.00  0.00     0.288 A 
BRANCH  29  30
HETATM   30  O2  UNL     1      30.048   0.519  53.545  1.00  0.00    -0.369 OA
HETATM   31  H19 UNL     1      29.875   1.043  52.722  1.00  0.00     0.212 HD
ENDBRANCH  29  30
ENDBRANCH  26  27
ENDBRANCH  24  26
ENDBRANCH  23  24
ENDBRANCH  21  23
ENDBRANCH   9  21
TORSDOF 7
ENDMDL
MODEL 4
REMARK VINA RESULT:      -7.9      3.630      5.064
REMARK  7 active torsions:
REMARK  status: ('A' for Active; 'I' for Inactive)
REMARK    1  A    between atoms: N1_9  and  C7_10 
REMARK    2  A    between atoms: C13_18  and  C14_19 
REMARK    3  A    between atoms: C14_19  and  C16_21 
REMARK    4  A    between atoms: C16_21  and  N4_22 
REMARK    5  A    between atoms: N4_22  and  C17_23 
REMARK    6  A    between atoms: C17_23  and  C18_24 
REMARK    7  A    between atoms: C19_26  and  O2_27 
ROOT
HETATM    1  C7  UNL     1      21.479   1.949  51.483  1.00  0.00     0.190 A 
HETATM    2  C8  UNL     1      20.837   1.451  50.302  1.00  0.00     0.102 C 
HETATM    3  N2  UNL     1      20.322   1.069  49.345  1.00  0.00    -0.194 NA
HETATM    4  C9  UNL     1      20.411   2.645  52.294  1.00  0.00     0.142 A 
HETATM    5  N3  UNL     1      20.610   3.907  52.432  1.00  0.00    -0.261 NA
HETATM    6  C10 UNL     1      21.811   4.262  51.754  1.00  0.00     0.066 A 
HETATM    7  C11 UNL     1      22.479   5.462  51.587  1.00  0.00     0.033 A 
HETATM    8  C12 UNL     1      23.666   5.578  50.868  1.00  0.00     0.010 A 
HETATM    9  C13 UNL     1      24.206   4.425  50.290  1.00  0.00    -0.052 A 
HETATM   10  C20 UNL     1      23.512   3.251  50.480  1.00  0.00     0.021 A 
HETATM   11  C21 UNL     1      22.348   3.128  51.183  1.00  0.00     0.019 A 
ENDROOT
BRANCH   1  12
HETATM   12  N1  UNL     1      22.102   1.004  52.335  1.00  0.00    -0.327 N 
HETATM   13  C2  UNL     1      21.744  -0.044  53.218  1.00  0.00     0.034 C 
HETATM   14  C1  UNL     1      20.262  -0.170  53.236  1.00  0.00     0.070 C 
HETATM   15  C3  UNL     1      22.680  -0.721  53.858  1.00  0.00     0.096 C 
HETATM   16 CL1  UNL     1      22.076  -1.982  54.905  1.00  0.00    -0.079 Cl
HETATM   17  C4  UNL     1      24.082  -0.380  53.652  1.00  0.00     0.152 C 
HETATM   18  F1  UNL     1      24.987  -1.065  54.411  1.00  0.00    -0.203 F 
HETATM   19  C5  UNL     1      24.449   0.518  52.799  1.00  0.00     0.035 C 
HETATM   20  C6  UNL     1      23.529   1.235  52.218  1.00  0.00     0.109 C 
ENDBRANCH   1  12
BRANCH   9  21
HETATM   21  C14 UNL     1      25.475   4.391  49.492  1.00  0.00     0.032 C 
HETATM   22  C15 UNL     1      26.474   3.437  50.163  1.00  0.00     0.017 C 
BRANCH  21  23
HETATM   23  C16 UNL     1      26.138   5.747  49.489  1.00  0.00     0.122 C 
BRANCH  23  24
HETATM   24  N4  UNL     1      27.448   5.773  48.920  1.00  0.00    -0.418 N 
HETATM   25  H14 UNL     1      27.723   4.991  48.327  1.00  0.00     0.153 HD
BRANCH  24  26
HETATM   26  C17 UNL     1      27.844   7.083  48.524  1.00  0.00     0.151 C 
BRANCH  26  27
HETATM   27  C18 UNL     1      27.129   8.179  49.278  1.00  0.00     0.197 A 
HETATM   28  O1  UNL     1      27.135   9.469  48.800  1.00  0.00    -0.347 OA
HETATM   29  C19 UNL     1      27.966   9.273  49.899  1.00  0.00     0.288 A 
BRANCH  29  30
HETATM   30  O2  UNL     1      27.579   9.737  51.148  1.00  0.00    -0.369 OA
HETATM   31  H19 UNL     1      26.833   9.182  51.491  1.00  0.00     0.212 HD
ENDBRANCH  29  30
ENDBRANCH  26  27
ENDBRANCH  24  26
ENDBRANCH  23  24
ENDBRANCH  21  23
ENDBRANCH   9  21
TORSDOF 7
ENDMDL
MODEL 5
REMARK VINA RESULT:      -7.9      1.918      2.721
REMARK  7 active torsions:
REMARK  status: ('A' for Active; 'I' for Inactive)
REMARK    1  A    between atoms: N1_9  and  C7_10 
REMARK    2  A    between atoms: C13_18  and  C14_19 
REMARK    3  A    between atoms: C14_19  and  C16_21 
REMARK    4  A    between atoms: C16_21  and  N4_22 
REMARK    5  A    between atoms: N4_22  and  C17_23 
REMARK    6  A    between atoms: C17_23  and  C18_24 
REMARK    7  A    between atoms: C19_26  and  O2_27 
ROOT
HETATM    1  C7  UNL     1      23.625   3.224  50.949  1.00  0.00     0.190 A 
HETATM    2  C8  UNL     1      22.788   2.768  49.879  1.00  0.00     0.102 C 
HETATM    3  N2  UNL     1      22.114   2.419  49.012  1.00  0.00    -0.194 NA
HETATM    4  C9  UNL     1      22.706   3.805  51.999  1.00  0.00     0.142 A 
HETATM    5  N3  UNL     1      22.873   5.065  52.189  1.00  0.00    -0.261 NA
HETATM    6  C10 UNL     1      23.903   5.530  51.322  1.00  0.00     0.066 A 
HETATM    7  C11 UNL     1      24.473   6.775  51.120  1.00  0.00     0.033 A 
HETATM    8  C12 UNL     1      25.491   7.004  50.197  1.00  0.00     0.010 A 
HETATM    9  C13 UNL     1      25.957   5.923  49.443  1.00  0.00    -0.052 A 
HETATM   10  C20 UNL     1      25.365   4.702  49.675  1.00  0.00     0.021 A 
HETATM   11  C21 UNL     1      24.367   4.468  50.576  1.00  0.00     0.019 A 
ENDROOT
BRANCH   1  12
HETATM   12  N1  UNL     1      24.442   2.264  51.594  1.00  0.00    -0.327 N 
HETATM   13  C2  UNL     1      24.314   1.176  52.491  1.00  0.00     0.034 C 
HETATM   14  C1  UNL     1      22.879   1.014  52.847  1.00  0.00     0.070 C 
HETATM   15  C3  UNL     1      25.383   0.497  52.868  1.00  0.00     0.096 C 
HETATM   16 CL1  UNL     1      25.057  -0.815  53.974  1.00  0.00    -0.079 Cl
HETATM   17  C4  UNL     1      26.693   0.878  52.358  1.00  0.00     0.152 C 
HETATM   18  F1  UNL     1      27.760   0.188  52.858  1.00  0.00    -0.203 F 
HETATM   19  C5  UNL     1      26.840   1.816  51.480  1.00  0.00     0.035 C 
HETATM   20  C6  UNL     1      25.800   2.532  51.159  1.00  0.00     0.109 C 
ENDBRANCH   1  12
BRANCH   9  21
HETATM   21  C14 UNL     1      27.047   6.013  48.417  1.00  0.00     0.032 C 
HETATM   22  C15 UNL     1      27.976   4.797  48.552  1.00  0.00     0.017 C 
BRANCH  21  23
HETATM   23  C16 UNL     1      27.914   7.223  48.666  1.00  0.00     0.122 C 
BRANCH  23  24
HETATM   24  N4  UNL     1      28.606   7.713  47.516  1.00  0.00    -0.418 N 
HETATM   25  H14 UNL     1      28.154   8.442  46.965  1.00  0.00     0.153 HD
BRANCH  24  26
HETATM   26  C17 UNL     1      30.011   7.810  47.726  1.00  0.00     0.151 C 
BRANCH  26  27
HETATM   27  C18 UNL     1      30.433   7.458  49.134  1.00  0.00     0.197 A 
HETATM   28  O1  UNL     1      31.708   7.738  49.567  1.00  0.00    -0.347 OA
HETATM   29  C19 UNL     1      31.484   6.389  49.312  1.00  0.00     0.288 A 
BRANCH  29  30
HETATM   30  O2  UNL     1      31.318   5.505  50.368  1.00  0.00    -0.369 OA
HETATM   31  H19 UNL     1      30.383   5.550  50.694  1.00  0.00     0.212 HD
ENDBRANCH  29  30
ENDBRANCH  26  27
ENDBRANCH  24  26
ENDBRANCH  23  24
ENDBRANCH  21  23
ENDBRANCH   9  21
TORSDOF 7
ENDMDL
MODEL 6
REMARK VINA RESULT:      -7.9      2.870      3.833
REMARK  7 active torsions:
REMARK  status: ('A' for Active; 'I' for Inactive)
REMARK    1  A    between atoms: N1_9  and  C7_10 
REMARK    2  A    between atoms: C13_18  and  C14_19 
REMARK    3  A    between atoms: C14_19  and  C16_21 
REMARK    4  A    between atoms: C16_21  and  N4_22 
REMARK    5  A    between atoms: N4_22  and  C17_23 
REMARK    6  A    between atoms: C17_23  and  C18_24 
REMARK    7  A    between atoms: C19_26  and  O2_27 
ROOT
HETATM    1  C7  UNL     1      23.528   2.979  50.971  1.00  0.00     0.190 A 
HETATM    2  C8  UNL     1      22.749   2.469  49.882  1.00  0.00     0.102 C 
HETATM    3  N2  UNL     1      22.120   2.077  48.999  1.00  0.00    -0.194 NA
HETATM    4  C9  UNL     1      22.547   3.443  52.023  1.00  0.00     0.142 A 
HETATM    5  N3  UNL     1      22.589   4.708  52.243  1.00  0.00    -0.261 NA
HETATM    6  C10 UNL     1      23.577   5.292  51.399  1.00  0.00     0.066 A 
HETATM    7  C11 UNL     1      24.023   6.591  51.231  1.00  0.00     0.033 A 
HETATM    8  C12 UNL     1      25.023   6.939  50.326  1.00  0.00     0.010 A 
HETATM    9  C13 UNL     1      25.600   5.927  49.554  1.00  0.00    -0.052 A 
HETATM   10  C20 UNL     1      25.128   4.649  49.751  1.00  0.00     0.021 A 
HETATM   11  C21 UNL     1      24.149   4.298  50.635  1.00  0.00     0.019 A 
ENDROOT
BRANCH   1  12
HETATM   12  N1  UNL     1      24.429   2.088  51.604  1.00  0.00    -0.327 N 
HETATM   13  C2  UNL     1      24.402   0.992  52.499  1.00  0.00     0.034 C 
HETATM   14  C1  UNL     1      22.989   0.713  52.872  1.00  0.00     0.070 C 
HETATM   15  C3  UNL     1      25.527   0.403  52.862  1.00  0.00     0.096 C 
HETATM   16 CL1  UNL     1      25.324  -0.934  53.968  1.00  0.00    -0.079 Cl
HETATM   17  C4  UNL     1      26.796   0.891  52.336  1.00  0.00     0.152 C 
HETATM   18  F1  UNL     1      27.922   0.290  52.822  1.00  0.00    -0.203 F 
HETATM   19  C5  UNL     1      26.854   1.839  51.460  1.00  0.00     0.035 C 
HETATM   20  C6  UNL     1      25.755   2.468  51.153  1.00  0.00     0.109 C 
ENDBRANCH   1  12
BRANCH   9  21
HETATM   21  C14 UNL     1      26.685   6.147  48.542  1.00  0.00     0.032 C 
HETATM   22  C15 UNL     1      27.710   5.006  48.638  1.00  0.00     0.017 C 
BRANCH  21  23
HETATM   23  C16 UNL     1      27.448   7.413  48.846  1.00  0.00     0.122 C 
BRANCH  23  24
HETATM   24  N4  UNL     1      28.866   7.260  48.907  1.00  0.00    -0.418 N 
HETATM   25  H14 UNL     1      29.284   6.494  48.379  1.00  0.00     0.153 HD
BRANCH  24  26
HETATM   26  C17 UNL     1      29.549   8.510  48.923  1.00  0.00     0.151 C 
BRANCH  26  27
HETATM   27  C18 UNL     1      28.628   9.699  48.783  1.00  0.00     0.197 A 
HETATM   28  O1  UNL     1      28.727  10.531  47.692  1.00  0.00    -0.347 OA
HETATM   29  C19 UNL     1      29.235  11.079  48.866  1.00  0.00     0.288 A 
BRANCH  29  30
HETATM   30  O2  UNL     1      28.512  12.051  49.542  1.00  0.00    -0.369 OA
HETATM   31  H19 UNL     1      28.634  12.927  49.095  1.00  0.00     0.212 HD
ENDBRANCH  29  30
ENDBRANCH  26  27
ENDBRANCH  24  26
ENDBRANCH  23  24
ENDBRANCH  21  23
ENDBRANCH   9  21
TORSDOF 7
ENDMDL
MODEL 7
REMARK VINA RESULT:      -7.8      2.570      3.150
REMARK  7 active torsions:
REMARK  status: ('A' for Active; 'I' for Inactive)
REMARK    1  A    between atoms: N1_9  and  C7_10 
REMARK    2  A    between atoms: C13_18  and  C14_19 
REMARK    3  A    between atoms: C14_19  and  C16_21 
REMARK    4  A    between atoms: C16_21  and  N4_22 
REMARK    5  A    between atoms: N4_22  and  C17_23 
REMARK    6  A    between atoms: C17_23  and  C18_24 
REMARK    7  A    between atoms: C19_26  and  O2_27 
ROOT
HETATM    1  C7  UNL     1      24.187   5.332  49.969  1.00  0.00     0.190 A 
HETATM    2  C8  UNL     1      23.448   5.018  48.781  1.00  0.00     0.102 C 
HETATM    3  N2  UNL     1      22.860   4.783  47.819  1.00  0.00    -0.194 NA
HETATM    4  C9  UNL     1      23.289   6.202  50.818  1.00  0.00     0.142 A 
HETATM    5  N3  UNL     1      23.742   7.391  50.995  1.00  0.00    -0.261 NA
HETATM    6  C10 UNL     1      24.986   7.517  50.313  1.00  0.00     0.066 A 
HETATM    7  C11 UNL     1      25.883   8.562  50.177  1.00  0.00     0.033 A 
HETATM    8  C12 UNL     1      27.064   8.459  49.445  1.00  0.00     0.010 A 
HETATM    9  C13 UNL     1      27.353   7.242  48.821  1.00  0.00    -0.052 A 
HETATM   10  C20 UNL     1      26.435   6.228  48.982  1.00  0.00     0.021 A 
HETATM   11  C21 UNL     1      25.276   6.320  49.696  1.00  0.00     0.019 A 
ENDROOT
BRANCH   1  12
HETATM   12  N1  UNL     1      24.610   4.250  50.780  1.00  0.00    -0.327 N 
HETATM   13  C2  UNL     1      25.546   3.189  50.749  1.00  0.00     0.034 C 
HETATM   14  C1  UNL     1      26.301   3.252  49.468  1.00  0.00     0.070 C 
HETATM   15  C3  UNL     1      25.632   2.349  51.764  1.00  0.00     0.096 C 
HETATM   16 CL1  UNL     1      26.836   1.099  51.574  1.00  0.00    -0.079 Cl
HETATM   17  C4  UNL     1      24.753   2.520  52.915  1.00  0.00     0.152 C 
HETATM   18  F1  UNL     1      24.838   1.565  53.887  1.00  0.00    -0.203 F 
HETATM   19  C5  UNL     1      23.939   3.520  53.012  1.00  0.00     0.035 C 
HETATM   20  C6  UNL     1      23.802   4.309  51.984  1.00  0.00     0.109 C 
ENDBRANCH   1  12
BRANCH   9  21
HETATM   21  C14 UNL     1      28.582   6.979  48.005  1.00  0.00     0.032 C 
HETATM   22  C15 UNL     1      29.033   5.525  48.214  1.00  0.00     0.017 C 
BRANCH  21  23
HETATM   23  C16 UNL     1      29.730   7.838  48.479  1.00  0.00     0.122 C 
BRANCH  23  24
HETATM   24  N4  UNL     1      30.080   8.910  47.603  1.00  0.00    -0.418 N 
HETATM   25  H14 UNL     1      29.560   8.997  46.729  1.00  0.00     0.153 HD
BRANCH  24  26
HETATM   26  C17 UNL     1      30.407  10.104  48.306  1.00  0.00     0.151 C 
BRANCH  26  27
HETATM   27  C18 UNL     1      29.286  11.116  48.324  1.00  0.00     0.197 A 
HETATM   28  O1  UNL     1      29.394  12.287  47.610  1.00  0.00    -0.347 OA
HETATM   29  C19 UNL     1      29.545  12.449  48.984  1.00  0.00     0.288 A 
BRANCH  29  30
HETATM   30  O2  UNL     1      28.513  12.999  49.730  1.00  0.00    -0.369 OA
HETATM   31  H19 UNL     1      28.527  12.619  50.646  1.00  0.00     0.212 HD
ENDBRANCH  29  30
ENDBRANCH  26  27
ENDBRANCH  24  26
ENDBRANCH  23  24
ENDBRANCH  21  23
ENDBRANCH   9  21
TORSDOF 7
ENDMDL
MODEL 8
REMARK VINA RESULT:      -7.6      6.248      9.389
REMARK  7 active torsions:
REMARK  status: ('A' for Active; 'I' for Inactive)
REMARK    1  A    between atoms: N1_9  and  C7_10 
REMARK    2  A    between atoms: C13_18  and  C14_19 
REMARK    3  A    between atoms: C14_19  and  C16_21 
REMARK    4  A    between atoms: C16_21  and  N4_22 
REMARK    5  A    between atoms: N4_22  and  C17_23 
REMARK    6  A    between atoms: C17_23  and  C18_24 
REMARK    7  A    between atoms: C19_26  and  O2_27 
ROOT
HETATM    1  C7  UNL     1      33.918   6.615  47.841  1.00  0.00     0.190 A 
HETATM    2  C8  UNL     1      34.760   7.774  47.882  1.00  0.00     0.102 C 
HETATM    3  N2  UNL     1      35.450   8.697  47.904  1.00  0.00    -0.194 NA
HETATM    4  C9  UNL     1      34.460   5.651  48.872  1.00  0.00     0.142 A 
HETATM    5  N3  UNL     1      34.903   4.555  48.369  1.00  0.00    -0.261 NA
HETATM    6  C10 UNL     1      34.739   4.597  46.954  1.00  0.00     0.066 A 
HETATM    7  C11 UNL     1      35.040   3.699  45.945  1.00  0.00     0.033 A 
HETATM    8  C12 UNL     1      34.787   3.956  44.600  1.00  0.00     0.010 A 
HETATM    9  C13 UNL     1      34.201   5.178  44.257  1.00  0.00    -0.052 A 
HETATM   10  C20 UNL     1      33.917   6.043  45.290  1.00  0.00     0.021 A 
HETATM   11  C21 UNL     1      34.162   5.800  46.611  1.00  0.00     0.019 A 
ENDROOT
BRANCH   1  12
HETATM   12  N1  UNL     1      32.542   6.797  48.122  1.00  0.00    -0.327 N 
HETATM   13  C2  UNL     1      31.325   6.078  48.035  1.00  0.00     0.034 C 
HETATM   14  C1  UNL     1      31.606   4.727  47.479  1.00  0.00     0.070 C 
HETATM   15  C3  UNL     1      30.194   6.638  48.422  1.00  0.00     0.096 C 
HETATM   16 CL1  UNL     1      28.784   5.621  48.255  1.00  0.00    -0.079 Cl
HETATM   17  C4  UNL     1      30.206   8.002  48.935  1.00  0.00     0.152 C 
HETATM   18  F1  UNL     1      28.989   8.546  49.235  1.00  0.00    -0.203 F 
HETATM   19  C5  UNL     1      31.305   8.662  49.100  1.00  0.00     0.035 C 
HETATM   20  C6  UNL     1      32.413   8.140  48.655  1.00  0.00     0.109 C 
ENDBRANCH   1  12
BRANCH   9  21
HETATM   21  C14 UNL     1      33.867   5.595  42.856  1.00  0.00     0.032 C 
HETATM   22  C15 UNL     1      32.644   6.523  42.878  1.00  0.00     0.017 C 
BRANCH  21  23
HETATM   23  C16 UNL     1      33.464   4.400  42.027  1.00  0.00     0.122 C 
BRANCH  23  24
HETATM   24  N4  UNL     1      34.108   4.305  40.756  1.00  0.00    -0.418 N 
HETATM   25  H14 UNL     1      35.118   4.447  40.724  1.00  0.00     0.153 HD
BRANCH  24  26
HETATM   26  C17 UNL     1      33.553   3.281  39.938  1.00  0.00     0.151 C 
BRANCH  26  27
HETATM   27  C18 UNL     1      32.203   2.797  40.416  1.00  0.00     0.197 A 
HETATM   28  O1  UNL     1      31.788   1.515  40.142  1.00  0.00    -0.347 OA
HETATM   29  C19 UNL     1      31.153   2.488  39.376  1.00  0.00     0.288 A 
BRANCH  29  30
HETATM   30  O2  UNL     1      29.846   2.851  39.667  1.00  0.00    -0.369 OA
HETATM   31  H19 UNL     1      29.741   3.830  39.555  1.00  0.00     0.212 HD
ENDBRANCH  29  30
ENDBRANCH  26  27
ENDBRANCH  24  26
ENDBRANCH  23  24
ENDBRANCH  21  23
ENDBRANCH   9  21
TORSDOF 7
ENDMDL
MODEL 9
REMARK VINA RESULT:      -7.5      3.930      6.675
REMARK  7 active torsions:
REMARK  status: ('A' for Active; 'I' for Inactive)
REMARK    1  A    between atoms: N1_9  and  C7_10 
REMARK    2  A    between atoms: C13_18  and  C14_19 
REMARK    3  A    between atoms: C14_19  and  C16_21 
REMARK    4  A    between atoms: C16_21  and  N4_22 
REMARK    5  A    between atoms: N4_22  and  C17_23 
REMARK    6  A    between atoms: C17_23  and  C18_24 
REMARK    7  A    between atoms: C19_26  and  O2_27 
ROOT
HETATM    1  C7  UNL     1      23.146   5.327  49.542  1.00  0.00     0.190 A 
HETATM    2  C8  UNL     1      22.350   6.262  50.281  1.00  0.00     0.102 C 
HETATM    3  N2  UNL     1      21.698   6.999  50.881  1.00  0.00    -0.194 NA
HETATM    4  C9  UNL     1      22.418   5.072  48.242  1.00  0.00     0.142 A 
HETATM    5  N3  UNL     1      22.019   3.858  48.106  1.00  0.00    -0.261 NA
HETATM    6  C10 UNL     1      22.400   3.114  49.259  1.00  0.00     0.066 A 
HETATM    7  C11 UNL     1      22.226   1.791  49.625  1.00  0.00     0.033 A 
HETATM    8  C12 UNL     1      22.692   1.268  50.829  1.00  0.00     0.010 A 
HETATM    9  C13 UNL     1      23.366   2.123  51.706  1.00  0.00    -0.052 A 
HETATM   10  C20 UNL     1      23.519   3.431  51.304  1.00  0.00     0.021 A 
HETATM   11  C21 UNL     1      23.066   3.952  50.126  1.00  0.00     0.019 A 
ENDROOT
BRANCH   1  12
HETATM   12  N1  UNL     1      24.469   5.712  49.213  1.00  0.00    -0.327 N 
HETATM   13  C2  UNL     1      25.745   5.125  49.037  1.00  0.00     0.034 C 
HETATM   14  C1  UNL     1      25.635   3.660  49.276  1.00  0.00     0.070 C 
HETATM   15  C3  UNL     1      26.782   5.875  48.712  1.00  0.00     0.096 C 
HETATM   16 CL1  UNL     1      28.282   5.000  48.529  1.00  0.00    -0.079 Cl
HETATM   17  C4  UNL     1      26.604   7.311  48.539  1.00  0.00     0.152 C 
HETATM   18  F1  UNL     1      27.735   8.034  48.288  1.00  0.00    -0.203 F 
HETATM   19  C5  UNL     1      25.442   7.871  48.617  1.00  0.00     0.035 C 
HETATM   20  C6  UNL     1      24.430   7.148  49.005  1.00  0.00     0.109 C 
ENDBRANCH   1  12
BRANCH   9  21
HETATM   21  C14 UNL     1      23.926   1.707  53.032  1.00  0.00     0.032 C 
HETATM   22  C15 UNL     1      25.084   2.642  53.414  1.00  0.00     0.017 C 
BRANCH  21  23
HETATM   23  C16 UNL     1      24.525   0.323  52.948  1.00  0.00     0.122 C 
BRANCH  23  24
HETATM   24  N4  UNL     1      25.800   0.259  52.309  1.00  0.00    -0.418 N 
HETATM   25  H14 UNL     1      26.234   1.138  52.026  1.00  0.00     0.153 HD
BRANCH  24  26
HETATM   26  C17 UNL     1      26.639  -0.749  52.866  1.00  0.00     0.151 C 
BRANCH  26  27
HETATM   27  C18 UNL     1      27.984  -0.229  53.314  1.00  0.00     0.197 A 
HETATM   28  O1  UNL     1      28.761  -0.966  54.178  1.00  0.00    -0.347 OA
HETATM   29  C19 UNL     1      28.154   0.137  54.769  1.00  0.00     0.288 A 
BRANCH  29  30
HETATM   30  O2  UNL     1      28.905   1.267  55.056  1.00  0.00    -0.369 OA
HETATM   31  H19 UNL     1      29.798   1.188  54.634  1.00  0.00     0.212 HD
ENDBRANCH  29  30
ENDBRANCH  26  27
ENDBRANCH  24  26
ENDBRANCH  23  24
ENDBRANCH  21  23
ENDBRANCH   9  21
TORSDOF 7
ENDMDL
