MODEL 1
REMARK VINA RESULT:      -8.8      0.000      0.000
REMARK  8 active torsions:
REMARK  status: ('A' for Active; 'I' for Inactive)
REMARK    1  A    between atoms: C3_4  and  C4_5 
REMARK    2  A    between atoms: C5_6  and  N1_7 
REMARK    3  A    between atoms: C5_6  and  S1_30 
REMARK    4  A    between atoms: N1_7  and  C6_8 
REMARK    5  A    between atoms: C11_15  and  C12_16 
REMARK       I    between atoms: C12_16  and  N4_18 
REMARK    6  A    between atoms: N4_18  and  C13_19 
REMARK    7  A    between atoms: C13_19  and  C14_20 
REMARK    8  A    between atoms: C14_20  and  N5_21 
ROOT
HETATM    1  C6  UNL     1      25.560   3.393  49.966  1.00  0.00     0.142 A 
HETATM    2  N2  UNL     1      24.256   3.244  50.221  1.00  0.00    -0.224 NA
HETATM    3  C7  UNL     1      23.341   4.174  49.915  1.00  0.00     0.236 A 
HETATM    4  N3  UNL     1      23.736   5.300  49.333  1.00  0.00    -0.241 NA
HETATM    5  C8  UNL     1      25.047   5.526  49.042  1.00  0.00     0.072 A 
HETATM    6  C9  UNL     1      25.472   6.693  48.435  1.00  0.00     0.034 A 
HETATM    7  C10 UNL     1      26.828   6.863  48.161  1.00  0.00     0.019 A 
HETATM    8  C11 UNL     1      27.772   5.905  48.474  1.00  0.00     0.033 A 
HETATM    9  C21 UNL     1      27.299   4.760  49.078  1.00  0.00     0.034 A 
HETATM   10  C22 UNL     1      25.991   4.545  49.367  1.00  0.00     0.040 A 
ENDROOT
BRANCH   8  11
HETATM   11  C12 UNL     1      29.187   6.157  48.149  1.00  0.00     0.251 C 
HETATM   12  O1  UNL     1      29.382   6.774  47.071  1.00  0.00    -0.268 OA
HETATM   13  N4  UNL     1      30.226   5.726  48.999  1.00  0.00    -0.355 N 
HETATM   14  H10 UNL     1      30.035   5.221  49.878  1.00  0.00     0.162 HD
BRANCH  13  15
HETATM   15  C13 UNL     1      31.621   5.964  48.690  1.00  0.00     0.142 C 
BRANCH  15  16
HETATM   16  C14 UNL     1      32.361   4.760  48.217  1.00  0.00     0.137 C 
BRANCH  16  17
HETATM   17  N5  UNL     1      32.982   4.820  46.957  1.00  0.00    -0.407 N 
HETATM   18  C15 UNL     1      32.649   5.896  46.103  1.00  0.00     0.117 C 
HETATM   19  C16 UNL     1      33.613   6.128  44.979  1.00  0.00     0.019 C 
HETATM   20  C17 UNL     1      34.332   4.932  44.480  1.00  0.00     0.004 C 
HETATM   21  C18 UNL     1      34.785   3.986  45.554  1.00  0.00     0.024 C 
HETATM   22  C19 UNL     1      34.363   4.415  46.932  1.00  0.00     0.075 C 
HETATM   23  C20 UNL     1      34.581   3.274  47.882  1.00  0.00     0.032 C 
ENDBRANCH  16  17
ENDBRANCH  15  16
ENDBRANCH  13  15
ENDBRANCH   8  11
BRANCH   1  24
HETATM   24  N1  UNL     1      26.433   2.358  50.324  1.00  0.00    -0.334 N 
HETATM   25  H6  UNL     1      27.044   1.747  49.765  1.00  0.00     0.168 HD
BRANCH  24  26
HETATM   26  C5  UNL     1      26.635   1.940  51.662  1.00  0.00     0.087 C 
HETATM   27  C4  UNL     1      27.717   2.281  52.299  1.00  0.00     0.041 C 
BRANCH  27  28
HETATM   28  C3  UNL     1      28.592   2.310  53.437  1.00  0.00     0.040 C 
HETATM   29  C2  UNL     1      29.242   1.735  54.421  1.00  0.00     0.090 C 
HETATM   30  C1  UNL     1      28.968   0.257  54.410  1.00  0.00     0.082 C 
HETATM   31  F1  UNL     1      29.981   2.522  55.203  1.00  0.00    -0.211 F 
ENDBRANCH  27  28
BRANCH  26  32
HETATM   32  S1  UNL     1      25.311   0.956  52.321  1.00  0.00    -0.001 SA
HETATM   33 CL1  UNL     1      25.948  -0.959  52.848  1.00  0.00    -0.037 Cl
ENDBRANCH  26  32
ENDBRANCH  24  26
ENDBRANCH   1  24
TORSDOF 8
ENDMDL
MODEL 2
REMARK VINA RESULT:      -8.7      4.126      8.293
REMARK  8 active torsions:
REMARK  status: ('A' for Active; 'I' for Inactive)
REMARK    1  A    between atoms: C3_4  and  C4_5 
REMARK    2  A    between atoms: C5_6  and  N1_7 
REMARK    3  A    between atoms: C5_6  and  S1_30 
REMARK    4  A    between atoms: N1_7  and  C6_8 
REMARK    5  A    between atoms: C11_15  and  C12_16 
REMARK       I    between atoms: C12_16  and  N4_18 
REMARK    6  A    between atoms: N4_18  and  C13_19 
REMARK    7  A    between atoms: C13_19  and  C14_20 
REMARK    8  A    between atoms: C14_20  and  N5_21 
ROOT
HETATM    1  C6  UNL     1      29.586   6.301  47.672  1.00  0.00     0.142 A 
HETATM    2  N2  UNL     1      29.872   7.395  46.959  1.00  0.00    -0.224 NA
HETATM    3  C7  UNL     1      28.959   8.326  46.650  1.00  0.00     0.236 A 
HETATM    4  N3  UNL     1      27.708   8.165  47.067  1.00  0.00    -0.241 NA
HETATM    5  C8  UNL     1      27.339   7.077  47.799  1.00  0.00     0.072 A 
HETATM    6  C9  UNL     1      26.041   6.897  48.240  1.00  0.00     0.034 A 
HETATM    7  C10 UNL     1      25.727   5.764  48.987  1.00  0.00     0.019 A 
HETATM    8  C11 UNL     1      26.667   4.804  49.306  1.00  0.00     0.033 A 
HETATM    9  C21 UNL     1      27.946   5.028  48.843  1.00  0.00     0.034 A 
HETATM   10  C22 UNL     1      28.304   6.114  48.113  1.00  0.00     0.040 A 
ENDROOT
BRANCH   8  11
HETATM   11  C12 UNL     1      26.259   3.634  50.103  1.00  0.00     0.251 C 
HETATM   12  O1  UNL     1      26.778   2.545  49.752  1.00  0.00    -0.268 OA
HETATM   13  N4  UNL     1      25.351   3.755  51.177  1.00  0.00    -0.355 N 
HETATM   14  H10 UNL     1      24.941   4.664  51.442  1.00  0.00     0.162 HD
BRANCH  13  15
HETATM   15  C13 UNL     1      24.939   2.613  51.967  1.00  0.00     0.142 C 
BRANCH  15  16
HETATM   16  C14 UNL     1      25.800   2.342  53.152  1.00  0.00     0.137 C 
BRANCH  16  17
HETATM   17  N5  UNL     1      26.499   1.122  53.194  1.00  0.00    -0.407 N 
HETATM   18  C15 UNL     1      25.854  -0.030  52.690  1.00  0.00     0.117 C 
HETATM   19  C16 UNL     1      26.767  -1.181  52.392  1.00  0.00     0.019 C 
HETATM   20  C17 UNL     1      27.991  -1.275  53.223  1.00  0.00     0.004 C 
HETATM   21  C18 UNL     1      28.657   0.042  53.499  1.00  0.00     0.024 C 
HETATM   22  C19 UNL     1      27.909   1.212  52.921  1.00  0.00     0.075 C 
HETATM   23  C20 UNL     1      28.466   2.477  53.504  1.00  0.00     0.032 C 
ENDBRANCH  16  17
ENDBRANCH  15  16
ENDBRANCH  13  15
ENDBRANCH   8  11
BRANCH   1  24
HETATM   24  N1  UNL     1      30.616   5.391  47.942  1.00  0.00    -0.334 N 
HETATM   25  H6  UNL     1      30.621   4.471  48.404  1.00  0.00     0.168 HD
BRANCH  24  26
HETATM   26  C5  UNL     1      31.967   5.618  47.582  1.00  0.00     0.087 C 
HETATM   27  C4  UNL     1      32.436   5.146  46.465  1.00  0.00     0.041 C 
BRANCH  27  28
HETATM   28  C3  UNL     1      33.461   4.925  45.484  1.00  0.00     0.040 C 
HETATM   29  C2  UNL     1      34.559   4.347  45.057  1.00  0.00     0.090 C 
HETATM   30  C1  UNL     1      35.070   3.400  46.105  1.00  0.00     0.082 C 
HETATM   31  F1  UNL     1      34.993   4.689  43.844  1.00  0.00    -0.211 F 
ENDBRANCH  27  28
BRANCH  26  32
HETATM   32  S1  UNL     1      32.883   6.569  48.772  1.00  0.00    -0.001 SA
HETATM   33 CL1  UNL     1      34.942   6.376  48.508  1.00  0.00    -0.037 Cl
ENDBRANCH  26  32
ENDBRANCH  24  26
ENDBRANCH   1  24
TORSDOF 8
ENDMDL
MODEL 3
REMARK VINA RESULT:      -8.6      5.603     10.776
REMARK  8 active torsions:
REMARK  status: ('A' for Active; 'I' for Inactive)
REMARK    1  A    between atoms: C3_4  and  C4_5 
REMARK    2  A    between atoms: C5_6  and  N1_7 
REMARK    3  A    between atoms: C5_6  and  S1_30 
REMARK    4  A    between atoms: N1_7  and  C6_8 
REMARK    5  A    between atoms: C11_15  and  C12_16 
REMARK       I    between atoms: C12_16  and  N4_18 
REMARK    6  A    between atoms: N4_18  and  C13_19 
REMARK    7  A    between atoms: C13_19  and  C14_20 
REMARK    8  A    between atoms: C14_20  and  N5_21 
ROOT
HETATM    1  C6  UNL     1      25.707   0.537  52.740  1.00  0.00     0.142 A 
HETATM    2  N2  UNL     1      26.985   0.606  53.128  1.00  0.00    -0.224 NA
HETATM    3  C7  UNL     1      27.419   0.120  54.299  1.00  0.00     0.236 A 
HETATM    4  N3  UNL     1      26.550  -0.459  55.120  1.00  0.00    -0.241 NA
HETATM    5  C8  UNL     1      25.232  -0.567  54.795  1.00  0.00     0.072 A 
HETATM    6  C9  UNL     1      24.317  -1.168  55.639  1.00  0.00     0.034 A 
HETATM    7  C10 UNL     1      22.982  -1.249  55.248  1.00  0.00     0.019 A 
HETATM    8  C11 UNL     1      22.532  -0.749  54.042  1.00  0.00     0.033 A 
HETATM    9  C21 UNL     1      23.482  -0.159  53.237  1.00  0.00     0.034 A 
HETATM   10  C22 UNL     1      24.793  -0.054  53.570  1.00  0.00     0.040 A 
ENDROOT
BRANCH   8  11
HETATM   11  C12 UNL     1      21.105  -0.877  53.698  1.00  0.00     0.251 C 
HETATM   12  O1  UNL     1      20.509  -1.833  54.254  1.00  0.00    -0.268 OA
HETATM   13  N4  UNL     1      20.479   0.020  52.807  1.00  0.00    -0.355 N 
HETATM   14  H10 UNL     1      20.995   0.796  52.366  1.00  0.00     0.162 HD
BRANCH  13  15
HETATM   15  C13 UNL     1      19.078  -0.096  52.458  1.00  0.00     0.142 C 
BRANCH  15  16
HETATM   16  C14 UNL     1      18.769   0.221  51.035  1.00  0.00     0.137 C 
BRANCH  16  17
HETATM   17  N5  UNL     1      18.619   1.574  50.679  1.00  0.00    -0.407 N 
HETATM   18  C15 UNL     1      17.797   2.387  51.492  1.00  0.00     0.117 C 
HETATM   19  C16 UNL     1      17.996   3.861  51.309  1.00  0.00     0.019 C 
HETATM   20  C17 UNL     1      18.435   4.298  49.963  1.00  0.00     0.004 C 
HETATM   21  C18 UNL     1      19.464   3.409  49.326  1.00  0.00     0.024 C 
HETATM   22  C19 UNL     1      19.804   2.209  50.165  1.00  0.00     0.075 C 
HETATM   23  C20 UNL     1      20.585   1.239  49.328  1.00  0.00     0.032 C 
ENDBRANCH  16  17
ENDBRANCH  15  16
ENDBRANCH  13  15
ENDBRANCH   8  11
BRANCH   1  24
HETATM   24  N1  UNL     1      25.357   1.075  51.495  1.00  0.00    -0.334 N 
HETATM   25  H6  UNL     1      25.017   0.640  50.627  1.00  0.00     0.168 HD
BRANCH  24  26
HETATM   26  C5  UNL     1      25.427   2.458  51.199  1.00  0.00     0.087 C 
HETATM   27  C4  UNL     1      26.239   2.892  50.282  1.00  0.00     0.041 C 
BRANCH  27  28
HETATM   28  C3  UNL     1      26.855   3.909  49.476  1.00  0.00     0.040 C 
HETATM   29  C2  UNL     1      26.847   5.063  48.850  1.00  0.00     0.090 C 
HETATM   30  C1  UNL     1      25.510   5.724  49.030  1.00  0.00     0.082 C 
HETATM   31  F1  UNL     1      27.961   5.413  48.207  1.00  0.00    -0.211 F 
ENDBRANCH  27  28
BRANCH  26  32
HETATM   32  S1  UNL     1      24.334   3.463  52.177  1.00  0.00    -0.001 SA
HETATM   33 CL1  UNL     1      22.746   4.211  51.053  1.00  0.00    -0.037 Cl
ENDBRANCH  26  32
ENDBRANCH  24  26
ENDBRANCH   1  24
TORSDOF 8
ENDMDL
MODEL 4
REMARK VINA RESULT:      -8.5      7.451     13.057
REMARK  8 active torsions:
REMARK  status: ('A' for Active; 'I' for Inactive)
REMARK    1  A    between atoms: C3_4  and  C4_5 
REMARK    2  A    between atoms: C5_6  and  N1_7 
REMARK    3  A    between atoms: C5_6  and  S1_30 
REMARK    4  A    between atoms: N1_7  and  C6_8 
REMARK    5  A    between atoms: C11_15  and  C12_16 
REMARK       I    between atoms: C12_16  and  N4_18 
REMARK    6  A    between atoms: N4_18  and  C13_19 
REMARK    7  A    between atoms: C13_19  and  C14_20 
REMARK    8  A    between atoms: C14_20  and  N5_21 
ROOT
HETATM    1  C6  UNL     1      25.126   0.484  52.784  1.00  0.00     0.142 A 
HETATM    2  N2  UNL     1      26.376   0.457  53.260  1.00  0.00    -0.224 NA
HETATM    3  C7  UNL     1      26.700  -0.115  54.427  1.00  0.00     0.236 A 
HETATM    4  N3  UNL     1      25.746  -0.684  55.154  1.00  0.00    -0.241 NA
HETATM    5  C8  UNL     1      24.449  -0.697  54.737  1.00  0.00     0.072 A 
HETATM    6  C9  UNL     1      23.446  -1.286  55.483  1.00  0.00     0.034 A 
HETATM    7  C10 UNL     1      22.139  -1.269  55.000  1.00  0.00     0.019 A 
HETATM    8  C11 UNL     1      21.803  -0.680  53.797  1.00  0.00     0.033 A 
HETATM    9  C21 UNL     1      22.838  -0.106  53.091  1.00  0.00     0.034 A 
HETATM   10  C22 UNL     1      24.126  -0.096  53.516  1.00  0.00     0.040 A 
ENDROOT
BRANCH   8  11
HETATM   11  C12 UNL     1      20.398  -0.706  53.352  1.00  0.00     0.251 C 
HETATM   12  O1  UNL     1      20.159  -0.043  52.311  1.00  0.00    -0.268 OA
HETATM   13  N4  UNL     1      19.414  -1.430  54.058  1.00  0.00    -0.355 N 
HETATM   14  H10 UNL     1      19.641  -1.966  54.909  1.00  0.00     0.162 HD
BRANCH  13  15
HETATM   15  C13 UNL     1      18.030  -1.461  53.632  1.00  0.00     0.142 C 
BRANCH  15  16
HETATM   16  C14 UNL     1      17.511  -2.824  53.325  1.00  0.00     0.137 C 
BRANCH  16  17
HETATM   17  N5  UNL     1      16.158  -2.948  52.962  1.00  0.00    -0.407 N 
HETATM   18  C15 UNL     1      15.643  -2.048  52.001  1.00  0.00     0.117 C 
HETATM   19  C16 UNL     1      14.351  -2.474  51.372  1.00  0.00     0.019 C 
HETATM   20  C17 UNL     1      13.461  -3.310  52.212  1.00  0.00     0.004 C 
HETATM   21  C18 UNL     1      14.172  -4.350  53.028  1.00  0.00     0.024 C 
HETATM   22  C19 UNL     1      15.667  -4.298  52.873  1.00  0.00     0.075 C 
HETATM   23  C20 UNL     1      16.293  -5.144  53.942  1.00  0.00     0.032 C 
ENDBRANCH  16  17
ENDBRANCH  15  16
ENDBRANCH  13  15
ENDBRANCH   8  11
BRANCH   1  24
HETATM   24  N1  UNL     1      24.894   1.106  51.550  1.00  0.00    -0.334 N 
HETATM   25  H6  UNL     1      24.523   0.752  50.658  1.00  0.00     0.168 HD
BRANCH  24  26
HETATM   26  C5  UNL     1      25.167   2.475  51.308  1.00  0.00     0.087 C 
HETATM   27  C4  UNL     1      26.014   2.820  50.384  1.00  0.00     0.041 C 
BRANCH  27  28
HETATM   28  C3  UNL     1      26.758   3.766  49.601  1.00  0.00     0.040 C 
HETATM   29  C2  UNL     1      26.876   4.893  48.938  1.00  0.00     0.090 C 
HETATM   30  C1  UNL     1      25.573   5.640  48.979  1.00  0.00     0.082 C 
HETATM   31  F1  UNL     1      28.060   5.150  48.383  1.00  0.00    -0.211 F 
ENDBRANCH  27  28
BRANCH  26  32
HETATM   32  S1  UNL     1      24.264   3.589  52.356  1.00  0.00    -0.001 SA
HETATM   33 CL1  UNL     1      22.202   3.342  52.166  1.00  0.00    -0.037 Cl
ENDBRANCH  26  32
ENDBRANCH  24  26
ENDBRANCH   1  24
TORSDOF 8
ENDMDL
MODEL 5
REMARK VINA RESULT:      -8.5      6.034      8.598
REMARK  8 active torsions:
REMARK  status: ('A' for Active; 'I' for Inactive)
REMARK    1  A    between atoms: C3_4  and  C4_5 
REMARK    2  A    between atoms: C5_6  and  N1_7 
REMARK    3  A    between atoms: C5_6  and  S1_30 
REMARK    4  A    between atoms: N1_7  and  C6_8 
REMARK    5  A    between atoms: C11_15  and  C12_16 
REMARK       I    between atoms: C12_16  and  N4_18 
REMARK    6  A    between atoms: N4_18  and  C13_19 
REMARK    7  A    between atoms: C13_19  and  C14_20 
REMARK    8  A    between atoms: C14_20  and  N5_21 
ROOT
HETATM    1  C6  UNL     1      23.704  -0.305  53.406  1.00  0.00     0.142 A 
HETATM    2  N2  UNL     1      23.983  -0.997  54.516  1.00  0.00    -0.224 NA
HETATM    3  C7  UNL     1      23.038  -1.452  55.350  1.00  0.00     0.236 A 
HETATM    4  N3  UNL     1      21.762  -1.209  55.072  1.00  0.00    -0.241 NA
HETATM    5  C8  UNL     1      21.398  -0.511  53.961  1.00  0.00     0.072 A 
HETATM    6  C9  UNL     1      20.074  -0.252  53.660  1.00  0.00     0.034 A 
HETATM    7  C10 UNL     1      19.767   0.466  52.506  1.00  0.00     0.019 A 
HETATM    8  C11 UNL     1      20.739   0.935  51.645  1.00  0.00     0.033 A 
HETATM    9  C21 UNL     1      22.043   0.652  51.989  1.00  0.00     0.034 A 
HETATM   10  C22 UNL     1      22.396  -0.043  53.100  1.00  0.00     0.040 A 
ENDROOT
BRANCH   8  11
HETATM   11  C12 UNL     1      20.334   1.684  50.442  1.00  0.00     0.251 C 
HETATM   12  O1  UNL     1      19.487   1.104  49.716  1.00  0.00    -0.268 OA
HETATM   13  N4  UNL     1      20.872   2.954  50.149  1.00  0.00    -0.355 N 
HETATM   14  H10 UNL     1      21.566   3.405  50.765  1.00  0.00     0.162 HD
BRANCH  13  15
HETATM   15  C13 UNL     1      20.485   3.700  48.969  1.00  0.00     0.142 C 
BRANCH  15  16
HETATM   16  C14 UNL     1      21.082   5.062  48.878  1.00  0.00     0.137 C 
BRANCH  16  17
HETATM   17  N5  UNL     1      22.396   5.239  49.346  1.00  0.00    -0.407 N 
HETATM   18  C15 UNL     1      23.458   4.782  48.532  1.00  0.00     0.117 C 
HETATM   19  C16 UNL     1      24.802   5.347  48.879  1.00  0.00     0.019 C 
HETATM   20  C17 UNL     1      25.011   5.708  50.301  1.00  0.00     0.004 C 
HETATM   21  C18 UNL     1      23.830   6.366  50.955  1.00  0.00     0.024 C 
HETATM   22  C19 UNL     1      22.638   6.474  50.044  1.00  0.00     0.075 C 
HETATM   23  C20 UNL     1      21.438   6.846  50.863  1.00  0.00     0.032 C 
ENDBRANCH  16  17
ENDBRANCH  15  16
ENDBRANCH  13  15
ENDBRANCH   8  11
BRANCH   1  24
HETATM   24  N1  UNL     1      24.767   0.123  52.600  1.00  0.00    -0.334 N 
HETATM   25  H6  UNL     1      24.872   0.197  51.579  1.00  0.00     0.168 HD
BRANCH  24  26
HETATM   26  C5  UNL     1      26.006   0.570  53.123  1.00  0.00     0.087 C 
HETATM   27  C4  UNL     1      27.044  -0.212  53.105  1.00  0.00     0.041 C 
BRANCH  27  28
HETATM   28  C3  UNL     1      28.419  -0.542  53.360  1.00  0.00     0.040 C 
HETATM   29  C2  UNL     1      29.413  -1.392  53.462  1.00  0.00     0.090 C 
HETATM   30  C1  UNL     1      28.919  -2.781  53.171  1.00  0.00     0.082 C 
HETATM   31  F1  UNL     1      30.606  -0.895  53.787  1.00  0.00    -0.211 F 
ENDBRANCH  27  28
BRANCH  26  32
HETATM   32  S1  UNL     1      25.965   2.227  53.764  1.00  0.00    -0.001 SA
HETATM   33 CL1  UNL     1      24.270   3.265  53.136  1.00  0.00    -0.037 Cl
ENDBRANCH  26  32
ENDBRANCH  24  26
ENDBRANCH   1  24
TORSDOF 8
ENDMDL
MODEL 6
REMARK VINA RESULT:      -8.4      4.744      7.873
REMARK  8 active torsions:
REMARK  status: ('A' for Active; 'I' for Inactive)
REMARK    1  A    between atoms: C3_4  and  C4_5 
REMARK    2  A    between atoms: C5_6  and  N1_7 
REMARK    3  A    between atoms: C5_6  and  S1_30 
REMARK    4  A    between atoms: N1_7  and  C6_8 
REMARK    5  A    between atoms: C11_15  and  C12_16 
REMARK       I    between atoms: C12_16  and  N4_18 
REMARK    6  A    between atoms: N4_18  and  C13_19 
REMARK    7  A    between atoms: C13_19  and  C14_20 
REMARK    8  A    between atoms: C14_20  and  N5_21 
ROOT
HETATM    1  C6  UNL     1      25.877   7.398  49.031  1.00  0.00     0.142 A 
HETATM    2  N2  UNL     1      25.330   8.400  48.335  1.00  0.00    -0.224 NA
HETATM    3  C7  UNL     1      24.158   8.290  47.693  1.00  0.00     0.236 A 
HETATM    4  N3  UNL     1      23.502   7.136  47.744  1.00  0.00    -0.241 NA
HETATM    5  C8  UNL     1      23.995   6.069  48.431  1.00  0.00     0.072 A 
HETATM    6  C9  UNL     1      23.322   4.863  48.492  1.00  0.00     0.034 A 
HETATM    7  C10 UNL     1      23.878   3.809  49.215  1.00  0.00     0.019 A 
HETATM    8  C11 UNL     1      25.084   3.922  49.877  1.00  0.00     0.033 A 
HETATM    9  C21 UNL     1      25.716   5.143  49.786  1.00  0.00     0.034 A 
HETATM   10  C22 UNL     1      25.219   6.200  49.096  1.00  0.00     0.040 A 
ENDROOT
BRANCH   8  11
HETATM   11  C12 UNL     1      25.605   2.763  50.624  1.00  0.00     0.251 C 
HETATM   12  O1  UNL     1      26.820   2.507  50.427  1.00  0.00    -0.268 OA
HETATM   13  N4  UNL     1      24.781   2.013  51.489  1.00  0.00    -0.355 N 
HETATM   14  H10 UNL     1      23.787   2.248  51.631  1.00  0.00     0.162 HD
BRANCH  13  15
HETATM   15  C13 UNL     1      25.280   0.871  52.227  1.00  0.00     0.142 C 
BRANCH  15  16
HETATM   16  C14 UNL     1      26.190   1.216  53.356  1.00  0.00     0.137 C 
BRANCH  16  17
HETATM   17  N5  UNL     1      27.347   0.437  53.532  1.00  0.00    -0.407 N 
HETATM   18  C15 UNL     1      27.276  -0.939  53.214  1.00  0.00     0.117 C 
HETATM   19  C16 UNL     1      28.603  -1.611  53.036  1.00  0.00     0.019 C 
HETATM   20  C17 UNL     1      29.729  -1.050  53.819  1.00  0.00     0.004 C 
HETATM   21  C18 UNL     1      29.753   0.449  53.887  1.00  0.00     0.024 C 
HETATM   22  C19 UNL     1      28.584   1.088  53.189  1.00  0.00     0.075 C 
HETATM   23  C20 UNL     1      28.525   2.537  53.573  1.00  0.00     0.032 C 
ENDBRANCH  16  17
ENDBRANCH  15  16
ENDBRANCH  13  15
ENDBRANCH   8  11
BRANCH   1  24
HETATM   24  N1  UNL     1      27.105   7.619  49.667  1.00  0.00    -0.334 N 
HETATM   25  H6  UNL     1      27.412   7.483  50.640  1.00  0.00     0.168 HD
BRANCH  24  26
HETATM   26  C5  UNL     1      28.247   8.123  48.997  1.00  0.00     0.087 C 
HETATM   27  C4  UNL     1      28.774   9.254  49.361  1.00  0.00     0.041 C 
BRANCH  27  28
HETATM   28  C3  UNL     1      29.734  10.319  49.278  1.00  0.00     0.040 C 
HETATM   29  C2  UNL     1      30.777  10.907  48.742  1.00  0.00     0.090 C 
HETATM   30  C1  UNL     1      31.294  10.076  47.602  1.00  0.00     0.082 C 
HETATM   31  F1  UNL     1      31.164  12.065  49.278  1.00  0.00    -0.211 F 
ENDBRANCH  27  28
BRANCH  26  32
HETATM   32  S1  UNL     1      28.831   7.082  47.680  1.00  0.00    -0.001 SA
HETATM   33 CL1  UNL     1      28.820   5.066  48.215  1.00  0.00    -0.037 Cl
ENDBRANCH  26  32
ENDBRANCH  24  26
ENDBRANCH   1  24
TORSDOF 8
ENDMDL
MODEL 7
REMARK VINA RESULT:      -8.4      4.081      8.624
REMARK  8 active torsions:
REMARK  status: ('A' for Active; 'I' for Inactive)
REMARK    1  A    between atoms: C3_4  and  C4_5 
REMARK    2  A    between atoms: C5_6  and  N1_7 
REMARK    3  A    between atoms: C5_6  and  S1_30 
REMARK    4  A    between atoms: N1_7  and  C6_8 
REMARK    5  A    between atoms: C11_15  and  C12_16 
REMARK       I    between atoms: C12_16  and  N4_18 
REMARK    6  A    between atoms: N4_18  and  C13_19 
REMARK    7  A    between atoms: C13_19  and  C14_20 
REMARK    8  A    between atoms: C14_20  and  N5_21 
ROOT
HETATM    1  C6  UNL     1      30.419   6.305  47.462  1.00  0.00     0.142 A 
HETATM    2  N2  UNL     1      31.101   7.311  46.904  1.00  0.00    -0.224 NA
HETATM    3  C7  UNL     1      30.549   8.500  46.624  1.00  0.00     0.236 A 
HETATM    4  N3  UNL     1      29.268   8.699  46.910  1.00  0.00    -0.241 NA
HETATM    5  C8  UNL     1      28.507   7.724  47.479  1.00  0.00     0.072 A 
HETATM    6  C9  UNL     1      27.173   7.918  47.783  1.00  0.00     0.034 A 
HETATM    7  C10 UNL     1      26.449   6.881  48.367  1.00  0.00     0.019 A 
HETATM    8  C11 UNL     1      27.016   5.655  48.656  1.00  0.00     0.033 A 
HETATM    9  C21 UNL     1      28.348   5.510  48.335  1.00  0.00     0.034 A 
HETATM   10  C22 UNL     1      29.097   6.488  47.765  1.00  0.00     0.040 A 
ENDROOT
BRANCH   8  11
HETATM   11  C12 UNL     1      26.186   4.608  49.279  1.00  0.00     0.251 C 
HETATM   12  O1  UNL     1      24.970   4.639  48.965  1.00  0.00    -0.268 OA
HETATM   13  N4  UNL     1      26.741   3.654  50.157  1.00  0.00    -0.355 N 
HETATM   14  H10 UNL     1      27.744   3.654  50.395  1.00  0.00     0.162 HD
BRANCH  13  15
HETATM   15  C13 UNL     1      25.936   2.622  50.778  1.00  0.00     0.142 C 
BRANCH  15  16
HETATM   16  C14 UNL     1      26.390   2.222  52.140  1.00  0.00     0.137 C 
BRANCH  16  17
HETATM   17  N5  UNL     1      25.592   1.318  52.862  1.00  0.00    -0.407 N 
HETATM   18  C15 UNL     1      24.195   1.534  52.881  1.00  0.00     0.117 C 
HETATM   19  C16 UNL     1      23.383   0.349  53.308  1.00  0.00     0.019 C 
HETATM   20  C17 UNL     1      24.039  -0.586  54.253  1.00  0.00     0.004 C 
HETATM   21  C18 UNL     1      25.487  -0.850  53.960  1.00  0.00     0.024 C 
HETATM   22  C19 UNL     1      26.005  -0.059  52.790  1.00  0.00     0.075 C 
HETATM   23  C20 UNL     1      27.502  -0.147  52.772  1.00  0.00     0.032 C 
ENDBRANCH  16  17
ENDBRANCH  15  16
ENDBRANCH  13  15
ENDBRANCH   8  11
BRANCH   1  24
HETATM   24  N1  UNL     1      31.091   5.103  47.716  1.00  0.00    -0.334 N 
HETATM   25  H6  UNL     1      30.767   4.193  48.072  1.00  0.00     0.168 HD
BRANCH  24  26
HETATM   26  C5  UNL     1      32.481   4.929  47.500  1.00  0.00     0.087 C 
HETATM   27  C4  UNL     1      33.341   5.420  48.343  1.00  0.00     0.041 C 
BRANCH  27  28
HETATM   28  C3  UNL     1      34.664   5.682  48.834  1.00  0.00     0.040 C 
HETATM   29  C2  UNL     1      35.729   6.438  48.968  1.00  0.00     0.090 C 
HETATM   30  C1  UNL     1      35.516   7.738  48.245  1.00  0.00     0.082 C 
HETATM   31  F1  UNL     1      36.742   5.941  49.677  1.00  0.00    -0.211 F 
ENDBRANCH  27  28
BRANCH  26  32
HETATM   32  S1  UNL     1      32.876   4.016  46.028  1.00  0.00    -0.001 SA
HETATM   33 CL1  UNL     1      34.795   3.203  46.105  1.00  0.00    -0.037 Cl
ENDBRANCH  26  32
ENDBRANCH  24  26
ENDBRANCH   1  24
TORSDOF 8
ENDMDL
MODEL 8
REMARK VINA RESULT:      -8.3      6.741     12.658
REMARK  8 active torsions:
REMARK  status: ('A' for Active; 'I' for Inactive)
REMARK    1  A    between atoms: C3_4  and  C4_5 
REMARK    2  A    between atoms: C5_6  and  N1_7 
REMARK    3  A    between atoms: C5_6  and  S1_30 
REMARK    4  A    between atoms: N1_7  and  C6_8 
REMARK    5  A    between atoms: C11_15  and  C12_16 
REMARK       I    between atoms: C12_16  and  N4_18 
REMARK    6  A    between atoms: N4_18  and  C13_19 
REMARK    7  A    between atoms: C13_19  and  C14_20 
REMARK    8  A    between atoms: C14_20  and  N5_21 
ROOT
HETATM    1  C6  UNL     1      23.994   0.767  52.385  1.00  0.00     0.142 A 
HETATM    2  N2  UNL     1      25.248   0.646  52.833  1.00  0.00    -0.224 NA
HETATM    3  C7  UNL     1      25.575  -0.102  53.896  1.00  0.00     0.236 A 
HETATM    4  N3  UNL     1      24.617  -0.757  54.542  1.00  0.00    -0.241 NA
HETATM    5  C8  UNL     1      23.316  -0.683  54.147  1.00  0.00     0.072 A 
HETATM    6  C9  UNL     1      22.310  -1.360  54.810  1.00  0.00     0.034 A 
HETATM    7  C10 UNL     1      20.998  -1.246  54.354  1.00  0.00     0.019 A 
HETATM    8  C11 UNL     1      20.660  -0.476  53.259  1.00  0.00     0.033 A 
HETATM    9  C21 UNL     1      21.698   0.179  52.633  1.00  0.00     0.034 A 
HETATM   10  C22 UNL     1      22.991   0.102  53.035  1.00  0.00     0.040 A 
ENDROOT
BRANCH   8  11
HETATM   11  C12 UNL     1      19.250  -0.409  52.835  1.00  0.00     0.251 C 
HETATM   12  O1  UNL     1      18.460  -1.123  53.504  1.00  0.00    -0.268 OA
HETATM   13  N4  UNL     1      18.843   0.404  51.757  1.00  0.00    -0.355 N 
HETATM   14  H10 UNL     1      19.515   0.980  51.227  1.00  0.00     0.162 HD
BRANCH  13  15
HETATM   15  C13 UNL     1      17.461   0.477  51.329  1.00  0.00     0.142 C 
BRANCH  15  16
HETATM   16  C14 UNL     1      16.879   1.849  51.358  1.00  0.00     0.137 C 
BRANCH  16  17
HETATM   17  N5  UNL     1      15.589   2.006  51.896  1.00  0.00    -0.407 N 
HETATM   18  C15 UNL     1      14.939   0.860  52.407  1.00  0.00     0.117 C 
HETATM   19  C16 UNL     1      13.777   1.148  53.310  1.00  0.00     0.019 C 
HETATM   20  C17 UNL     1      13.042   2.408  53.045  1.00  0.00     0.004 C 
HETATM   21  C18 UNL     1      13.918   3.578  52.702  1.00  0.00     0.024 C 
HETATM   22  C19 UNL     1      15.377   3.222  52.637  1.00  0.00     0.075 C 
HETATM   23  C20 UNL     1      16.123   4.353  51.994  1.00  0.00     0.032 C 
ENDBRANCH  16  17
ENDBRANCH  15  16
ENDBRANCH  13  15
ENDBRANCH   8  11
BRANCH   1  24
HETATM   24  N1  UNL     1      23.760   1.572  51.263  1.00  0.00    -0.334 N 
HETATM   25  H6  UNL     1      23.150   1.453  50.443  1.00  0.00     0.168 HD
BRANCH  24  26
HETATM   26  C5  UNL     1      24.401   2.818  51.054  1.00  0.00     0.087 C 
HETATM   27  C4  UNL     1      25.395   2.913  50.221  1.00  0.00     0.041 C 
BRANCH  27  28
HETATM   28  C3  UNL     1      26.431   3.617  49.520  1.00  0.00     0.040 C 
HETATM   29  C2  UNL     1      26.932   4.688  48.951  1.00  0.00     0.090 C 
HETATM   30  C1  UNL     1      25.945   5.817  49.047  1.00  0.00     0.082 C 
HETATM   31  F1  UNL     1      28.152   4.582  48.423  1.00  0.00    -0.211 F 
ENDBRANCH  27  28
BRANCH  26  32
HETATM   32  S1  UNL     1      23.721   4.151  52.013  1.00  0.00    -0.001 SA
HETATM   33 CL1  UNL     1      21.663   3.948  52.282  1.00  0.00    -0.037 Cl
ENDBRANCH  26  32
ENDBRANCH  24  26
ENDBRANCH   1  24
TORSDOF 8
ENDMDL
MODEL 9
REMARK VINA RESULT:      -8.3      6.700     10.706
REMARK  8 active torsions:
REMARK  status: ('A' for Active; 'I' for Inactive)
REMARK    1  A    between atoms: C3_4  and  C4_5 
REMARK    2  A    between atoms: C5_6  and  N1_7 
REMARK    3  A    between atoms: C5_6  and  S1_30 
REMARK    4  A    between atoms: N1_7  and  C6_8 
REMARK    5  A    between atoms: C11_15  and  C12_16 
REMARK       I    between atoms: C12_16  and  N4_18 
REMARK    6  A    between atoms: N4_18  and  C13_19 
REMARK    7  A    between atoms: C13_19  and  C14_20 
REMARK    8  A    between atoms: C14_20  and  N5_21 
ROOT
HETATM    1  C6  UNL     1      25.504   2.270  52.589  1.00  0.00     0.142 A 
HETATM    2  N2  UNL     1      26.817   2.247  52.840  1.00  0.00    -0.224 NA
HETATM    3  C7  UNL     1      27.407   1.281  53.558  1.00  0.00     0.236 A 
HETATM    4  N3  UNL     1      26.662   0.297  54.049  1.00  0.00    -0.241 NA
HETATM    5  C8  UNL     1      25.318   0.251  53.837  1.00  0.00     0.072 A 
HETATM    6  C9  UNL     1      24.531  -0.768  54.341  1.00  0.00     0.034 A 
HETATM    7  C10 UNL     1      23.161  -0.759  54.086  1.00  0.00     0.019 A 
HETATM    8  C11 UNL     1      22.552   0.235  53.346  1.00  0.00     0.033 A 
HETATM    9  C21 UNL     1      23.379   1.228  52.866  1.00  0.00     0.034 A 
HETATM   10  C22 UNL     1      24.717   1.266  53.085  1.00  0.00     0.040 A 
ENDROOT
BRANCH   8  11
HETATM   11  C12 UNL     1      21.098   0.172  53.117  1.00  0.00     0.251 C 
HETATM   12  O1  UNL     1      20.404   0.015  54.153  1.00  0.00    -0.268 OA
HETATM   13  N4  UNL     1      20.551   0.282  51.821  1.00  0.00    -0.355 N 
HETATM   14  H10 UNL     1      21.147   0.411  50.989  1.00  0.00     0.162 HD
BRANCH  13  15
HETATM   15  C13 UNL     1      19.124   0.219  51.581  1.00  0.00     0.142 C 
BRANCH  15  16
HETATM   16  C14 UNL     1      18.451   1.547  51.521  1.00  0.00     0.137 C 
BRANCH  16  17
HETATM   17  N5  UNL     1      18.646   2.334  50.371  1.00  0.00    -0.407 N 
HETATM   18  C15 UNL     1      17.775   2.135  49.276  1.00  0.00     0.117 C 
HETATM   19  C16 UNL     1      17.769   3.245  48.269  1.00  0.00     0.019 C 
HETATM   20  C17 UNL     1      19.032   4.008  48.131  1.00  0.00     0.004 C 
HETATM   21  C18 UNL     1      19.728   4.297  49.430  1.00  0.00     0.024 C 
HETATM   22  C19 UNL     1      19.028   3.699  50.619  1.00  0.00     0.075 C 
HETATM   23  C20 UNL     1      19.944   3.770  51.805  1.00  0.00     0.032 C 
ENDBRANCH  16  17
ENDBRANCH  15  16
ENDBRANCH  13  15
ENDBRANCH   8  11
BRANCH   1  24
HETATM   24  N1  UNL     1      24.988   3.325  51.825  1.00  0.00    -0.334 N 
HETATM   25  H6  UNL     1      24.538   4.212  52.088  1.00  0.00     0.168 HD
BRANCH  24  26
HETATM   26  C5  UNL     1      25.006   3.338  50.408  1.00  0.00     0.087 C 
HETATM   27  C4  UNL     1      23.921   3.085  49.738  1.00  0.00     0.041 C 
BRANCH  27  28
HETATM   28  C3  UNL     1      23.157   2.911  48.535  1.00  0.00     0.040 C 
HETATM   29  C2  UNL     1      22.245   2.304  47.812  1.00  0.00     0.090 C 
HETATM   30  C1  UNL     1      21.639   1.182  48.605  1.00  0.00     0.082 C 
HETATM   31  F1  UNL     1      22.039   2.768  46.579  1.00  0.00    -0.211 F 
ENDBRANCH  27  28
BRANCH  26  32
HETATM   32  S1  UNL     1      26.594   3.719  49.708  1.00  0.00    -0.001 SA
HETATM   33 CL1  UNL     1      26.591   5.554  48.717  1.00  0.00    -0.037 Cl
ENDBRANCH  26  32
ENDBRANCH  24  26
ENDBRANCH   1  24
TORSDOF 8
ENDMDL
