MODEL 1
REMARK VINA RESULT:      -8.8      0.000      0.000
REMARK  3 active torsions:
REMARK  status: ('A' for Active; 'I' for Inactive)
REMARK    1  A    between atoms: O1_2  and  C2_3 
REMARK    2  A    between atoms: C11_15  and  N3_16 
REMARK    3  A    between atoms: N3_16  and  C12_17 
ROOT
HETATM    1  C2  UNL     1      21.506  -0.503  53.284  1.00  0.00     0.077 C 
HETATM    2  C3  UNL     1      22.473   0.221  52.666  1.00  0.00    -0.008 C 
HETATM    3  C4  UNL     1      23.931  -0.021  52.799  1.00  0.00     0.024 C 
HETATM    4  C5  UNL     1      24.721  -0.185  53.862  1.00  0.00    -0.016 C 
HETATM    5  C6  UNL     1      24.447  -0.951  55.102  1.00  0.00     0.037 C 
HETATM    6  C7  UNL     1      23.401  -1.476  55.764  1.00  0.00     0.136 C 
HETATM    7  O2  UNL     1      22.078  -1.666  55.318  1.00  0.00    -0.357 OA
HETATM    8  C8  UNL     1      21.463  -1.795  54.063  1.00  0.00     0.239 C 
HETATM    9  C9  UNL     1      26.045   0.310  54.127  1.00  0.00     0.129 C 
HETATM   10  N1  UNL     1      26.525   1.414  53.616  1.00  0.00    -0.253 NA
HETATM   11  C10 UNL     1      25.676   2.166  52.745  1.00  0.00     0.234 C 
HETATM   12  N2  UNL     1      25.435   2.470  51.504  1.00  0.00    -0.223 NA
HETATM   13  C11 UNL     1      24.391   3.332  51.127  1.00  0.00     0.144 C 
HETATM   14  C18 UNL     1      23.112   3.075  50.939  1.00  0.00     0.134 C 
HETATM   15  N4  UNL     1      22.215   1.988  50.995  1.00  0.00    -0.391 N 
HETATM   16  C19 UNL     1      21.561   1.144  51.966  1.00  0.00     0.160 C 
HETATM   17  H17 UNL     1      21.979   1.746  49.982  1.00  0.00     0.159 HD
ENDROOT
BRANCH  13  18
HETATM   18  N3  UNL     1      24.855   4.659  50.944  1.00  0.00    -0.340 N 
HETATM   19  H11 UNL     1      24.362   5.261  51.642  1.00  0.00     0.167 HD
BRANCH  18  20
HETATM   20  C12 UNL     1      25.807   5.138  50.005  1.00  0.00     0.035 A 
HETATM   21  C13 UNL     1      26.769   4.279  49.522  1.00  0.00     0.029 A 
HETATM   22  C14 UNL     1      27.694   4.770  48.607  1.00  0.00     0.004 A 
HETATM   23  C15 UNL     1      27.604   6.103  48.227  1.00  0.00     0.019 A 
HETATM   24  C16 UNL     1      26.629   6.928  48.733  1.00  0.00     0.013 A 
HETATM   25 BR1  UNL     1      26.554   8.761  48.175  1.00  0.00    -0.051 Br
HETATM   26  C17 UNL     1      25.693   6.462  49.648  1.00  0.00     0.048 A 
ENDBRANCH  18  20
ENDBRANCH  13  18
BRANCH   1  27
HETATM   27  O1  UNL     1      20.219   0.008  53.220  1.00  0.00    -0.357 OA
HETATM   28  C1  UNL     1      19.040  -0.737  53.192  1.00  0.00     0.209 C 
ENDBRANCH   1  27
TORSDOF 3
ENDMDL
MODEL 2
REMARK VINA RESULT:      -8.5      1.561      2.143
REMARK  3 active torsions:
REMARK  status: ('A' for Active; 'I' for Inactive)
REMARK    1  A    between atoms: O1_2  and  C2_3 
REMARK    2  A    between atoms: C11_15  and  N3_16 
REMARK    3  A    between atoms: N3_16  and  C12_17 
ROOT
HETATM    1  C2  UNL     1      22.819   0.184  53.068  1.00  0.00     0.077 C 
HETATM    2  C3  UNL     1      23.740   0.820  52.301  1.00  0.00    -0.008 C 
HETATM    3  C4  UNL     1      25.177   0.459  52.224  1.00  0.00     0.024 C 
HETATM    4  C5  UNL     1      26.099   0.240  53.165  1.00  0.00    -0.016 C 
HETATM    5  C6  UNL     1      25.950  -0.489  54.448  1.00  0.00     0.037 C 
HETATM    6  C7  UNL     1      24.973  -0.919  55.265  1.00  0.00     0.136 C 
HETATM    7  O2  UNL     1      23.588  -1.003  55.022  1.00  0.00    -0.357 OA
HETATM    8  C8  UNL     1      22.787  -1.092  53.873  1.00  0.00     0.239 C 
HETATM    9  C9  UNL     1      27.483   0.626  53.223  1.00  0.00     0.129 C 
HETATM   10  N1  UNL     1      27.970   1.682  52.625  1.00  0.00    -0.253 NA
HETATM   11  C10 UNL     1      27.066   2.494  51.870  1.00  0.00     0.234 C 
HETATM   12  N2  UNL     1      26.671   2.805  50.671  1.00  0.00    -0.223 NA
HETATM   13  C11 UNL     1      25.656   3.747  50.433  1.00  0.00     0.144 C 
HETATM   14  C18 UNL     1      24.347   3.595  50.438  1.00  0.00     0.134 C 
HETATM   15  N4  UNL     1      23.382   2.586  50.648  1.00  0.00    -0.391 N 
HETATM   16  C19 UNL     1      22.813   1.809  51.721  1.00  0.00     0.160 C 
HETATM   17  H17 UNL     1      22.981   2.355  49.684  1.00  0.00     0.159 HD
ENDROOT
BRANCH  13  18
HETATM   18  N3  UNL     1      26.193   5.029  50.156  1.00  0.00    -0.340 N 
HETATM   19  H11 UNL     1      27.231   4.962  50.264  1.00  0.00     0.167 HD
BRANCH  18  20
HETATM   20  C12 UNL     1      25.502   6.216  49.796  1.00  0.00     0.035 A 
HETATM   21  C13 UNL     1      24.914   6.979  50.781  1.00  0.00     0.029 A 
HETATM   22  C14 UNL     1      24.237   8.135  50.407  1.00  0.00     0.004 A 
HETATM   23  C15 UNL     1      24.185   8.462  49.058  1.00  0.00     0.019 A 
HETATM   24  C16 UNL     1      24.784   7.674  48.106  1.00  0.00     0.013 A 
HETATM   25 BR1  UNL     1      24.678   8.173  46.257  1.00  0.00    -0.051 Br
HETATM   26  C17 UNL     1      25.467   6.515  48.453  1.00  0.00     0.048 A 
ENDBRANCH  18  20
ENDBRANCH  13  18
BRANCH   1  27
HETATM   27  O1  UNL     1      21.582   0.800  53.181  1.00  0.00    -0.357 OA
HETATM   28  C1  UNL     1      20.459   0.275  53.823  1.00  0.00     0.209 C 
ENDBRANCH   1  27
TORSDOF 3
ENDMDL
MODEL 3
REMARK VINA RESULT:      -8.4      4.355      8.890
REMARK  3 active torsions:
REMARK  status: ('A' for Active; 'I' for Inactive)
REMARK    1  A    between atoms: O1_2  and  C2_3 
REMARK    2  A    between atoms: C11_15  and  N3_16 
REMARK    3  A    between atoms: N3_16  and  C12_17 
ROOT
HETATM    1  C2  UNL     1      28.325   6.137  48.149  1.00  0.00     0.077 C 
HETATM    2  C3  UNL     1      27.116   5.799  48.663  1.00  0.00    -0.008 C 
HETATM    3  C4  UNL     1      25.967   6.726  48.813  1.00  0.00     0.024 C 
HETATM    4  C5  UNL     1      25.862   7.945  49.345  1.00  0.00    -0.016 C 
HETATM    5  C6  UNL     1      26.808   9.082  49.233  1.00  0.00     0.037 C 
HETATM    6  C7  UNL     1      28.088   9.310  48.895  1.00  0.00     0.136 C 
HETATM    7  O2  UNL     1      29.000   8.450  48.252  1.00  0.00    -0.357 OA
HETATM    8  C8  UNL     1      28.885   7.331  47.414  1.00  0.00     0.239 C 
HETATM    9  C9  UNL     1      24.828   8.522  50.160  1.00  0.00     0.129 C 
HETATM   10  N1  UNL     1      24.053   7.827  50.953  1.00  0.00    -0.253 NA
HETATM   11  C10 UNL     1      24.254   6.412  51.004  1.00  0.00     0.234 C 
HETATM   12  N2  UNL     1      23.788   5.261  50.617  1.00  0.00    -0.223 NA
HETATM   13  C11 UNL     1      24.401   4.045  50.961  1.00  0.00     0.144 C 
HETATM   14  C18 UNL     1      25.414   3.422  50.394  1.00  0.00     0.134 C 
HETATM   15  N4  UNL     1      26.307   3.584  49.313  1.00  0.00    -0.391 N 
HETATM   16  C19 UNL     1      27.444   4.386  48.930  1.00  0.00     0.160 C 
HETATM   17  H17 UNL     1      26.005   2.877  48.571  1.00  0.00     0.159 HD
ENDROOT
BRANCH  13  18
HETATM   18  N3  UNL     1      23.789   3.460  52.098  1.00  0.00    -0.340 N 
HETATM   19  H11 UNL     1      23.146   4.174  52.508  1.00  0.00     0.167 HD
BRANCH  18  20
HETATM   20  C12 UNL     1      23.977   2.155  52.626  1.00  0.00     0.035 A 
HETATM   21  C13 UNL     1      22.988   1.211  52.460  1.00  0.00     0.029 A 
HETATM   22  C14 UNL     1      23.190  -0.059  52.990  1.00  0.00     0.004 A 
HETATM   23  C15 UNL     1      24.378  -0.313  53.662  1.00  0.00     0.019 A 
HETATM   24  C16 UNL     1      25.341   0.656  53.806  1.00  0.00     0.013 A 
HETATM   25 BR1  UNL     1      26.963   0.251  54.746  1.00  0.00    -0.051 Br
HETATM   26  C17 UNL     1      25.164   1.933  53.287  1.00  0.00     0.048 A 
ENDBRANCH  18  20
ENDBRANCH  13  18
BRANCH   1  27
HETATM   27  O1  UNL     1      29.340   5.203  48.296  1.00  0.00    -0.357 OA
HETATM   28  C1  UNL     1      30.647   5.330  47.824  1.00  0.00     0.209 C 
ENDBRANCH   1  27
TORSDOF 3
ENDMDL
MODEL 4
REMARK VINA RESULT:      -8.4      4.537      9.017
REMARK  3 active torsions:
REMARK  status: ('A' for Active; 'I' for Inactive)
REMARK    1  A    between atoms: O1_2  and  C2_3 
REMARK    2  A    between atoms: C11_15  and  N3_16 
REMARK    3  A    between atoms: N3_16  and  C12_17 
ROOT
HETATM    1  C2  UNL     1      28.295   6.167  48.203  1.00  0.00     0.077 C 
HETATM    2  C3  UNL     1      27.083   5.784  48.678  1.00  0.00    -0.008 C 
HETATM    3  C4  UNL     1      25.909   6.678  48.833  1.00  0.00     0.024 C 
HETATM    4  C5  UNL     1      25.763   7.876  49.402  1.00  0.00    -0.016 C 
HETATM    5  C6  UNL     1      26.683   9.038  49.350  1.00  0.00     0.037 C 
HETATM    6  C7  UNL     1      27.964   9.308  49.048  1.00  0.00     0.136 C 
HETATM    7  O2  UNL     1      28.911   8.491  48.399  1.00  0.00    -0.357 OA
HETATM    8  C8  UNL     1      28.841   7.398  47.522  1.00  0.00     0.239 C 
HETATM    9  C9  UNL     1      24.697   8.401  50.212  1.00  0.00     0.129 C 
HETATM   10  N1  UNL     1      23.922   7.661  50.963  1.00  0.00    -0.253 NA
HETATM   11  C10 UNL     1      24.156   6.251  50.972  1.00  0.00     0.234 C 
HETATM   12  N2  UNL     1      23.727   5.103  50.537  1.00  0.00    -0.223 NA
HETATM   13  C11 UNL     1      24.362   3.890  50.854  1.00  0.00     0.144 C 
HETATM   14  C18 UNL     1      25.402   3.311  50.290  1.00  0.00     0.134 C 
HETATM   15  N4  UNL     1      26.314   3.530  49.236  1.00  0.00    -0.391 N 
HETATM   16  C19 UNL     1      27.439   4.370  48.906  1.00  0.00     0.160 C 
HETATM   17  H17 UNL     1      26.046   2.842  48.464  1.00  0.00     0.159 HD
ENDROOT
BRANCH  13  18
HETATM   18  N3  UNL     1      23.739   3.253  51.957  1.00  0.00    -0.340 N 
HETATM   19  H11 UNL     1      23.959   3.818  52.808  1.00  0.00     0.167 HD
BRANCH  18  20
HETATM   20  C12 UNL     1      22.955   2.069  51.963  1.00  0.00     0.035 A 
HETATM   21  C13 UNL     1      22.182   1.766  50.863  1.00  0.00     0.029 A 
HETATM   22  C14 UNL     1      21.418   0.604  50.892  1.00  0.00     0.004 A 
HETATM   23  C15 UNL     1      21.470  -0.193  52.028  1.00  0.00     0.019 A 
HETATM   24  C16 UNL     1      22.254   0.144  53.104  1.00  0.00     0.013 A 
HETATM   25 BR1  UNL     1      22.286  -0.992  54.648  1.00  0.00    -0.051 Br
HETATM   26  C17 UNL     1      23.027   1.299  53.101  1.00  0.00     0.048 A 
ENDBRANCH  18  20
ENDBRANCH  13  18
BRANCH   1  27
HETATM   27  O1  UNL     1      29.328   5.253  48.342  1.00  0.00    -0.357 OA
HETATM   28  C1  UNL     1      30.642   5.426  47.905  1.00  0.00     0.209 C 
ENDBRANCH   1  27
TORSDOF 3
ENDMDL
MODEL 5
REMARK VINA RESULT:      -8.4      1.970      3.854
REMARK  3 active torsions:
REMARK  status: ('A' for Active; 'I' for Inactive)
REMARK    1  A    between atoms: O1_2  and  C2_3 
REMARK    2  A    between atoms: C11_15  and  N3_16 
REMARK    3  A    between atoms: N3_16  and  C12_17 
ROOT
HETATM    1  C2  UNL     1      25.471  -0.002  53.643  1.00  0.00     0.077 C 
HETATM    2  C3  UNL     1      25.337   1.194  53.016  1.00  0.00    -0.008 C 
HETATM    3  C4  UNL     1      24.110   2.027  53.030  1.00  0.00     0.024 C 
HETATM    4  C5  UNL     1      22.829   1.744  52.782  1.00  0.00    -0.016 C 
HETATM    5  C6  UNL     1      22.058   0.543  53.184  1.00  0.00     0.037 C 
HETATM    6  C7  UNL     1      22.280  -0.710  53.618  1.00  0.00     0.136 C 
HETATM    7  O2  UNL     1      23.477  -1.284  54.089  1.00  0.00    -0.357 OA
HETATM    8  C8  UNL     1      24.663  -0.784  54.649  1.00  0.00     0.239 C 
HETATM    9  C9  UNL     1      21.827   2.494  52.074  1.00  0.00     0.129 C 
HETATM   10  N1  UNL     1      22.095   3.342  51.114  1.00  0.00    -0.253 NA
HETATM   11  C10 UNL     1      23.467   3.526  50.755  1.00  0.00     0.234 C 
HETATM   12  N2  UNL     1      24.490   4.323  50.855  1.00  0.00    -0.223 NA
HETATM   13  C11 UNL     1      25.734   4.030  50.273  1.00  0.00     0.144 C 
HETATM   14  C18 UNL     1      26.723   3.287  50.727  1.00  0.00     0.134 C 
HETATM   15  N4  UNL     1      27.047   2.500  51.853  1.00  0.00    -0.391 N 
HETATM   16  C19 UNL     1      26.699   1.235  52.453  1.00  0.00     0.160 C 
HETATM   17  H17 UNL     1      27.773   3.057  52.405  1.00  0.00     0.159 HD
ENDROOT
BRANCH  13  18
HETATM   18  N3  UNL     1      25.876   4.657  49.009  1.00  0.00    -0.340 N 
HETATM   19  H11 UNL     1      25.117   4.288  48.392  1.00  0.00     0.167 HD
BRANCH  18  20
HETATM   20  C12 UNL     1      26.846   5.610  48.602  1.00  0.00     0.035 A 
HETATM   21  C13 UNL     1      26.458   6.911  48.367  1.00  0.00     0.029 A 
HETATM   22  C14 UNL     1      27.423   7.827  47.964  1.00  0.00     0.004 A 
HETATM   23  C15 UNL     1      28.732   7.386  47.817  1.00  0.00     0.019 A 
HETATM   24  C16 UNL     1      29.079   6.080  48.062  1.00  0.00     0.013 A 
HETATM   25 BR1  UNL     1      30.901   5.525  47.841  1.00  0.00    -0.051 Br
HETATM   26  C17 UNL     1      28.135   5.144  48.465  1.00  0.00     0.048 A 
ENDBRANCH  18  20
ENDBRANCH  13  18
BRANCH   1  27
HETATM   27  O1  UNL     1      26.606  -0.736  53.333  1.00  0.00    -0.357 OA
HETATM   28  C1  UNL     1      26.637  -1.947  52.642  1.00  0.00     0.209 C 
ENDBRANCH   1  27
TORSDOF 3
ENDMDL
MODEL 6
REMARK VINA RESULT:      -8.3      1.594      2.468
REMARK  3 active torsions:
REMARK  status: ('A' for Active; 'I' for Inactive)
REMARK    1  A    between atoms: O1_2  and  C2_3 
REMARK    2  A    between atoms: C11_15  and  N3_16 
REMARK    3  A    between atoms: N3_16  and  C12_17 
ROOT
HETATM    1  C2  UNL     1      19.269   0.937  51.254  1.00  0.00     0.077 C 
HETATM    2  C3  UNL     1      20.582   1.223  51.072  1.00  0.00    -0.008 C 
HETATM    3  C4  UNL     1      21.708   0.361  51.506  1.00  0.00     0.024 C 
HETATM    4  C5  UNL     1      21.989  -0.230  52.670  1.00  0.00    -0.016 C 
HETATM    5  C6  UNL     1      21.061  -0.914  53.603  1.00  0.00     0.037 C 
HETATM    6  C7  UNL     1      19.743  -0.991  53.850  1.00  0.00     0.136 C 
HETATM    7  O2  UNL     1      18.666  -0.545  53.059  1.00  0.00    -0.357 OA
HETATM    8  C8  UNL     1      18.484  -0.275  51.694  1.00  0.00     0.239 C 
HETATM    9  C9  UNL     1      23.242  -0.387  53.358  1.00  0.00     0.129 C 
HETATM   10  N1  UNL     1      24.247   0.442  53.239  1.00  0.00    -0.253 NA
HETATM   11  C10 UNL     1      24.081   1.567  52.371  1.00  0.00     0.234 C 
HETATM   12  N2  UNL     1      24.385   2.061  51.208  1.00  0.00    -0.223 NA
HETATM   13  C11 UNL     1      23.935   3.322  50.783  1.00  0.00     0.144 C 
HETATM   14  C18 UNL     1      22.789   3.665  50.230  1.00  0.00     0.134 C 
HETATM   15  N4  UNL     1      21.574   3.076  49.820  1.00  0.00    -0.391 N 
HETATM   16  C19 UNL     1      20.373   2.513  50.387  1.00  0.00     0.160 C 
HETATM   17  H17 UNL     1      21.599   3.057  48.752  1.00  0.00     0.159 HD
ENDROOT
BRANCH  13  18
HETATM   18  N3  UNL     1      24.908   4.326  51.018  1.00  0.00    -0.340 N 
HETATM   19  H11 UNL     1      24.861   4.574  52.032  1.00  0.00     0.167 HD
BRANCH  18  20
HETATM   20  C12 UNL     1      25.802   4.921  50.089  1.00  0.00     0.035 A 
HETATM   21  C13 UNL     1      26.792   4.152  49.517  1.00  0.00     0.029 A 
HETATM   22  C14 UNL     1      27.660   4.756  48.615  1.00  0.00     0.004 A 
HETATM   23  C15 UNL     1      27.488   6.105  48.334  1.00  0.00     0.019 A 
HETATM   24  C16 UNL     1      26.489   6.838  48.926  1.00  0.00     0.013 A 
HETATM   25 BR1  UNL     1      26.299   8.699  48.504  1.00  0.00    -0.051 Br
HETATM   26  C17 UNL     1      25.608   6.259  49.831  1.00  0.00     0.048 A 
ENDBRANCH  18  20
ENDBRANCH  13  18
BRANCH   1  27
HETATM   27  O1  UNL     1      18.372   1.961  50.986  1.00  0.00    -0.357 OA
HETATM   28  C1  UNL     1      16.988   1.830  50.869  1.00  0.00     0.209 C 
ENDBRANCH   1  27
TORSDOF 3
ENDMDL
MODEL 7
REMARK VINA RESULT:      -8.2      4.963      9.574
REMARK  3 active torsions:
REMARK  status: ('A' for Active; 'I' for Inactive)
REMARK    1  A    between atoms: O1_2  and  C2_3 
REMARK    2  A    between atoms: C11_15  and  N3_16 
REMARK    3  A    between atoms: N3_16  and  C12_17 
ROOT
HETATM    1  C2  UNL     1      30.348   6.456  48.013  1.00  0.00     0.077 C 
HETATM    2  C3  UNL     1      29.021   6.525  48.289  1.00  0.00    -0.008 C 
HETATM    3  C4  UNL     1      28.233   7.780  48.366  1.00  0.00     0.024 C 
HETATM    4  C5  UNL     1      28.436   8.929  49.014  1.00  0.00    -0.016 C 
HETATM    5  C6  UNL     1      29.706   9.676  49.186  1.00  0.00     0.037 C 
HETATM    6  C7  UNL     1      31.030   9.470  49.080  1.00  0.00     0.136 C 
HETATM    7  O2  UNL     1      31.712   8.387  48.491  1.00  0.00    -0.357 OA
HETATM    8  C8  UNL     1      31.394   7.425  47.520  1.00  0.00     0.239 C 
HETATM    9  C9  UNL     1      27.515   9.778  49.720  1.00  0.00     0.129 C 
HETATM   10  N1  UNL     1      26.422   9.347  50.295  1.00  0.00    -0.253 NA
HETATM   11  C10 UNL     1      26.135   7.948  50.211  1.00  0.00     0.234 C 
HETATM   12  N2  UNL     1      25.398   7.052  49.623  1.00  0.00    -0.223 NA
HETATM   13  C11 UNL     1      25.503   5.681  49.913  1.00  0.00     0.144 C 
HETATM   14  C18 UNL     1      26.343   4.782  49.442  1.00  0.00     0.134 C 
HETATM   15  N4  UNL     1      27.425   4.689  48.541  1.00  0.00    -0.391 N 
HETATM   16  C19 UNL     1      28.811   5.072  48.437  1.00  0.00     0.160 C 
HETATM   17  H17 UNL     1      27.051   4.173  47.683  1.00  0.00     0.159 HD
ENDROOT
BRANCH  13  18
HETATM   18  N3  UNL     1      24.532   5.278  50.864  1.00  0.00    -0.340 N 
HETATM   19  H11 UNL     1      24.284   6.118  51.433  1.00  0.00     0.167 HD
BRANCH  18  20
HETATM   20  C12 UNL     1      23.968   3.988  51.055  1.00  0.00     0.035 A 
HETATM   21  C13 UNL     1      24.181   3.328  52.245  1.00  0.00     0.029 A 
HETATM   22  C14 UNL     1      23.625   2.064  52.409  1.00  0.00     0.004 A 
HETATM   23  C15 UNL     1      22.883   1.529  51.364  1.00  0.00     0.019 A 
HETATM   24  C16 UNL     1      22.693   2.220  50.192  1.00  0.00     0.013 A 
HETATM   25 BR1  UNL     1      21.662   1.431  48.781  1.00  0.00    -0.051 Br
HETATM   26  C17 UNL     1      23.238   3.483  50.003  1.00  0.00     0.048 A 
ENDBRANCH  18  20
ENDBRANCH  13  18
BRANCH   1  27
HETATM   27  O1  UNL     1      30.954   5.224  48.206  1.00  0.00    -0.357 OA
HETATM   28  C1  UNL     1      32.317   4.952  48.089  1.00  0.00     0.209 C 
ENDBRANCH   1  27
TORSDOF 3
ENDMDL
MODEL 8
REMARK VINA RESULT:      -8.1      1.651      3.743
REMARK  3 active torsions:
REMARK  status: ('A' for Active; 'I' for Inactive)
REMARK    1  A    between atoms: O1_2  and  C2_3 
REMARK    2  A    between atoms: C11_15  and  N3_16 
REMARK    3  A    between atoms: N3_16  and  C12_17 
ROOT
HETATM    1  C2  UNL     1      22.202   0.344  53.710  1.00  0.00     0.077 C 
HETATM    2  C3  UNL     1      22.665   1.346  52.921  1.00  0.00    -0.008 C 
HETATM    3  C4  UNL     1      21.813   2.279  52.144  1.00  0.00     0.024 C 
HETATM    4  C5  UNL     1      20.795   2.077  51.304  1.00  0.00    -0.016 C 
HETATM    5  C6  UNL     1      19.679   1.108  51.428  1.00  0.00     0.037 C 
HETATM    6  C7  UNL     1      19.372  -0.006  52.113  1.00  0.00     0.136 C 
HETATM    7  O2  UNL     1      20.018  -0.563  53.234  1.00  0.00    -0.357 OA
HETATM    8  C8  UNL     1      20.852  -0.063  54.246  1.00  0.00     0.239 C 
HETATM    9  C9  UNL     1      20.469   2.721  50.061  1.00  0.00     0.129 C 
HETATM   10  N1  UNL     1      21.357   3.261  49.265  1.00  0.00    -0.253 NA
HETATM   11  C10 UNL     1      22.728   3.202  49.665  1.00  0.00     0.234 C 
HETATM   12  N2  UNL     1      23.718   3.885  50.159  1.00  0.00    -0.223 NA
HETATM   13  C11 UNL     1      24.986   3.323  50.384  1.00  0.00     0.144 C 
HETATM   14  C18 UNL     1      25.427   2.622  51.408  1.00  0.00     0.134 C 
HETATM   15  N4  UNL     1      24.969   2.121  52.646  1.00  0.00    -0.391 N 
HETATM   16  C19 UNL     1      24.098   1.097  53.168  1.00  0.00     0.160 C 
HETATM   17  H17 UNL     1      25.433   2.722  53.398  1.00  0.00     0.159 HD
ENDROOT
BRANCH  13  18
HETATM   18  N3  UNL     1      25.867   3.585  49.305  1.00  0.00    -0.340 N 
HETATM   19  H11 UNL     1      25.973   2.696  48.766  1.00  0.00     0.167 HD
BRANCH  18  20
HETATM   20  C12 UNL     1      26.515   4.804  48.973  1.00  0.00     0.035 A 
HETATM   21  C13 UNL     1      25.792   5.977  48.981  1.00  0.00     0.029 A 
HETATM   22  C14 UNL     1      26.445   7.158  48.647  1.00  0.00     0.004 A 
HETATM   23  C15 UNL     1      27.793   7.099  48.320  1.00  0.00     0.019 A 
HETATM   24  C16 UNL     1      28.479   5.909  48.323  1.00  0.00     0.013 A 
HETATM   25 BR1  UNL     1      30.340   5.885  47.861  1.00  0.00    -0.051 Br
HETATM   26  C17 UNL     1      27.851   4.714  48.653  1.00  0.00     0.048 A 
ENDBRANCH  18  20
ENDBRANCH  13  18
BRANCH   1  27
HETATM   27  O1  UNL     1      23.145  -0.560  54.175  1.00  0.00    -0.357 OA
HETATM   28  C1  UNL     1      23.015  -1.376  55.299  1.00  0.00     0.209 C 
ENDBRANCH   1  27
TORSDOF 3
ENDMDL
MODEL 9
REMARK VINA RESULT:      -8.0      4.666      8.120
REMARK  3 active torsions:
REMARK  status: ('A' for Active; 'I' for Inactive)
REMARK    1  A    between atoms: O1_2  and  C2_3 
REMARK    2  A    between atoms: C11_15  and  N3_16 
REMARK    3  A    between atoms: N3_16  and  C12_17 
ROOT
HETATM    1  C2  UNL     1      25.646   6.552  48.476  1.00  0.00     0.077 C 
HETATM    2  C3  UNL     1      25.267   5.447  49.166  1.00  0.00    -0.008 C 
HETATM    3  C4  UNL     1      23.904   5.206  49.700  1.00  0.00     0.024 C 
HETATM    4  C5  UNL     1      23.081   5.957  50.435  1.00  0.00    -0.016 C 
HETATM    5  C6  UNL     1      22.814   7.412  50.319  1.00  0.00     0.037 C 
HETATM    6  C7  UNL     1      23.365   8.506  49.766  1.00  0.00     0.136 C 
HETATM    7  O2  UNL     1      24.402   8.591  48.816  1.00  0.00    -0.357 OA
HETATM    8  C8  UNL     1      24.933   7.724  47.848  1.00  0.00     0.239 C 
HETATM    9  C9  UNL     1      22.220   5.602  51.530  1.00  0.00     0.129 C 
HETATM   10  N1  UNL     1      22.447   4.600  52.340  1.00  0.00    -0.253 NA
HETATM   11  C10 UNL     1      23.623   3.819  52.115  1.00  0.00     0.234 C 
HETATM   12  N2  UNL     1      24.073   2.691  51.649  1.00  0.00    -0.223 NA
HETATM   13  C11 UNL     1      25.439   2.364  51.654  1.00  0.00     0.144 C 
HETATM   14  C18 UNL     1      26.386   2.685  50.796  1.00  0.00     0.134 C 
HETATM   15  N4  UNL     1      26.549   3.410  49.596  1.00  0.00    -0.391 N 
HETATM   16  C19 UNL     1      26.578   4.772  49.124  1.00  0.00     0.160 C 
HETATM   17  H17 UNL     1      26.685   2.681  48.826  1.00  0.00     0.159 HD
ENDROOT
BRANCH  13  18
HETATM   18  N3  UNL     1      25.778   1.573  52.781  1.00  0.00    -0.340 N 
HETATM   19  H11 UNL     1      25.376   2.042  53.624  1.00  0.00     0.167 HD
BRANCH  18  20
HETATM   20  C12 UNL     1      26.522   0.364  52.817  1.00  0.00     0.035 A 
HETATM   21  C13 UNL     1      25.916  -0.813  52.439  1.00  0.00     0.029 A 
HETATM   22  C14 UNL     1      26.661  -1.986  52.487  1.00  0.00     0.004 A 
HETATM   23  C15 UNL     1      27.980  -1.914  52.916  1.00  0.00     0.019 A 
HETATM   24  C16 UNL     1      28.548  -0.719  53.286  1.00  0.00     0.013 A 
HETATM   25 BR1  UNL     1      30.373  -0.678  53.873  1.00  0.00    -0.051 Br
HETATM   26  C17 UNL     1      27.826   0.467  53.247  1.00  0.00     0.048 A 
ENDBRANCH  18  20
ENDBRANCH  13  18
BRANCH   1  27
HETATM   27  O1  UNL     1      27.007   6.703  48.255  1.00  0.00    -0.357 OA
HETATM   28  C1  UNL     1      27.603   7.636  47.406  1.00  0.00     0.209 C 
ENDBRANCH   1  27
TORSDOF 3
ENDMDL
