MODEL 1
REMARK VINA RESULT:      -7.8      0.000      0.000
REMARK  5 active torsions:
REMARK  status: ('A' for Active; 'I' for Inactive)
REMARK    1  A    between atoms: C2_2  and  C4_4 
REMARK    2  A    between atoms: C4_4  and  C5_5 
REMARK    3  A    between atoms: C9_10  and  N2_11 
REMARK    4  A    between atoms: N2_11  and  C10_12 
REMARK    5  A    between atoms: C15_18  and  O1_19 
ROOT
HETATM    1  C5  UNL     1      22.606   0.949  52.524  1.00  0.00     0.090 C 
HETATM    2  C6  UNL     1      22.178   1.888  51.695  1.00  0.00     0.028 C 
HETATM    3  C7  UNL     1      22.767   2.110  50.538  1.00  0.00     0.103 C 
HETATM    4  N1  UNL     1      24.120   2.617  50.525  1.00  0.00    -0.358 N 
HETATM    5  C8  UNL     1      25.203   2.354  51.448  1.00  0.00     0.132 A 
HETATM    6  C9  UNL     1      26.427   2.761  50.959  1.00  0.00     0.161 A 
HETATM    7  N3  UNL     1      27.457   2.527  51.790  1.00  0.00    -0.222 NA
HETATM    8  C16 UNL     1      27.283   1.937  53.004  1.00  0.00     0.238 A 
HETATM    9  N4  UNL     1      26.068   1.559  53.432  1.00  0.00    -0.215 NA
HETATM   10  C17 UNL     1      24.970   1.741  52.693  1.00  0.00     0.202 A 
HETATM   11  O2  UNL     1      23.745   1.304  53.242  1.00  0.00    -0.289 OA
HETATM   12  H9  UNL     1      24.355   3.270  49.728  1.00  0.00     0.165 HD
ENDROOT
BRANCH   6  13
HETATM   13  N2  UNL     1      26.497   3.375  49.681  1.00  0.00    -0.337 N 
HETATM   14  H10 UNL     1      26.234   2.855  48.804  1.00  0.00     0.167 HD
BRANCH  13  15
HETATM   15  C10 UNL     1      26.860   4.635  49.162  1.00  0.00     0.068 A 
HETATM   16  C11 UNL     1      28.050   4.926  48.551  1.00  0.00     0.032 A 
HETATM   17  C12 UNL     1      28.385   6.170  48.067  1.00  0.00     0.004 A 
HETATM   18  C13 UNL     1      27.452   7.197  48.209  1.00  0.00     0.022 A 
HETATM   19  C14 UNL     1      26.231   6.967  48.815  1.00  0.00     0.046 A 
HETATM   20 BR1  UNL     1      25.005   8.439  48.979  1.00  0.00    -0.048 Br
HETATM   21  C15 UNL     1      25.972   5.712  49.269  1.00  0.00     0.109 A 
BRANCH  21  22
HETATM   22  O1  UNL     1      24.733   5.515  49.875  1.00  0.00    -0.357 OA
HETATM   23  H14 UNL     1      24.489   5.956  50.758  1.00  0.00     0.217 HD
ENDBRANCH  21  22
ENDBRANCH  13  15
ENDBRANCH   6  13
BRANCH   1  24
HETATM   24  C4  UNL     1      21.854  -0.275  52.565  1.00  0.00     0.040 C 
BRANCH  24  25
HETATM   25  C2  UNL     1      21.071  -0.763  53.487  1.00  0.00    -0.085 C 
HETATM   26  C1  UNL     1      19.567  -0.671  53.432  1.00  0.00     0.043 C 
HETATM   27  C3  UNL     1      21.583  -1.475  54.686  1.00  0.00     0.043 C 
ENDBRANCH  24  25
ENDBRANCH   1  24
TORSDOF 5
ENDMDL
MODEL 2
REMARK VINA RESULT:      -7.7      2.435      4.434
REMARK  5 active torsions:
REMARK  status: ('A' for Active; 'I' for Inactive)
REMARK    1  A    between atoms: C2_2  and  C4_4 
REMARK    2  A    between atoms: C4_4  and  C5_5 
REMARK    3  A    between atoms: C9_10  and  N2_11 
REMARK    4  A    between atoms: N2_11  and  C10_12 
REMARK    5  A    between atoms: C15_18  and  O1_19 
ROOT
HETATM    1  C5  UNL     1      26.048   0.341  52.410  1.00  0.00     0.090 C 
HETATM    2  C6  UNL     1      26.836   1.119  51.685  1.00  0.00     0.028 C 
HETATM    3  C7  UNL     1      26.974   2.401  51.949  1.00  0.00     0.103 C 
HETATM    4  N1  UNL     1      25.838   3.279  51.782  1.00  0.00    -0.358 N 
HETATM    5  C8  UNL     1      24.433   3.005  51.996  1.00  0.00     0.132 A 
HETATM    6  C9  UNL     1      23.669   4.153  52.034  1.00  0.00     0.161 A 
HETATM    7  N3  UNL     1      22.358   3.935  52.237  1.00  0.00    -0.222 NA
HETATM    8  C16 UNL     1      21.852   2.681  52.389  1.00  0.00     0.238 A 
HETATM    9  N4  UNL     1      22.642   1.596  52.345  1.00  0.00    -0.215 NA
HETATM   10  C17 UNL     1      23.960   1.689  52.149  1.00  0.00     0.202 A 
HETATM   11  O2  UNL     1      24.693   0.483  52.121  1.00  0.00    -0.289 OA
HETATM   12  H9  UNL     1      26.062   4.261  51.461  1.00  0.00     0.165 HD
ENDROOT
BRANCH   6  13
HETATM   13  N2  UNL     1      24.297   5.414  51.854  1.00  0.00    -0.337 N 
HETATM   14  H10 UNL     1      24.963   5.805  52.569  1.00  0.00     0.167 HD
BRANCH  13  15
HETATM   15  C10 UNL     1      24.298   6.434  50.881  1.00  0.00     0.068 A 
HETATM   16  C11 UNL     1      23.304   7.358  50.703  1.00  0.00     0.032 A 
HETATM   17  C12 UNL     1      23.322   8.335  49.734  1.00  0.00     0.004 A 
HETATM   18  C13 UNL     1      24.425   8.385  48.880  1.00  0.00     0.022 A 
HETATM   19  C14 UNL     1      25.463   7.481  49.010  1.00  0.00     0.046 A 
HETATM   20 BR1  UNL     1      26.941   7.613  47.788  1.00  0.00    -0.048 Br
HETATM   21  C15 UNL     1      25.373   6.545  49.991  1.00  0.00     0.109 A 
BRANCH  21  22
HETATM   22  O1  UNL     1      26.435   5.649  50.093  1.00  0.00    -0.357 OA
HETATM   23  H14 UNL     1      26.406   4.728  49.663  1.00  0.00     0.217 HD
ENDBRANCH  21  22
ENDBRANCH  13  15
ENDBRANCH   6  13
BRANCH   1  24
HETATM   24  C4  UNL     1      26.685  -0.520  53.368  1.00  0.00     0.040 C 
BRANCH  24  25
HETATM   25  C2  UNL     1      27.929  -0.592  53.753  1.00  0.00    -0.085 C 
HETATM   26  C1  UNL     1      28.511   0.269  54.845  1.00  0.00     0.043 C 
HETATM   27  C3  UNL     1      28.902  -1.547  53.162  1.00  0.00     0.043 C 
ENDBRANCH  24  25
ENDBRANCH   1  24
TORSDOF 5
ENDMDL
MODEL 3
REMARK VINA RESULT:      -7.7      3.450      5.923
REMARK  5 active torsions:
REMARK  status: ('A' for Active; 'I' for Inactive)
REMARK    1  A    between atoms: C2_2  and  C4_4 
REMARK    2  A    between atoms: C4_4  and  C5_5 
REMARK    3  A    between atoms: C9_10  and  N2_11 
REMARK    4  A    between atoms: N2_11  and  C10_12 
REMARK    5  A    between atoms: C15_18  and  O1_19 
ROOT
HETATM    1  C5  UNL     1      26.626  -0.303  53.840  1.00  0.00     0.090 C 
HETATM    2  C6  UNL     1      26.560   0.121  52.588  1.00  0.00     0.028 C 
HETATM    3  C7  UNL     1      25.794   1.134  52.240  1.00  0.00     0.103 C 
HETATM    4  N1  UNL     1      24.359   0.997  52.343  1.00  0.00    -0.358 N 
HETATM    5  C8  UNL     1      23.579   0.257  53.312  1.00  0.00     0.132 A 
HETATM    6  C9  UNL     1      22.242   0.596  53.287  1.00  0.00     0.161 A 
HETATM    7  N3  UNL     1      21.489  -0.070  54.179  1.00  0.00    -0.222 NA
HETATM    8  C16 UNL     1      22.022  -0.994  55.023  1.00  0.00     0.238 A 
HETATM    9  N4  UNL     1      23.332  -1.286  55.007  1.00  0.00    -0.215 NA
HETATM   10  C17 UNL     1      24.178  -0.689  54.164  1.00  0.00     0.202 A 
HETATM   11  O2  UNL     1      25.535  -1.073  54.234  1.00  0.00    -0.289 OA
HETATM   12  H9  UNL     1      23.797   1.511  51.610  1.00  0.00     0.165 HD
ENDROOT
BRANCH   6  13
HETATM   13  N2  UNL     1      21.788   1.569  52.358  1.00  0.00    -0.337 N 
HETATM   14  H10 UNL     1      21.246   2.417  52.667  1.00  0.00     0.167 HD
BRANCH  13  15
HETATM   15  C10 UNL     1      21.851   1.770  50.964  1.00  0.00     0.068 A 
HETATM   16  C11 UNL     1      21.396   0.892  50.017  1.00  0.00     0.032 A 
HETATM   17  C12 UNL     1      21.485   1.106  48.660  1.00  0.00     0.004 A 
HETATM   18  C13 UNL     1      22.076   2.292  48.225  1.00  0.00     0.022 A 
HETATM   19  C14 UNL     1      22.554   3.220  49.131  1.00  0.00     0.046 A 
HETATM   20 BR1  UNL     1      23.363   4.825  48.449  1.00  0.00    -0.048 Br
HETATM   21  C15 UNL     1      22.431   2.939  50.455  1.00  0.00     0.109 A 
BRANCH  21  22
HETATM   22  O1  UNL     1      22.924   3.894  51.342  1.00  0.00    -0.357 OA
HETATM   23  H14 UNL     1      23.920   4.075  51.439  1.00  0.00     0.217 HD
ENDBRANCH  21  22
ENDBRANCH  13  15
ENDBRANCH   6  13
BRANCH   1  24
HETATM   24  C4  UNL     1      27.786   0.081  54.597  1.00  0.00     0.040 C 
BRANCH  24  25
HETATM   25  C2  UNL     1      28.969   0.465  54.207  1.00  0.00    -0.085 C 
HETATM   26  C1  UNL     1      29.990  -0.470  53.610  1.00  0.00     0.043 C 
HETATM   27  C3  UNL     1      29.430   1.874  54.299  1.00  0.00     0.043 C 
ENDBRANCH  24  25
ENDBRANCH   1  24
TORSDOF 5
ENDMDL
MODEL 4
REMARK VINA RESULT:      -7.6      2.670      7.603
REMARK  5 active torsions:
REMARK  status: ('A' for Active; 'I' for Inactive)
REMARK    1  A    between atoms: C2_2  and  C4_4 
REMARK    2  A    between atoms: C4_4  and  C5_5 
REMARK    3  A    between atoms: C9_10  and  N2_11 
REMARK    4  A    between atoms: N2_11  and  C10_12 
REMARK    5  A    between atoms: C15_18  and  O1_19 
ROOT
HETATM    1  C5  UNL     1      25.857   4.463  49.413  1.00  0.00     0.090 C 
HETATM    2  C6  UNL     1      24.581   4.208  49.167  1.00  0.00     0.028 C 
HETATM    3  C7  UNL     1      23.688   4.157  50.133  1.00  0.00     0.103 C 
HETATM    4  N1  UNL     1      23.780   3.104  51.120  1.00  0.00    -0.358 N 
HETATM    5  C8  UNL     1      24.958   2.469  51.669  1.00  0.00     0.132 A 
HETATM    6  C9  UNL     1      24.681   1.727  52.800  1.00  0.00     0.161 A 
HETATM    7  N3  UNL     1      25.755   1.126  53.340  1.00  0.00    -0.222 NA
HETATM    8  C16 UNL     1      26.999   1.253  52.800  1.00  0.00     0.238 A 
HETATM    9  N4  UNL     1      27.213   1.989  51.699  1.00  0.00    -0.215 NA
HETATM   10  C17 UNL     1      26.222   2.632  51.074  1.00  0.00     0.202 A 
HETATM   11  O2  UNL     1      26.562   3.376  49.924  1.00  0.00    -0.289 OA
HETATM   12  H9  UNL     1      22.858   2.749  51.497  1.00  0.00     0.165 HD
ENDROOT
BRANCH   6  13
HETATM   13  N2  UNL     1      23.345   1.653  53.275  1.00  0.00    -0.337 N 
HETATM   14  H10 UNL     1      22.825   2.511  53.595  1.00  0.00     0.167 HD
BRANCH  13  15
HETATM   15  C10 UNL     1      22.377   0.648  53.473  1.00  0.00     0.068 A 
HETATM   16  C11 UNL     1      22.530  -0.448  54.279  1.00  0.00     0.032 A 
HETATM   17  C12 UNL     1      21.574  -1.424  54.444  1.00  0.00     0.004 A 
HETATM   18  C13 UNL     1      20.375  -1.286  53.743  1.00  0.00     0.022 A 
HETATM   19  C14 UNL     1      20.159  -0.202  52.914  1.00  0.00     0.046 A 
HETATM   20 BR1  UNL     1      18.484  -0.091  51.978  1.00  0.00    -0.048 Br
HETATM   21  C15 UNL     1      21.150   0.722  52.802  1.00  0.00     0.109 A 
BRANCH  21  22
HETATM   22  O1  UNL     1      20.901   1.801  51.958  1.00  0.00    -0.357 OA
HETATM   23  H14 UNL     1      19.957   2.081  51.706  1.00  0.00     0.217 HD
ENDBRANCH  21  22
ENDBRANCH  13  15
ENDBRANCH   6  13
BRANCH   1  24
HETATM   24  C4  UNL     1      26.322   5.792  49.126  1.00  0.00     0.040 C 
BRANCH  24  25
HETATM   25  C2  UNL     1      27.344   6.204  48.429  1.00  0.00    -0.085 C 
HETATM   26  C1  UNL     1      28.642   5.443  48.328  1.00  0.00     0.043 C 
HETATM   27  C3  UNL     1      27.330   7.467  47.646  1.00  0.00     0.043 C 
ENDBRANCH  24  25
ENDBRANCH   1  24
TORSDOF 5
ENDMDL
MODEL 5
REMARK VINA RESULT:      -7.6      2.536      5.016
REMARK  5 active torsions:
REMARK  status: ('A' for Active; 'I' for Inactive)
REMARK    1  A    between atoms: C2_2  and  C4_4 
REMARK    2  A    between atoms: C4_4  and  C5_5 
REMARK    3  A    between atoms: C9_10  and  N2_11 
REMARK    4  A    between atoms: N2_11  and  C10_12 
REMARK    5  A    between atoms: C15_18  and  O1_19 
ROOT
HETATM    1  C5  UNL     1      26.454  -0.151  53.262  1.00  0.00     0.090 C 
HETATM    2  C6  UNL     1      26.790   0.213  52.035  1.00  0.00     0.028 C 
HETATM    3  C7  UNL     1      26.498   1.407  51.563  1.00  0.00     0.103 C 
HETATM    4  N1  UNL     1      25.111   1.763  51.364  1.00  0.00    -0.358 N 
HETATM    5  C8  UNL     1      23.948   1.372  52.131  1.00  0.00     0.132 A 
HETATM    6  C9  UNL     1      22.838   2.138  51.839  1.00  0.00     0.161 A 
HETATM    7  N3  UNL     1      21.740   1.804  52.539  1.00  0.00    -0.222 NA
HETATM    8  C16 UNL     1      21.747   0.794  53.451  1.00  0.00     0.238 A 
HETATM    9  N4  UNL     1      22.856   0.080  53.698  1.00  0.00    -0.215 NA
HETATM   10  C17 UNL     1      24.007   0.320  53.063  1.00  0.00     0.202 A 
HETATM   11  O2  UNL     1      25.110  -0.493  53.403  1.00  0.00    -0.289 OA
HETATM   12  H9  UNL     1      24.917   2.401  50.544  1.00  0.00     0.165 HD
ENDROOT
BRANCH   6  13
HETATM   13  N2  UNL     1      22.937   3.163  50.862  1.00  0.00    -0.337 N 
HETATM   14  H10 UNL     1      23.097   2.943  49.846  1.00  0.00     0.167 HD
BRANCH  13  15
HETATM   15  C10 UNL     1      22.878   4.572  50.838  1.00  0.00     0.068 A 
HETATM   16  C11 UNL     1      21.737   5.318  50.964  1.00  0.00     0.032 A 
HETATM   17  C12 UNL     1      21.705   6.693  50.921  1.00  0.00     0.004 A 
HETATM   18  C13 UNL     1      22.913   7.367  50.738  1.00  0.00     0.022 A 
HETATM   19  C14 UNL     1      24.100   6.671  50.606  1.00  0.00     0.046 A 
HETATM   20 BR1  UNL     1      25.719   7.675  50.349  1.00  0.00    -0.048 Br
HETATM   21  C15 UNL     1      24.052   5.314  50.659  1.00  0.00     0.109 A 
BRANCH  21  22
HETATM   22  O1  UNL     1      25.266   4.644  50.522  1.00  0.00    -0.357 OA
HETATM   23  H14 UNL     1      25.356   3.805  49.954  1.00  0.00     0.217 HD
ENDBRANCH  21  22
ENDBRANCH  13  15
ENDBRANCH   6  13
BRANCH   1  24
HETATM   24  C4  UNL     1      27.495  -0.144  54.252  1.00  0.00     0.040 C 
BRANCH  24  25
HETATM   25  C2  UNL     1      28.767   0.125  54.149  1.00  0.00    -0.085 C 
HETATM   26  C1  UNL     1      29.348   1.494  54.394  1.00  0.00     0.043 C 
HETATM   27  C3  UNL     1      29.781  -0.899  53.791  1.00  0.00     0.043 C 
ENDBRANCH  24  25
ENDBRANCH   1  24
TORSDOF 5
ENDMDL
MODEL 6
REMARK VINA RESULT:      -7.6      4.353      7.809
REMARK  5 active torsions:
REMARK  status: ('A' for Active; 'I' for Inactive)
REMARK    1  A    between atoms: C2_2  and  C4_4 
REMARK    2  A    between atoms: C4_4  and  C5_5 
REMARK    3  A    between atoms: C9_10  and  N2_11 
REMARK    4  A    between atoms: N2_11  and  C10_12 
REMARK    5  A    between atoms: C15_18  and  O1_19 
ROOT
HETATM    1  C5  UNL     1      25.986  -0.085  53.133  1.00  0.00     0.090 C 
HETATM    2  C6  UNL     1      25.266  -0.306  54.222  1.00  0.00     0.028 C 
HETATM    3  C7  UNL     1      23.989  -0.621  54.155  1.00  0.00     0.103 C 
HETATM    4  N1  UNL     1      23.051   0.355  53.647  1.00  0.00    -0.358 N 
HETATM    5  C8  UNL     1      23.241   1.356  52.621  1.00  0.00     0.132 A 
HETATM    6  C9  UNL     1      22.050   1.903  52.187  1.00  0.00     0.161 A 
HETATM    7  N3  UNL     1      22.189   2.834  51.228  1.00  0.00    -0.222 NA
HETATM    8  C16 UNL     1      23.410   3.191  50.743  1.00  0.00     0.238 A 
HETATM    9  N4  UNL     1      24.538   2.627  51.200  1.00  0.00    -0.215 NA
HETATM   10  C17 UNL     1      24.524   1.690  52.152  1.00  0.00     0.202 A 
HETATM   11  O2  UNL     1      25.771   1.165  52.556  1.00  0.00    -0.289 OA
HETATM   12  H9  UNL     1      22.089   0.333  54.085  1.00  0.00     0.165 HD
ENDROOT
BRANCH   6  13
HETATM   13  N2  UNL     1      20.830   1.464  52.767  1.00  0.00    -0.337 N 
HETATM   14  H10 UNL     1      20.597   1.658  53.775  1.00  0.00     0.167 HD
BRANCH  13  15
HETATM   15  C10 UNL     1      19.687   0.755  52.347  1.00  0.00     0.068 A 
HETATM   16  C11 UNL     1      18.871   1.114  51.308  1.00  0.00     0.032 A 
HETATM   17  C12 UNL     1      17.750   0.412  50.928  1.00  0.00     0.004 A 
HETATM   18  C13 UNL     1      17.427  -0.738  51.649  1.00  0.00     0.022 A 
HETATM   19  C14 UNL     1      18.211  -1.155  52.708  1.00  0.00     0.046 A 
HETATM   20 BR1  UNL     1      17.691  -2.745  53.654  1.00  0.00    -0.048 Br
HETATM   21  C15 UNL     1      19.302  -0.409  53.024  1.00  0.00     0.109 A 
BRANCH  21  22
HETATM   22  O1  UNL     1      20.070  -0.856  54.097  1.00  0.00    -0.357 OA
HETATM   23  H14 UNL     1      20.648  -1.689  54.035  1.00  0.00     0.217 HD
ENDBRANCH  21  22
ENDBRANCH  13  15
ENDBRANCH   6  13
BRANCH   1  24
HETATM   24  C4  UNL     1      26.865  -1.139  52.709  1.00  0.00     0.040 C 
BRANCH  24  25
HETATM   25  C2  UNL     1      28.093  -1.413  53.051  1.00  0.00    -0.085 C 
HETATM   26  C1  UNL     1      29.074  -0.374  53.531  1.00  0.00     0.043 C 
HETATM   27  C3  UNL     1      28.652  -2.790  53.015  1.00  0.00     0.043 C 
ENDBRANCH  24  25
ENDBRANCH   1  24
TORSDOF 5
ENDMDL
MODEL 7
REMARK VINA RESULT:      -7.5      4.148      6.490
REMARK  5 active torsions:
REMARK  status: ('A' for Active; 'I' for Inactive)
REMARK    1  A    between atoms: C2_2  and  C4_4 
REMARK    2  A    between atoms: C4_4  and  C5_5 
REMARK    3  A    between atoms: C9_10  and  N2_11 
REMARK    4  A    between atoms: N2_11  and  C10_12 
REMARK    5  A    between atoms: C15_18  and  O1_19 
ROOT
HETATM    1  C5  UNL     1      26.548  -0.338  53.673  1.00  0.00     0.090 C 
HETATM    2  C6  UNL     1      26.531   0.139  52.439  1.00  0.00     0.028 C 
HETATM    3  C7  UNL     1      25.857   1.226  52.127  1.00  0.00     0.103 C 
HETATM    4  N1  UNL     1      24.414   1.206  52.213  1.00  0.00    -0.358 N 
HETATM    5  C8  UNL     1      23.565   0.497  53.146  1.00  0.00     0.132 A 
HETATM    6  C9  UNL     1      22.261   0.949  53.124  1.00  0.00     0.161 A 
HETATM    7  N3  UNL     1      21.445   0.315  53.983  1.00  0.00    -0.222 NA
HETATM    8  C16 UNL     1      21.889  -0.684  54.794  1.00  0.00     0.238 A 
HETATM    9  N4  UNL     1      23.170  -1.085  54.775  1.00  0.00    -0.215 NA
HETATM   10  C17 UNL     1      24.073  -0.528  53.963  1.00  0.00     0.202 A 
HETATM   11  O2  UNL     1      25.391  -1.029  54.028  1.00  0.00    -0.289 OA
HETATM   12  H9  UNL     1      23.906   1.795  51.497  1.00  0.00     0.165 HD
ENDROOT
BRANCH   6  13
HETATM   13  N2  UNL     1      21.900   1.993  52.232  1.00  0.00    -0.337 N 
HETATM   14  H10 UNL     1      22.240   2.979  52.370  1.00  0.00     0.167 HD
BRANCH  13  15
HETATM   15  C10 UNL     1      21.123   2.125  51.063  1.00  0.00     0.068 A 
HETATM   16  C11 UNL     1      21.442   1.606  49.838  1.00  0.00     0.032 A 
HETATM   17  C12 UNL     1      20.672   1.764  48.708  1.00  0.00     0.004 A 
HETATM   18  C13 UNL     1      19.492   2.500  48.821  1.00  0.00     0.022 A 
HETATM   19  C14 UNL     1      19.113   3.049  50.032  1.00  0.00     0.046 A 
HETATM   20 BR1  UNL     1      17.478   4.057  50.101  1.00  0.00    -0.048 Br
HETATM   21  C15 UNL     1      19.925   2.851  51.103  1.00  0.00     0.109 A 
BRANCH  21  22
HETATM   22  O1  UNL     1      19.515   3.419  52.307  1.00  0.00    -0.357 OA
HETATM   23  H14 UNL     1      18.748   4.084  52.355  1.00  0.00     0.217 HD
ENDBRANCH  21  22
ENDBRANCH  13  15
ENDBRANCH   6  13
BRANCH   1  24
HETATM   24  C4  UNL     1      27.727  -0.084  54.454  1.00  0.00     0.040 C 
BRANCH  24  25
HETATM   25  C2  UNL     1      28.900   0.366  54.104  1.00  0.00    -0.085 C 
HETATM   26  C1  UNL     1      29.299   1.816  54.213  1.00  0.00     0.043 C 
HETATM   27  C3  UNL     1      29.974  -0.511  53.572  1.00  0.00     0.043 C 
ENDBRANCH  24  25
ENDBRANCH   1  24
TORSDOF 5
ENDMDL
MODEL 8
REMARK VINA RESULT:      -7.5      2.804      3.918
REMARK  5 active torsions:
REMARK  status: ('A' for Active; 'I' for Inactive)
REMARK    1  A    between atoms: C2_2  and  C4_4 
REMARK    2  A    between atoms: C4_4  and  C5_5 
REMARK    3  A    between atoms: C9_10  and  N2_11 
REMARK    4  A    between atoms: N2_11  and  C10_12 
REMARK    5  A    between atoms: C15_18  and  O1_19 
ROOT
HETATM    1  C5  UNL     1      23.400   2.701  51.636  1.00  0.00     0.090 C 
HETATM    2  C6  UNL     1      24.535   2.526  50.978  1.00  0.00     0.028 C 
HETATM    3  C7  UNL     1      25.578   3.305  51.179  1.00  0.00     0.103 C 
HETATM    4  N1  UNL     1      25.495   4.699  50.808  1.00  0.00    -0.358 N 
HETATM    5  C8  UNL     1      24.354   5.589  50.846  1.00  0.00     0.132 A 
HETATM    6  C9  UNL     1      24.711   6.915  50.710  1.00  0.00     0.161 A 
HETATM    7  N3  UNL     1      23.675   7.770  50.747  1.00  0.00    -0.222 NA
HETATM    8  C16 UNL     1      22.393   7.341  50.906  1.00  0.00     0.238 A 
HETATM    9  N4  UNL     1      22.101   6.038  51.036  1.00  0.00    -0.215 NA
HETATM   10  C17 UNL     1      23.048   5.096  51.014  1.00  0.00     0.202 A 
HETATM   11  O2  UNL     1      22.626   3.756  51.159  1.00  0.00    -0.289 OA
HETATM   12  H9  UNL     1      26.394   5.133  50.460  1.00  0.00     0.165 HD
ENDROOT
BRANCH   6  13
HETATM   13  N2  UNL     1      26.080   7.254  50.540  1.00  0.00    -0.337 N 
HETATM   14  H10 UNL     1      26.770   7.174  51.331  1.00  0.00     0.167 HD
BRANCH  13  15
HETATM   15  C10 UNL     1      26.901   7.726  49.497  1.00  0.00     0.068 A 
HETATM   16  C11 UNL     1      27.138   7.072  48.318  1.00  0.00     0.032 A 
HETATM   17  C12 UNL     1      27.957   7.548  47.321  1.00  0.00     0.004 A 
HETATM   18  C13 UNL     1      28.587   8.777  47.527  1.00  0.00     0.022 A 
HETATM   19  C14 UNL     1      28.388   9.488  48.695  1.00  0.00     0.046 A 
HETATM   20 BR1  UNL     1      29.299  11.168  48.904  1.00  0.00    -0.048 Br
HETATM   21  C15 UNL     1      27.564   8.953  49.634  1.00  0.00     0.109 A 
BRANCH  21  22
HETATM   22  O1  UNL     1      27.386   9.694  50.800  1.00  0.00    -0.357 OA
HETATM   23  H14 UNL     1      26.701  10.442  50.863  1.00  0.00     0.217 HD
ENDBRANCH  21  22
ENDBRANCH  13  15
ENDBRANCH   6  13
BRANCH   1  24
HETATM   24  C4  UNL     1      23.132   1.799  52.722  1.00  0.00     0.040 C 
BRANCH  24  25
HETATM   25  C2  UNL     1      22.830   0.531  52.722  1.00  0.00    -0.085 C 
HETATM   26  C1  UNL     1      21.611  -0.033  52.037  1.00  0.00     0.043 C 
HETATM   27  C3  UNL     1      23.669  -0.498  53.389  1.00  0.00     0.043 C 
ENDBRANCH  24  25
ENDBRANCH   1  24
TORSDOF 5
ENDMDL
MODEL 9
REMARK VINA RESULT:      -7.3      3.188      8.021
REMARK  5 active torsions:
REMARK  status: ('A' for Active; 'I' for Inactive)
REMARK    1  A    between atoms: C2_2  and  C4_4 
REMARK    2  A    between atoms: C4_4  and  C5_5 
REMARK    3  A    between atoms: C9_10  and  N2_11 
REMARK    4  A    between atoms: N2_11  and  C10_12 
REMARK    5  A    between atoms: C15_18  and  O1_19 
ROOT
HETATM    1  C5  UNL     1      26.562   7.288  48.335  1.00  0.00     0.090 C 
HETATM    2  C6  UNL     1      27.576   6.472  48.577  1.00  0.00     0.028 C 
HETATM    3  C7  UNL     1      27.430   5.163  48.558  1.00  0.00     0.103 C 
HETATM    4  N1  UNL     1      26.594   4.535  49.555  1.00  0.00    -0.358 N 
HETATM    5  C8  UNL     1      25.390   5.033  50.183  1.00  0.00     0.132 A 
HETATM    6  C9  UNL     1      24.696   4.048  50.856  1.00  0.00     0.161 A 
HETATM    7  N3  UNL     1      23.567   4.476  51.447  1.00  0.00    -0.222 NA
HETATM    8  C16 UNL     1      23.164   5.774  51.375  1.00  0.00     0.238 A 
HETATM    9  N4  UNL     1      23.877   6.693  50.706  1.00  0.00    -0.215 NA
HETATM   10  C17 UNL     1      25.016   6.385  50.079  1.00  0.00     0.202 A 
HETATM   11  O2  UNL     1      25.683   7.432  49.406  1.00  0.00    -0.289 OA
HETATM   12  H9  UNL     1      26.903   3.574  49.871  1.00  0.00     0.165 HD
ENDROOT
BRANCH   6  13
HETATM   13  N2  UNL     1      25.210   2.725  50.876  1.00  0.00    -0.337 N 
HETATM   14  H10 UNL     1      25.412   2.197  49.988  1.00  0.00     0.167 HD
BRANCH  13  15
HETATM   15  C10 UNL     1      25.580   1.779  51.854  1.00  0.00     0.068 A 
HETATM   16  C11 UNL     1      24.777   0.779  52.331  1.00  0.00     0.032 A 
HETATM   17  C12 UNL     1      25.158  -0.123  53.299  1.00  0.00     0.004 A 
HETATM   18  C13 UNL     1      26.445  -0.006  53.826  1.00  0.00     0.022 A 
HETATM   19  C14 UNL     1      27.305   0.982  53.385  1.00  0.00     0.046 A 
HETATM   20 BR1  UNL     1      29.058   1.078  54.169  1.00  0.00    -0.048 Br
HETATM   21  C15 UNL     1      26.857   1.835  52.427  1.00  0.00     0.109 A 
BRANCH  21  22
HETATM   22  O1  UNL     1      27.748   2.820  52.006  1.00  0.00    -0.357 OA
HETATM   23  H14 UNL     1      28.105   3.530  52.640  1.00  0.00     0.217 HD
ENDBRANCH  21  22
ENDBRANCH  13  15
ENDBRANCH   6  13
BRANCH   1  24
HETATM   24  C4  UNL     1      26.513   7.896  47.034  1.00  0.00     0.040 C 
BRANCH  24  25
HETATM   25  C2  UNL     1      27.277   8.800  46.486  1.00  0.00    -0.085 C 
HETATM   26  C1  UNL     1      27.161  10.274  46.779  1.00  0.00     0.043 C 
HETATM   27  C3  UNL     1      28.355   8.465  45.520  1.00  0.00     0.043 C 
ENDBRANCH  24  25
ENDBRANCH   1  24
TORSDOF 5
ENDMDL
