MODEL 1
REMARK VINA RESULT:      -9.6      0.000      0.000
REMARK  3 active torsions:
REMARK  status: ('A' for Active; 'I' for Inactive)
REMARK    1  A    between atoms: O1_2  and  C2_3 
REMARK    2  A    between atoms: C6_7  and  N1_8 
REMARK    3  A    between atoms: N1_8  and  C7_9 
ROOT
HETATM    1  C2  UNL     1      26.334   5.435  49.513  1.00  0.00     0.048 C 
HETATM    2  C3  UNL     1      26.819   4.214  49.302  1.00  0.00     0.010 C 
HETATM    3  C4  UNL     1      26.338   2.908  49.755  1.00  0.00     0.068 C 
HETATM    4  C5  UNL     1      24.985   2.983  50.370  1.00  0.00    -0.019 C 
HETATM    5  C6  UNL     1      25.008   2.999  51.692  1.00  0.00     0.132 C 
HETATM    6  N2  UNL     1      23.712   3.260  52.317  1.00  0.00    -0.226 NA
HETATM    7  C13 UNL     1      23.355   4.524  52.408  1.00  0.00     0.209 C 
HETATM    8  N3  UNL     1      23.908   5.806  52.047  1.00  0.00    -0.353 N 
HETATM    9  C14 UNL     1      24.376   6.279  50.794  1.00  0.00     0.025 C 
HETATM   10  P1  UNL     1      22.790   6.594  50.303  1.00  0.00    -0.034 P 
HETATM   11  C15 UNL     1      22.689   7.292  48.547  1.00  0.00     0.057 C 
HETATM   12  C16 UNL     1      22.269   6.048  47.703  1.00  0.00     0.099 C 
HETATM   13  C17 UNL     1      22.809   4.901  48.390  1.00  0.00    -0.106 C 
HETATM   14  C18 UNL     1      23.223   4.003  48.948  1.00  0.00    -0.102 C 
HETATM   15  C19 UNL     1      23.715   2.903  49.652  1.00  0.00     0.132 C 
HETATM   16  C20 UNL     1      25.547   6.573  49.940  1.00  0.00     0.122 C 
HETATM   17  H12 UNL     1      23.955   6.474  52.871  1.00  0.00     0.166 HD
ENDROOT
BRANCH   5  18
HETATM   18  N1  UNL     1      25.701   2.976  52.929  1.00  0.00    -0.341 N 
HETATM   19  H7  UNL     1      25.717   3.762  53.615  1.00  0.00     0.167 HD
BRANCH  18  20
HETATM   20  C7  UNL     1      26.307   1.678  52.932  1.00  0.00     0.035 A 
HETATM   21  C8  UNL     1      25.593   0.524  52.682  1.00  0.00     0.032 A 
HETATM   22  C9  UNL     1      26.130  -0.745  52.671  1.00  0.00     0.046 A 
HETATM   23  C10 UNL     1      27.494  -0.868  52.933  1.00  0.00     0.138 A 
HETATM   24  F1  UNL     1      28.065  -2.103  52.929  1.00  0.00    -0.204 F 
HETATM   25  C11 UNL     1      28.229   0.257  53.185  1.00  0.00     0.074 A 
HETATM   26 CL1  UNL     1      29.952   0.023  53.510  1.00  0.00    -0.081 Cl
HETATM   27  C12 UNL     1      27.654   1.497  53.186  1.00  0.00     0.056 A 
ENDBRANCH  18  20
ENDBRANCH   5  18
BRANCH   1  28
HETATM   28  O1  UNL     1      27.320   6.155  48.769  1.00  0.00    -0.360 OA
HETATM   29  C1  UNL     1      28.517   5.497  48.344  1.00  0.00     0.209 C 
ENDBRANCH   1  28
TORSDOF 3
ENDMDL
MODEL 2
REMARK VINA RESULT:      -8.7      1.507      1.748
REMARK  3 active torsions:
REMARK  status: ('A' for Active; 'I' for Inactive)
REMARK    1  A    between atoms: O1_2  and  C2_3 
REMARK    2  A    between atoms: C6_7  and  N1_8 
REMARK    3  A    between atoms: N1_8  and  C7_9 
ROOT
HETATM    1  C2  UNL     1      25.627   6.264  49.570  1.00  0.00     0.048 C 
HETATM    2  C3  UNL     1      26.392   5.228  49.238  1.00  0.00     0.010 C 
HETATM    3  C4  UNL     1      26.199   3.794  49.458  1.00  0.00     0.068 C 
HETATM    4  C5  UNL     1      24.831   3.473  49.947  1.00  0.00    -0.019 C 
HETATM    5  C6  UNL     1      24.769   3.287  51.254  1.00  0.00     0.132 C 
HETATM    6  N2  UNL     1      23.413   3.156  51.785  1.00  0.00    -0.226 NA
HETATM    7  C13 UNL     1      22.769   4.281  52.016  1.00  0.00     0.209 C 
HETATM    8  N3  UNL     1      23.032   5.693  51.890  1.00  0.00    -0.353 N 
HETATM    9  C14 UNL     1      23.453   6.448  50.765  1.00  0.00     0.025 C 
HETATM   10  P1  UNL     1      21.870   6.480  50.176  1.00  0.00    -0.034 P 
HETATM   11  C15 UNL     1      21.716   7.406  48.532  1.00  0.00     0.057 C 
HETATM   12  C16 UNL     1      21.647   6.248  47.487  1.00  0.00     0.099 C 
HETATM   13  C17 UNL     1      22.395   5.154  48.056  1.00  0.00    -0.106 C 
HETATM   14  C18 UNL     1      22.970   4.292  48.521  1.00  0.00    -0.102 C 
HETATM   15  C19 UNL     1      23.660   3.231  49.108  1.00  0.00     0.132 C 
HETATM   16  C20 UNL     1      24.574   7.121  50.075  1.00  0.00     0.122 C 
HETATM   17  H12 UNL     1      22.874   6.218  52.801  1.00  0.00     0.166 HD
ENDROOT
BRANCH   5  18
HETATM   18  N1  UNL     1      25.373   3.222  52.537  1.00  0.00    -0.341 N 
HETATM   19  H7  UNL     1      25.533   4.044  53.158  1.00  0.00     0.167 HD
BRANCH  18  20
HETATM   20  C7  UNL     1      25.665   1.827  52.682  1.00  0.00     0.035 A 
HETATM   21  C8  UNL     1      26.500   1.149  51.817  1.00  0.00     0.032 A 
HETATM   22  C9  UNL     1      26.813  -0.189  51.916  1.00  0.00     0.046 A 
HETATM   23  C10 UNL     1      26.242  -0.907  52.966  1.00  0.00     0.138 A 
HETATM   24  F1  UNL     1      26.528  -2.231  53.103  1.00  0.00    -0.204 F 
HETATM   25  C11 UNL     1      25.410  -0.263  53.840  1.00  0.00     0.074 A 
HETATM   26 CL1  UNL     1      24.723  -1.239  55.146  1.00  0.00    -0.081 Cl
HETATM   27  C12 UNL     1      25.127   1.066  53.703  1.00  0.00     0.056 A 
ENDBRANCH  18  20
ENDBRANCH   5  18
BRANCH   1  28
HETATM   28  O1  UNL     1      26.463   7.291  49.030  1.00  0.00    -0.360 OA
HETATM   29  C1  UNL     1      26.780   8.442  49.817  1.00  0.00     0.209 C 
ENDBRANCH   1  28
TORSDOF 3
ENDMDL
MODEL 3
REMARK VINA RESULT:      -8.5      2.959      4.558
REMARK  3 active torsions:
REMARK  status: ('A' for Active; 'I' for Inactive)
REMARK    1  A    between atoms: O1_2  and  C2_3 
REMARK    2  A    between atoms: C6_7  and  N1_8 
REMARK    3  A    between atoms: N1_8  and  C7_9 
ROOT
HETATM    1  C2  UNL     1      22.543   0.727  51.804  1.00  0.00     0.048 C 
HETATM    2  C3  UNL     1      23.330   0.856  52.868  1.00  0.00     0.010 C 
HETATM    3  C4  UNL     1      24.297   1.899  53.216  1.00  0.00     0.068 C 
HETATM    4  C5  UNL     1      24.206   3.081  52.317  1.00  0.00    -0.019 C 
HETATM    5  C6  UNL     1      25.124   3.091  51.365  1.00  0.00     0.132 C 
HETATM    6  N2  UNL     1      24.943   4.136  50.359  1.00  0.00    -0.226 NA
HETATM    7  C13 UNL     1      24.089   3.872  49.393  1.00  0.00     0.209 C 
HETATM    8  N3  UNL     1      23.227   2.778  49.016  1.00  0.00    -0.353 N 
HETATM    9  C14 UNL     1      22.221   2.108  49.760  1.00  0.00     0.025 C 
HETATM   10  P1  UNL     1      21.129   3.355  49.433  1.00  0.00    -0.034 P 
HETATM   11  C15 UNL     1      19.432   3.071  50.223  1.00  0.00     0.057 C 
HETATM   12  C16 UNL     1      19.478   3.994  51.482  1.00  0.00     0.099 C 
HETATM   13  C17 UNL     1      20.864   4.066  51.872  1.00  0.00    -0.106 C 
HETATM   14  C18 UNL     1      21.961   4.130  52.161  1.00  0.00    -0.102 C 
HETATM   15  C19 UNL     1      23.312   4.222  52.496  1.00  0.00     0.132 C 
HETATM   16  C20 UNL     1      21.852   0.910  50.544  1.00  0.00     0.122 C 
HETATM   17  H12 UNL     1      23.399   2.451  48.020  1.00  0.00     0.166 HD
ENDROOT
BRANCH   5  18
HETATM   18  N1  UNL     1      26.243   2.523  50.703  1.00  0.00    -0.341 N 
HETATM   19  H7  UNL     1      26.480   2.680  49.700  1.00  0.00     0.167 HD
BRANCH  18  20
HETATM   20  C7  UNL     1      26.864   1.747  51.735  1.00  0.00     0.035 A 
HETATM   21  C8  UNL     1      27.612   2.317  52.744  1.00  0.00     0.032 A 
HETATM   22  C9  UNL     1      28.228   1.616  53.758  1.00  0.00     0.046 A 
HETATM   23  C10 UNL     1      28.083   0.229  53.760  1.00  0.00     0.138 A 
HETATM   24  F1  UNL     1      28.671  -0.502  54.745  1.00  0.00    -0.204 F 
HETATM   25  C11 UNL     1      27.348  -0.366  52.772  1.00  0.00     0.074 A 
HETATM   26 CL1  UNL     1      27.209  -2.129  52.839  1.00  0.00    -0.081 Cl
HETATM   27  C12 UNL     1      26.755   0.369  51.785  1.00  0.00     0.056 A 
ENDBRANCH  18  20
ENDBRANCH   5  18
BRANCH   1  28
HETATM   28  O1  UNL     1      21.918  -0.501  52.185  1.00  0.00    -0.360 OA
HETATM   29  C1  UNL     1      22.161  -1.054  53.481  1.00  0.00     0.209 C 
ENDBRANCH   1  28
TORSDOF 3
ENDMDL
MODEL 4
REMARK VINA RESULT:      -8.1      2.789      3.601
REMARK  3 active torsions:
REMARK  status: ('A' for Active; 'I' for Inactive)
REMARK    1  A    between atoms: O1_2  and  C2_3 
REMARK    2  A    between atoms: C6_7  and  N1_8 
REMARK    3  A    between atoms: N1_8  and  C7_9 
ROOT
HETATM    1  C2  UNL     1      22.428   4.762  50.702  1.00  0.00     0.048 C 
HETATM    2  C3  UNL     1      23.603   4.235  50.369  1.00  0.00     0.010 C 
HETATM    3  C4  UNL     1      24.082   2.854  50.444  1.00  0.00     0.068 C 
HETATM    4  C5  UNL     1      22.991   1.890  50.752  1.00  0.00    -0.019 C 
HETATM    5  C6  UNL     1      22.947   1.534  52.024  1.00  0.00     0.132 C 
HETATM    6  N2  UNL     1      21.776   0.738  52.390  1.00  0.00    -0.226 NA
HETATM    7  C13 UNL     1      20.673   1.410  52.644  1.00  0.00     0.209 C 
HETATM    8  N3  UNL     1      20.260   2.792  52.669  1.00  0.00    -0.353 N 
HETATM    9  C14 UNL     1      20.350   3.790  51.664  1.00  0.00     0.025 C 
HETATM   10  P1  UNL     1      18.968   3.176  50.910  1.00  0.00    -0.034 P 
HETATM   11  C15 UNL     1      18.500   4.130  49.344  1.00  0.00     0.057 C 
HETATM   12  C16 UNL     1      19.034   3.208  48.204  1.00  0.00     0.099 C 
HETATM   13  C17 UNL     1      20.168   2.509  48.756  1.00  0.00    -0.106 C 
HETATM   14  C18 UNL     1      21.049   1.950  49.206  1.00  0.00    -0.102 C 
HETATM   15  C19 UNL     1      22.115   1.251  49.773  1.00  0.00     0.132 C 
HETATM   16  C20 UNL     1      21.071   4.979  51.160  1.00  0.00     0.122 C 
HETATM   17  H12 UNL     1      19.825   3.069  53.597  1.00  0.00     0.166 HD
ENDROOT
BRANCH   5  18
HETATM   18  N1  UNL     1      23.437   1.589  53.354  1.00  0.00    -0.341 N 
HETATM   19  H7  UNL     1      22.885   1.918  54.176  1.00  0.00     0.167 HD
BRANCH  18  20
HETATM   20  C7  UNL     1      24.780   1.109  53.220  1.00  0.00     0.035 A 
HETATM   21  C8  UNL     1      25.072  -0.192  52.868  1.00  0.00     0.032 A 
HETATM   22  C9  UNL     1      26.345  -0.700  52.725  1.00  0.00     0.046 A 
HETATM   23  C10 UNL     1      27.413   0.167  52.955  1.00  0.00     0.138 A 
HETATM   24  F1  UNL     1      28.687  -0.293  52.821  1.00  0.00    -0.204 F 
HETATM   25  C11 UNL     1      27.155   1.463  53.306  1.00  0.00     0.074 A 
HETATM   26 CL1  UNL     1      28.559   2.504  53.582  1.00  0.00    -0.081 Cl
HETATM   27  C12 UNL     1      25.876   1.924  53.437  1.00  0.00     0.056 A 
ENDBRANCH  18  20
ENDBRANCH   5  18
BRANCH   1  28
HETATM   28  O1  UNL     1      22.725   6.115  50.346  1.00  0.00    -0.360 OA
HETATM   29  C1  UNL     1      21.852   7.170  50.757  1.00  0.00     0.209 C 
ENDBRANCH   1  28
TORSDOF 3
ENDMDL
MODEL 5
REMARK VINA RESULT:      -7.9      2.835      4.229
REMARK  3 active torsions:
REMARK  status: ('A' for Active; 'I' for Inactive)
REMARK    1  A    between atoms: O1_2  and  C2_3 
REMARK    2  A    between atoms: C6_7  and  N1_8 
REMARK    3  A    between atoms: N1_8  and  C7_9 
ROOT
HETATM    1  C2  UNL     1      21.925   1.165  50.943  1.00  0.00     0.048 C 
HETATM    2  C3  UNL     1      22.455   0.836  52.118  1.00  0.00     0.010 C 
HETATM    3  C4  UNL     1      23.621   1.375  52.820  1.00  0.00     0.068 C 
HETATM    4  C5  UNL     1      24.141   2.617  52.187  1.00  0.00    -0.019 C 
HETATM    5  C6  UNL     1      25.191   2.411  51.410  1.00  0.00     0.132 C 
HETATM    6  N2  UNL     1      25.606   3.577  50.631  1.00  0.00    -0.226 NA
HETATM    7  C13 UNL     1      24.946   3.793  49.512  1.00  0.00     0.209 C 
HETATM    8  N3  UNL     1      23.865   3.173  48.787  1.00  0.00    -0.353 N 
HETATM    9  C14 UNL     1      22.554   2.836  49.212  1.00  0.00     0.025 C 
HETATM   10  P1  UNL     1      22.057   4.436  48.992  1.00  0.00    -0.034 P 
HETATM   11  C15 UNL     1      20.238   4.709  49.438  1.00  0.00     0.057 C 
HETATM   12  C16 UNL     1      20.322   5.360  50.854  1.00  0.00     0.099 C 
HETATM   13  C17 UNL     1      21.527   4.846  51.457  1.00  0.00    -0.106 C 
HETATM   14  C18 UNL     1      22.487   4.449  51.916  1.00  0.00    -0.102 C 
HETATM   15  C19 UNL     1      23.680   3.975  52.464  1.00  0.00     0.132 C 
HETATM   16  C20 UNL     1      21.633   1.771  49.660  1.00  0.00     0.122 C 
HETATM   17  H12 UNL     1      24.127   2.947  47.782  1.00  0.00     0.166 HD
ENDROOT
BRANCH   5  18
HETATM   18  N1  UNL     1      26.161   1.560  50.821  1.00  0.00    -0.341 N 
HETATM   19  H7  UNL     1      26.262   1.397  49.795  1.00  0.00     0.167 HD
BRANCH  18  20
HETATM   20  C7  UNL     1      26.871   1.051  51.956  1.00  0.00     0.035 A 
HETATM   21  C8  UNL     1      26.740  -0.252  52.390  1.00  0.00     0.032 A 
HETATM   22  C9  UNL     1      27.401  -0.789  53.473  1.00  0.00     0.046 A 
HETATM   23  C10 UNL     1      28.263   0.048  54.180  1.00  0.00     0.138 A 
HETATM   24  F1  UNL     1      28.938  -0.443  55.255  1.00  0.00    -0.204 F 
HETATM   25  C11 UNL     1      28.413   1.345  53.775  1.00  0.00     0.074 A 
HETATM   26 CL1  UNL     1      29.523   2.348  54.721  1.00  0.00    -0.081 Cl
HETATM   27  C12 UNL     1      27.737   1.836  52.694  1.00  0.00     0.056 A 
ENDBRANCH  18  20
ENDBRANCH   5  18
BRANCH   1  28
HETATM   28  O1  UNL     1      20.848   0.225  50.958  1.00  0.00    -0.360 OA
HETATM   29  C1  UNL     1      19.521   0.653  50.640  1.00  0.00     0.209 C 
ENDBRANCH   1  28
TORSDOF 3
ENDMDL
MODEL 6
REMARK VINA RESULT:      -7.5      3.338      4.096
REMARK  3 active torsions:
REMARK  status: ('A' for Active; 'I' for Inactive)
REMARK    1  A    between atoms: O1_2  and  C2_3 
REMARK    2  A    between atoms: C6_7  and  N1_8 
REMARK    3  A    between atoms: N1_8  and  C7_9 
ROOT
HETATM    1  C2  UNL     1      23.716   4.866  49.414  1.00  0.00     0.048 C 
HETATM    2  C3  UNL     1      24.374   3.812  49.889  1.00  0.00     0.010 C 
HETATM    3  C4  UNL     1      23.893   2.482  50.268  1.00  0.00     0.068 C 
HETATM    4  C5  UNL     1      22.485   2.247  49.850  1.00  0.00    -0.019 C 
HETATM    5  C6  UNL     1      21.610   2.416  50.827  1.00  0.00     0.132 C 
HETATM    6  N2  UNL     1      20.212   2.375  50.401  1.00  0.00    -0.226 NA
HETATM    7  C13 UNL     1      19.722   3.492  49.906  1.00  0.00     0.209 C 
HETATM    8  N3  UNL     1      20.197   4.829  49.646  1.00  0.00    -0.353 N 
HETATM    9  C14 UNL     1      21.317   5.272  48.897  1.00  0.00     0.025 C 
HETATM   10  P1  UNL     1      20.451   5.077  47.459  1.00  0.00    -0.034 P 
HETATM   11  C15 UNL     1      21.465   5.522  45.924  1.00  0.00     0.057 C 
HETATM   12  C16 UNL     1      21.894   4.124  45.376  1.00  0.00     0.099 C 
HETATM   13  C17 UNL     1      21.978   3.255  46.523  1.00  0.00    -0.106 C 
HETATM   14  C18 UNL     1      22.023   2.574  47.432  1.00  0.00    -0.102 C 
HETATM   15  C19 UNL     1      22.054   1.739  48.549  1.00  0.00     0.132 C 
HETATM   16  C20 UNL     1      22.705   5.782  48.929  1.00  0.00     0.122 C 
HETATM   17  H12 UNL     1      19.587   5.571  50.101  1.00  0.00     0.166 HD
ENDROOT
BRANCH   5  18
HETATM   18  N1  UNL     1      21.285   2.722  52.173  1.00  0.00    -0.341 N 
HETATM   19  H7  UNL     1      21.003   3.667  52.514  1.00  0.00     0.167 HD
BRANCH  18  20
HETATM   20  C7  UNL     1      21.458   1.465  52.838  1.00  0.00     0.035 A 
HETATM   21  C8  UNL     1      20.397   0.644  53.159  1.00  0.00     0.032 A 
HETATM   22  C9  UNL     1      20.510  -0.573  53.796  1.00  0.00     0.046 A 
HETATM   23  C10 UNL     1      21.792  -1.002  54.140  1.00  0.00     0.138 A 
HETATM   24  F1  UNL     1      21.950  -2.199  54.766  1.00  0.00    -0.204 F 
HETATM   25  C11 UNL     1      22.864  -0.209  53.834  1.00  0.00     0.074 A 
HETATM   26 CL1  UNL     1      24.459  -0.817  54.301  1.00  0.00    -0.081 Cl
HETATM   27  C12 UNL     1      22.705   0.992  53.202  1.00  0.00     0.056 A 
ENDBRANCH  18  20
ENDBRANCH   5  18
BRANCH   1  28
HETATM   28  O1  UNL     1      24.839   5.745  49.295  1.00  0.00    -0.360 OA
HETATM   29  C1  UNL     1      26.157   5.206  49.167  1.00  0.00     0.209 C 
ENDBRANCH   1  28
TORSDOF 3
ENDMDL
MODEL 7
REMARK VINA RESULT:      -7.4      3.906      5.405
REMARK  3 active torsions:
REMARK  status: ('A' for Active; 'I' for Inactive)
REMARK    1  A    between atoms: O1_2  and  C2_3 
REMARK    2  A    between atoms: C6_7  and  N1_8 
REMARK    3  A    between atoms: N1_8  and  C7_9 
ROOT
HETATM    1  C2  UNL     1      19.320   4.105  50.329  1.00  0.00     0.048 C 
HETATM    2  C3  UNL     1      19.437   3.617  51.561  1.00  0.00     0.010 C 
HETATM    3  C4  UNL     1      20.629   3.288  52.345  1.00  0.00     0.068 C 
HETATM    4  C5  UNL     1      21.881   3.780  51.708  1.00  0.00    -0.019 C 
HETATM    5  C6  UNL     1      22.536   2.845  51.042  1.00  0.00     0.132 C 
HETATM    6  N2  UNL     1      23.664   3.339  50.254  1.00  0.00    -0.226 NA
HETATM    7  C13 UNL     1      23.373   3.837  49.071  1.00  0.00     0.209 C 
HETATM    8  N3  UNL     1      22.188   4.048  48.276  1.00  0.00    -0.353 N 
HETATM    9  C14 UNL     1      20.985   4.732  48.592  1.00  0.00     0.025 C 
HETATM   10  P1  UNL     1      21.724   6.214  48.257  1.00  0.00    -0.034 P 
HETATM   11  C15 UNL     1      20.566   7.688  48.519  1.00  0.00     0.057 C 
HETATM   12  C16 UNL     1      21.019   8.241  49.908  1.00  0.00     0.099 C 
HETATM   13  C17 UNL     1      21.524   7.107  50.642  1.00  0.00    -0.106 C 
HETATM   14  C18 UNL     1      21.936   6.211  51.205  1.00  0.00    -0.102 C 
HETATM   15  C19 UNL     1      22.461   5.110  51.881  1.00  0.00     0.132 C 
HETATM   16  C20 UNL     1      19.568   4.622  49.000  1.00  0.00     0.122 C 
HETATM   17  H12 UNL     1      22.263   3.610  47.311  1.00  0.00     0.166 HD
ENDROOT
BRANCH   5  18
HETATM   18  N1  UNL     1      22.685   1.510  50.583  1.00  0.00    -0.341 N 
HETATM   19  H7  UNL     1      22.592   1.212  49.588  1.00  0.00     0.167 HD
BRANCH  18  20
HETATM   20  C7  UNL     1      22.964   0.788  51.788  1.00  0.00     0.035 A 
HETATM   21  C8  UNL     1      24.200   0.813  52.400  1.00  0.00     0.032 A 
HETATM   22  C9  UNL     1      24.517   0.138  53.558  1.00  0.00     0.046 A 
HETATM   23  C10 UNL     1      23.513  -0.627  54.153  1.00  0.00     0.138 A 
HETATM   24  F1  UNL     1      23.782  -1.307  55.300  1.00  0.00    -0.204 F 
HETATM   25  C11 UNL     1      22.277  -0.672  53.569  1.00  0.00     0.074 A 
HETATM   26 CL1  UNL     1      21.054  -1.662  54.379  1.00  0.00    -0.081 Cl
HETATM   27  C12 UNL     1      22.007   0.014  52.419  1.00  0.00     0.056 A 
ENDBRANCH  18  20
ENDBRANCH   5  18
BRANCH   1  28
HETATM   28  O1  UNL     1      17.891   4.150  50.285  1.00  0.00    -0.360 OA
HETATM   29  C1  UNL     1      17.133   2.944  50.414  1.00  0.00     0.209 C 
ENDBRANCH   1  28
TORSDOF 3
ENDMDL
MODEL 8
REMARK VINA RESULT:      -7.3      4.233      5.868
REMARK  3 active torsions:
REMARK  status: ('A' for Active; 'I' for Inactive)
REMARK    1  A    between atoms: O1_2  and  C2_3 
REMARK    2  A    between atoms: C6_7  and  N1_8 
REMARK    3  A    between atoms: N1_8  and  C7_9 
ROOT
HETATM    1  C2  UNL     1      20.740   5.165  49.148  1.00  0.00     0.048 C 
HETATM    2  C3  UNL     1      21.669   5.204  48.197  1.00  0.00     0.010 C 
HETATM    3  C4  UNL     1      23.019   4.637  48.161  1.00  0.00     0.068 C 
HETATM    4  C5  UNL     1      23.275   3.709  49.296  1.00  0.00    -0.019 C 
HETATM    5  C6  UNL     1      23.955   4.264  50.286  1.00  0.00     0.132 C 
HETATM    6  N2  UNL     1      24.058   3.437  51.488  1.00  0.00    -0.226 NA
HETATM    7  C13 UNL     1      23.029   3.473  52.308  1.00  0.00     0.209 C 
HETATM    8  N3  UNL     1      21.749   4.135  52.368  1.00  0.00    -0.353 N 
HETATM    9  C14 UNL     1      20.690   4.163  51.424  1.00  0.00     0.025 C 
HETATM   10  P1  UNL     1      20.162   2.646  51.950  1.00  0.00    -0.034 P 
HETATM   11  C15 UNL     1      18.646   2.026  51.001  1.00  0.00     0.057 C 
HETATM   12  C16 UNL     1      19.262   1.008  49.990  1.00  0.00     0.099 C 
HETATM   13  C17 UNL     1      20.600   1.474  49.722  1.00  0.00    -0.106 C 
HETATM   14  C18 UNL     1      21.659   1.840  49.531  1.00  0.00    -0.102 C 
HETATM   15  C19 UNL     1      22.965   2.282  49.320  1.00  0.00     0.132 C 
HETATM   16  C20 UNL     1      19.994   4.926  50.366  1.00  0.00     0.122 C 
HETATM   17  H12 UNL     1      21.613   4.673  53.273  1.00  0.00     0.166 HD
ENDROOT
BRANCH   5  18
HETATM   18  N1  UNL     1      24.625   5.366  50.877  1.00  0.00    -0.341 N 
HETATM   19  H7  UNL     1      24.324   5.840  51.757  1.00  0.00     0.167 HD
BRANCH  18  20
HETATM   20  C7  UNL     1      25.717   5.595  49.979  1.00  0.00     0.035 A 
HETATM   21  C8  UNL     1      26.537   4.580  49.532  1.00  0.00     0.032 A 
HETATM   22  C9  UNL     1      27.597   4.749  48.668  1.00  0.00     0.046 A 
HETATM   23  C10 UNL     1      27.857   6.043  48.215  1.00  0.00     0.138 A 
HETATM   24  F1  UNL     1      28.892   6.254  47.358  1.00  0.00    -0.204 F 
HETATM   25  C11 UNL     1      27.061   7.070  48.641  1.00  0.00     0.074 A 
HETATM   26 CL1  UNL     1      27.452   8.683  48.025  1.00  0.00    -0.081 Cl
HETATM   27  C12 UNL     1      26.021   6.856  49.499  1.00  0.00     0.056 A 
ENDBRANCH  18  20
ENDBRANCH   5  18
BRANCH   1  28
HETATM   28  O1  UNL     1      19.738   5.915  48.457  1.00  0.00    -0.360 OA
HETATM   29  C1  UNL     1      20.048   7.211  47.937  1.00  0.00     0.209 C 
ENDBRANCH   1  28
TORSDOF 3
ENDMDL
MODEL 9
REMARK VINA RESULT:      -7.3      4.333      6.424
REMARK  3 active torsions:
REMARK  status: ('A' for Active; 'I' for Inactive)
REMARK    1  A    between atoms: O1_2  and  C2_3 
REMARK    2  A    between atoms: C6_7  and  N1_8 
REMARK    3  A    between atoms: N1_8  and  C7_9 
ROOT
HETATM    1  C2  UNL     1      22.984   1.565  52.393  1.00  0.00     0.048 C 
HETATM    2  C3  UNL     1      23.724   2.506  52.971  1.00  0.00     0.010 C 
HETATM    3  C4  UNL     1      24.130   3.827  52.488  1.00  0.00     0.068 C 
HETATM    4  C5  UNL     1      23.415   4.222  51.244  1.00  0.00    -0.019 C 
HETATM    5  C6  UNL     1      24.126   4.031  50.146  1.00  0.00     0.132 C 
HETATM    6  N2  UNL     1      23.384   4.232  48.902  1.00  0.00    -0.226 NA
HETATM    7  C13 UNL     1      22.658   3.215  48.488  1.00  0.00     0.209 C 
HETATM    8  N3  UNL     1      22.364   1.875  48.934  1.00  0.00    -0.353 N 
HETATM    9  C14 UNL     1      21.860   1.417  50.179  1.00  0.00     0.025 C 
HETATM   10  P1  UNL     1      20.290   1.826  49.710  1.00  0.00    -0.034 P 
HETATM   11  C15 UNL     1      19.003   1.454  51.048  1.00  0.00     0.057 C 
HETATM   12  C16 UNL     1      18.742   2.858  51.678  1.00  0.00     0.099 C 
HETATM   13  C17 UNL     1      19.970   3.597  51.523  1.00  0.00    -0.106 C 
HETATM   14  C18 UNL     1      20.936   4.178  51.380  1.00  0.00    -0.102 C 
HETATM   15  C19 UNL     1      22.119   4.891  51.181  1.00  0.00     0.132 C 
HETATM   16  C20 UNL     1      22.165   0.790  51.483  1.00  0.00     0.122 C 
HETATM   17  H12 UNL     1      22.568   1.146  48.189  1.00  0.00     0.166 HD
ENDROOT
BRANCH   5  18
HETATM   18  N1  UNL     1      25.309   3.619  49.479  1.00  0.00    -0.341 N 
HETATM   19  H7  UNL     1      25.538   2.631  49.234  1.00  0.00     0.167 HD
BRANCH  18  20
HETATM   20  C7  UNL     1      26.009   4.853  49.280  1.00  0.00     0.035 A 
HETATM   21  C8  UNL     1      27.228   4.919  48.637  1.00  0.00     0.032 A 
HETATM   22  C9  UNL     1      27.939   6.079  48.420  1.00  0.00     0.046 A 
HETATM   23  C10 UNL     1      27.383   7.271  48.886  1.00  0.00     0.138 A 
HETATM   24  F1  UNL     1      28.051   8.440  48.689  1.00  0.00    -0.204 F 
HETATM   25  C11 UNL     1      26.176   7.237  49.527  1.00  0.00     0.074 A 
HETATM   26 CL1  UNL     1      25.535   8.787  50.092  1.00  0.00    -0.081 Cl
HETATM   27  C12 UNL     1      25.506   6.063  49.722  1.00  0.00     0.056 A 
ENDBRANCH  18  20
ENDBRANCH   5  18
BRANCH   1  28
HETATM   28  O1  UNL     1      23.037   0.610  53.457  1.00  0.00    -0.360 OA
HETATM   29  C1  UNL     1      22.583  -0.728  53.240  1.00  0.00     0.209 C 
ENDBRANCH   1  28
TORSDOF 3
ENDMDL
