MODEL 1
REMARK VINA RESULT:      -8.9      0.000      0.000
REMARK  2 active torsions:
REMARK  status: ('A' for Active; 'I' for Inactive)
REMARK    1  A    between atoms: C6_6  and  N1_7 
REMARK    2  A    between atoms: N1_7  and  C8_9 
ROOT
HETATM    1  C8  UNL     1      26.416   1.722  52.234  1.00  0.00     0.140 A 
HETATM    2  N2  UNL     1      27.034   2.556  51.347  1.00  0.00    -0.224 NA
HETATM    3  C9  UNL     1      26.231   3.107  50.395  1.00  0.00     0.236 A 
HETATM    4  N3  UNL     1      24.909   2.855  50.322  1.00  0.00    -0.241 NA
HETATM    5  C10 UNL     1      24.288   2.037  51.188  1.00  0.00     0.072 A 
HETATM    6  C11 UNL     1      22.950   1.704  51.209  1.00  0.00     0.039 A 
HETATM    7  C12 UNL     1      22.457   0.836  52.175  1.00  0.00    -0.054 A 
HETATM    8  C13 UNL     1      21.001   0.505  52.159  1.00  0.00     0.049 C 
HETATM    9  C14 UNL     1      23.282   0.271  53.151  1.00  0.00    -0.055 A 
HETATM   10  C15 UNL     1      22.703  -0.644  54.150  1.00  0.00     0.049 C 
HETATM   11  C16 UNL     1      24.621   0.600  53.135  1.00  0.00     0.025 A 
HETATM   12  C17 UNL     1      25.066   1.459  52.166  1.00  0.00     0.039 A 
ENDROOT
BRANCH   1  13
HETATM   13  N1  UNL     1      27.418   1.253  53.166  1.00  0.00    -0.358 N 
HETATM   14  C7  UNL     1      28.375   2.289  53.587  1.00  0.00     0.152 C 
BRANCH  13  15
HETATM   15  C6  UNL     1      27.828   0.078  53.865  1.00  0.00     0.137 A 
HETATM   16  C2  UNL     1      27.907  -1.151  53.041  1.00  0.00    -0.058 A 
HETATM   17  C1  UNL     1      26.751  -1.727  52.301  1.00  0.00     0.046 C 
HETATM   18  C3  UNL     1      29.175  -1.595  53.114  1.00  0.00     0.005 A 
HETATM   19  C4  UNL     1      29.975  -0.718  53.956  1.00  0.00    -0.001 A 
HETATM   20  C5  UNL     1      29.188   0.275  54.405  1.00  0.00     0.003 A 
ENDBRANCH  13  15
ENDBRANCH   1  13
TORSDOF 2
ENDMDL
MODEL 2
REMARK VINA RESULT:      -8.5      2.070      4.046
REMARK  2 active torsions:
REMARK  status: ('A' for Active; 'I' for Inactive)
REMARK    1  A    between atoms: C6_6  and  N1_7 
REMARK    2  A    between atoms: N1_7  and  C8_9 
ROOT
HETATM    1  C8  UNL     1      24.700  -0.676  53.919  1.00  0.00     0.140 A 
HETATM    2  N2  UNL     1      25.161  -1.154  55.113  1.00  0.00    -0.224 NA
HETATM    3  C9  UNL     1      24.205  -1.510  56.015  1.00  0.00     0.236 A 
HETATM    4  N3  UNL     1      22.885  -1.402  55.761  1.00  0.00    -0.241 NA
HETATM    5  C10 UNL     1      22.419  -0.933  54.591  1.00  0.00     0.072 A 
HETATM    6  C11 UNL     1      21.100  -0.776  54.222  1.00  0.00     0.039 A 
HETATM    7  C12 UNL     1      20.777  -0.271  52.968  1.00  0.00    -0.054 A 
HETATM    8  C13 UNL     1      19.335  -0.119  52.611  1.00  0.00     0.049 C 
HETATM    9  C14 UNL     1      21.758   0.093  52.042  1.00  0.00    -0.055 A 
HETATM   10  C15 UNL     1      21.356   0.623  50.729  1.00  0.00     0.049 C 
HETATM   11  C16 UNL     1      23.080  -0.062  52.408  1.00  0.00     0.025 A 
HETATM   12  C17 UNL     1      23.354  -0.562  53.652  1.00  0.00     0.039 A 
ENDROOT
BRANCH   1  13
HETATM   13  N1  UNL     1      25.850  -0.369  53.097  1.00  0.00    -0.358 N 
HETATM   14  C7  UNL     1      26.520  -1.556  52.539  1.00  0.00     0.152 C 
BRANCH  13  15
HETATM   15  C6  UNL     1      26.605   0.737  52.602  1.00  0.00     0.137 A 
HETATM   16  C2  UNL     1      26.396   2.015  53.321  1.00  0.00    -0.058 A 
HETATM   17  C1  UNL     1      25.074   2.688  53.444  1.00  0.00     0.046 C 
HETATM   18  C3  UNL     1      27.593   2.401  53.799  1.00  0.00     0.005 A 
HETATM   19  C4  UNL     1      28.620   1.435  53.440  1.00  0.00    -0.001 A 
HETATM   20  C5  UNL     1      28.047   0.447  52.732  1.00  0.00     0.003 A 
ENDBRANCH  13  15
ENDBRANCH   1  13
TORSDOF 2
ENDMDL
MODEL 3
REMARK VINA RESULT:      -8.5      1.953      3.705
REMARK  2 active torsions:
REMARK  status: ('A' for Active; 'I' for Inactive)
REMARK    1  A    between atoms: C6_6  and  N1_7 
REMARK    2  A    between atoms: N1_7  and  C8_9 
ROOT
HETATM    1  C8  UNL     1      24.838  -0.398  54.144  1.00  0.00     0.140 A 
HETATM    2  N2  UNL     1      25.208  -1.001  55.312  1.00  0.00    -0.224 NA
HETATM    3  C9  UNL     1      24.194  -1.537  56.047  1.00  0.00     0.236 A 
HETATM    4  N3  UNL     1      22.904  -1.483  55.659  1.00  0.00    -0.241 NA
HETATM    5  C10 UNL     1      22.527  -0.892  54.513  1.00  0.00     0.072 A 
HETATM    6  C11 UNL     1      21.245  -0.774  54.018  1.00  0.00     0.039 A 
HETATM    7  C12 UNL     1      21.016  -0.128  52.809  1.00  0.00    -0.054 A 
HETATM    8  C13 UNL     1      19.611  -0.024  52.313  1.00  0.00     0.049 C 
HETATM    9  C14 UNL     1      22.056   0.421  52.056  1.00  0.00    -0.055 A 
HETATM   10  C15 UNL     1      21.753   1.095  50.783  1.00  0.00     0.049 C 
HETATM   11  C16 UNL     1      23.340   0.306  52.547  1.00  0.00     0.025 A 
HETATM   12  C17 UNL     1      23.523  -0.338  53.741  1.00  0.00     0.039 A 
ENDROOT
BRANCH   1  13
HETATM   13  N1  UNL     1      26.039   0.091  53.504  1.00  0.00    -0.358 N 
HETATM   14  C7  UNL     1      26.248   1.541  53.653  1.00  0.00     0.152 C 
BRANCH  13  15
HETATM   15  C6  UNL     1      27.160  -0.358  52.743  1.00  0.00     0.137 A 
HETATM   16  C2  UNL     1      28.430  -0.471  53.498  1.00  0.00    -0.058 A 
HETATM   17  C1  UNL     1      29.081   0.670  54.198  1.00  0.00     0.046 C 
HETATM   18  C3  UNL     1      28.831  -1.752  53.408  1.00  0.00     0.005 A 
HETATM   19  C4  UNL     1      27.885  -2.528  52.621  1.00  0.00    -0.001 A 
HETATM   20  C5  UNL     1      26.893  -1.713  52.223  1.00  0.00     0.003 A 
ENDBRANCH  13  15
ENDBRANCH   1  13
TORSDOF 2
ENDMDL
MODEL 4
REMARK VINA RESULT:      -8.0      1.675      5.409
REMARK  2 active torsions:
REMARK  status: ('A' for Active; 'I' for Inactive)
REMARK    1  A    between atoms: C6_6  and  N1_7 
REMARK    2  A    between atoms: N1_7  and  C8_9 
ROOT
HETATM    1  C8  UNL     1      24.161   3.133  51.182  1.00  0.00     0.140 A 
HETATM    2  N2  UNL     1      24.563   4.116  50.323  1.00  0.00    -0.224 NA
HETATM    3  C9  UNL     1      25.884   4.106  49.989  1.00  0.00     0.236 A 
HETATM    4  N3  UNL     1      26.750   3.191  50.469  1.00  0.00    -0.241 NA
HETATM    5  C10 UNL     1      26.368   2.219  51.315  1.00  0.00     0.072 A 
HETATM    6  C11 UNL     1      27.161   1.237  51.870  1.00  0.00     0.039 A 
HETATM    7  C12 UNL     1      26.613   0.298  52.736  1.00  0.00    -0.054 A 
HETATM    8  C13 UNL     1      27.510  -0.748  53.312  1.00  0.00     0.049 C 
HETATM    9  C14 UNL     1      25.258   0.309  53.077  1.00  0.00    -0.055 A 
HETATM   10  C15 UNL     1      24.734  -0.710  54.001  1.00  0.00     0.049 C 
HETATM   11  C16 UNL     1      24.461   1.291  52.525  1.00  0.00     0.025 A 
HETATM   12  C17 UNL     1      25.040   2.195  51.676  1.00  0.00     0.039 A 
ENDROOT
BRANCH   1  13
HETATM   13  N1  UNL     1      22.742   3.298  51.403  1.00  0.00    -0.358 N 
HETATM   14  C7  UNL     1      22.386   4.544  52.103  1.00  0.00     0.152 C 
BRANCH  13  15
HETATM   15  C6  UNL     1      21.492   2.650  51.164  1.00  0.00     0.137 A 
HETATM   16  C2  UNL     1      21.541   1.518  50.210  1.00  0.00    -0.058 A 
HETATM   17  C1  UNL     1      21.997   1.645  48.799  1.00  0.00     0.046 C 
HETATM   18  C3  UNL     1      21.107   0.427  50.868  1.00  0.00     0.005 A 
HETATM   19  C4  UNL     1      20.762   0.764  52.240  1.00  0.00    -0.001 A 
HETATM   20  C5  UNL     1      20.986   2.076  52.426  1.00  0.00     0.003 A 
ENDBRANCH  13  15
ENDBRANCH   1  13
TORSDOF 2
ENDMDL
MODEL 5
REMARK VINA RESULT:      -7.9      2.566      6.419
REMARK  2 active torsions:
REMARK  status: ('A' for Active; 'I' for Inactive)
REMARK    1  A    between atoms: C6_6  and  N1_7 
REMARK    2  A    between atoms: N1_7  and  C8_9 
ROOT
HETATM    1  C8  UNL     1      22.021   1.232  52.508  1.00  0.00     0.140 A 
HETATM    2  N2  UNL     1      20.994   0.658  53.200  1.00  0.00    -0.224 NA
HETATM    3  C9  UNL     1      21.345  -0.335  54.063  1.00  0.00     0.236 A 
HETATM    4  N3  UNL     1      22.621  -0.736  54.234  1.00  0.00    -0.241 NA
HETATM    5  C10 UNL     1      23.641  -0.179  53.559  1.00  0.00     0.072 A 
HETATM    6  C11 UNL     1      24.978  -0.507  53.649  1.00  0.00     0.039 A 
HETATM    7  C12 UNL     1      25.918   0.165  52.878  1.00  0.00    -0.054 A 
HETATM    8  C13 UNL     1      27.354  -0.223  53.009  1.00  0.00     0.049 C 
HETATM    9  C14 UNL     1      25.557   1.184  51.993  1.00  0.00    -0.055 A 
HETATM   10  C15 UNL     1      26.598   1.860  51.200  1.00  0.00     0.049 C 
HETATM   11  C16 UNL     1      24.221   1.515  51.899  1.00  0.00     0.025 A 
HETATM   12  C17 UNL     1      23.327   0.829  52.677  1.00  0.00     0.039 A 
ENDROOT
BRANCH   1  13
HETATM   13  N1  UNL     1      21.458   2.263  51.664  1.00  0.00    -0.358 N 
HETATM   14  C7  UNL     1      20.983   3.447  52.400  1.00  0.00     0.152 C 
BRANCH  13  15
HETATM   15  C6  UNL     1      21.190   2.560  50.293  1.00  0.00     0.137 A 
HETATM   16  C2  UNL     1      22.346   3.075  49.522  1.00  0.00    -0.058 A 
HETATM   17  C1  UNL     1      23.091   4.314  49.876  1.00  0.00     0.046 C 
HETATM   18  C3  UNL     1      22.550   2.224  48.500  1.00  0.00     0.005 A 
HETATM   19  C4  UNL     1      21.580   1.140  48.538  1.00  0.00    -0.001 A 
HETATM   20  C5  UNL     1      20.771   1.330  49.594  1.00  0.00     0.003 A 
ENDBRANCH  13  15
ENDBRANCH   1  13
TORSDOF 2
ENDMDL
MODEL 6
REMARK VINA RESULT:      -7.7      1.854      4.948
REMARK  2 active torsions:
REMARK  status: ('A' for Active; 'I' for Inactive)
REMARK    1  A    between atoms: C6_6  and  N1_7 
REMARK    2  A    between atoms: N1_7  and  C8_9 
ROOT
HETATM    1  C8  UNL     1      25.317   1.884  52.538  1.00  0.00     0.140 A 
HETATM    2  N2  UNL     1      26.588   1.964  53.031  1.00  0.00    -0.224 NA
HETATM    3  C9  UNL     1      26.907   1.054  53.993  1.00  0.00     0.236 A 
HETATM    4  N3  UNL     1      26.034   0.128  54.439  1.00  0.00    -0.241 NA
HETATM    5  C10 UNL     1      24.781   0.039  53.963  1.00  0.00     0.072 A 
HETATM    6  C11 UNL     1      23.806  -0.859  54.344  1.00  0.00     0.039 A 
HETATM    7  C12 UNL     1      22.548  -0.821  53.755  1.00  0.00    -0.054 A 
HETATM    8  C13 UNL     1      21.524  -1.814  54.198  1.00  0.00     0.049 C 
HETATM    9  C14 UNL     1      22.221   0.112  52.768  1.00  0.00    -0.055 A 
HETATM   10  C15 UNL     1      20.872   0.105  52.180  1.00  0.00     0.049 C 
HETATM   11  C16 UNL     1      23.193   1.013  52.384  1.00  0.00     0.025 A 
HETATM   12  C17 UNL     1      24.419   0.942  52.989  1.00  0.00     0.039 A 
ENDROOT
BRANCH   1  13
HETATM   13  N1  UNL     1      25.173   2.910  51.529  1.00  0.00    -0.358 N 
HETATM   14  C7  UNL     1      26.235   2.898  50.509  1.00  0.00     0.152 C 
BRANCH  13  15
HETATM   15  C6  UNL     1      24.317   3.986  51.145  1.00  0.00     0.137 A 
HETATM   16  C2  UNL     1      23.132   3.594  50.347  1.00  0.00    -0.058 A 
HETATM   17  C1  UNL     1      23.212   2.895  49.035  1.00  0.00     0.046 C 
HETATM   18  C3  UNL     1      22.044   3.989  51.033  1.00  0.00     0.005 A 
HETATM   19  C4  UNL     1      22.434   4.638  52.276  1.00  0.00    -0.001 A 
HETATM   20  C5  UNL     1      23.776   4.641  52.352  1.00  0.00     0.003 A 
ENDBRANCH  13  15
ENDBRANCH   1  13
TORSDOF 2
ENDMDL
MODEL 7
REMARK VINA RESULT:      -7.7      2.429      6.166
REMARK  2 active torsions:
REMARK  status: ('A' for Active; 'I' for Inactive)
REMARK    1  A    between atoms: C6_6  and  N1_7 
REMARK    2  A    between atoms: N1_7  and  C8_9 
ROOT
HETATM    1  C8  UNL     1      22.307   0.925  51.648  1.00  0.00     0.140 A 
HETATM    2  N2  UNL     1      21.096   0.420  52.026  1.00  0.00    -0.224 NA
HETATM    3  C9  UNL     1      21.102  -0.354  53.146  1.00  0.00     0.236 A 
HETATM    4  N3  UNL     1      22.225  -0.613  53.847  1.00  0.00    -0.241 NA
HETATM    5  C10 UNL     1      23.422  -0.122  53.486  1.00  0.00     0.072 A 
HETATM    6  C11 UNL     1      24.631  -0.321  54.121  1.00  0.00     0.039 A 
HETATM    7  C12 UNL     1      25.791   0.257  53.618  1.00  0.00    -0.054 A 
HETATM    8  C13 UNL     1      27.076   0.014  54.339  1.00  0.00     0.049 C 
HETATM    9  C14 UNL     1      25.783   1.051  52.469  1.00  0.00    -0.055 A 
HETATM   10  C15 UNL     1      27.043   1.636  51.983  1.00  0.00     0.049 C 
HETATM   11  C16 UNL     1      24.576   1.252  51.831  1.00  0.00     0.025 A 
HETATM   12  C17 UNL     1      23.458   0.665  52.358  1.00  0.00     0.039 A 
ENDROOT
BRANCH   1  13
HETATM   13  N1  UNL     1      22.097   1.723  50.460  1.00  0.00    -0.358 N 
HETATM   14  C7  UNL     1      21.546   0.967  49.322  1.00  0.00     0.152 C 
BRANCH  13  15
HETATM   15  C6  UNL     1      22.236   3.057  49.972  1.00  0.00     0.137 A 
HETATM   16  C2  UNL     1      22.631   4.061  50.988  1.00  0.00    -0.058 A 
HETATM   17  C1  UNL     1      21.837   4.354  52.213  1.00  0.00     0.046 C 
HETATM   18  C3  UNL     1      23.788   4.609  50.574  1.00  0.00     0.005 A 
HETATM   19  C4  UNL     1      24.208   4.019  49.312  1.00  0.00    -0.001 A 
HETATM   20  C5  UNL     1      23.297   3.100  48.948  1.00  0.00     0.003 A 
ENDBRANCH  13  15
ENDBRANCH   1  13
TORSDOF 2
ENDMDL
MODEL 8
REMARK VINA RESULT:      -7.5      2.590      5.661
REMARK  2 active torsions:
REMARK  status: ('A' for Active; 'I' for Inactive)
REMARK    1  A    between atoms: C6_6  and  N1_7 
REMARK    2  A    between atoms: N1_7  and  C8_9 
ROOT
HETATM    1  C8  UNL     1      24.072   2.702  51.663  1.00  0.00     0.140 A 
HETATM    2  N2  UNL     1      25.340   2.869  51.185  1.00  0.00    -0.224 NA
HETATM    3  C9  UNL     1      26.229   1.891  51.512  1.00  0.00     0.236 A 
HETATM    4  N3  UNL     1      25.893   0.820  52.259  1.00  0.00    -0.241 NA
HETATM    5  C10 UNL     1      24.649   0.643  52.735  1.00  0.00     0.072 A 
HETATM    6  C11 UNL     1      24.192  -0.405  53.507  1.00  0.00     0.039 A 
HETATM    7  C12 UNL     1      22.868  -0.443  53.926  1.00  0.00    -0.054 A 
HETATM    8  C13 UNL     1      22.418  -1.598  54.760  1.00  0.00     0.049 C 
HETATM    9  C14 UNL     1      21.957   0.561  53.590  1.00  0.00    -0.055 A 
HETATM   10  C15 UNL     1      20.566   0.468  54.064  1.00  0.00     0.049 C 
HETATM   11  C16 UNL     1      22.409   1.612  52.818  1.00  0.00     0.025 A 
HETATM   12  C17 UNL     1      23.720   1.611  52.426  1.00  0.00     0.039 A 
ENDROOT
BRANCH   1  13
HETATM   13  N1  UNL     1      23.280   3.821  51.204  1.00  0.00    -0.358 N 
HETATM   14  C7  UNL     1      23.682   5.115  51.783  1.00  0.00     0.152 C 
BRANCH  13  15
HETATM   15  C6  UNL     1      22.191   4.138  50.338  1.00  0.00     0.137 A 
HETATM   16  C2  UNL     1      21.740   3.030  49.462  1.00  0.00    -0.058 A 
HETATM   17  C1  UNL     1      22.618   2.347  48.474  1.00  0.00     0.046 C 
HETATM   18  C3  UNL     1      20.445   2.803  49.747  1.00  0.00     0.005 A 
HETATM   19  C4  UNL     1      19.984   3.711  50.787  1.00  0.00    -0.001 A 
HETATM   20  C5  UNL     1      21.009   4.504  51.143  1.00  0.00     0.003 A 
ENDBRANCH  13  15
ENDBRANCH   1  13
TORSDOF 2
ENDMDL
MODEL 9
REMARK VINA RESULT:      -7.4      1.943      2.651
REMARK  2 active torsions:
REMARK  status: ('A' for Active; 'I' for Inactive)
REMARK    1  A    between atoms: C6_6  and  N1_7 
REMARK    2  A    between atoms: N1_7  and  C8_9 
ROOT
HETATM    1  C8  UNL     1      24.016   1.670  51.955  1.00  0.00     0.140 A 
HETATM    2  N2  UNL     1      24.294   2.454  50.871  1.00  0.00    -0.224 NA
HETATM    3  C9  UNL     1      23.269   2.635  49.994  1.00  0.00     0.236 A 
HETATM    4  N3  UNL     1      22.052   2.082  50.170  1.00  0.00    -0.241 NA
HETATM    5  C10 UNL     1      21.765   1.309  51.231  1.00  0.00     0.072 A 
HETATM    6  C11 UNL     1      20.564   0.692  51.513  1.00  0.00     0.039 A 
HETATM    7  C12 UNL     1      20.425  -0.083  52.658  1.00  0.00    -0.054 A 
HETATM    8  C13 UNL     1      19.106  -0.732  52.923  1.00  0.00     0.049 C 
HETATM    9  C14 UNL     1      21.477  -0.268  53.558  1.00  0.00    -0.055 A 
HETATM   10  C15 UNL     1      21.272  -1.101  54.754  1.00  0.00     0.049 C 
HETATM   11  C16 UNL     1      22.681   0.347  53.280  1.00  0.00     0.025 A 
HETATM   12  C17 UNL     1      22.775   1.102  52.142  1.00  0.00     0.039 A 
ENDROOT
BRANCH   1  13
HETATM   13  N1  UNL     1      25.209   1.609  52.769  1.00  0.00    -0.358 N 
HETATM   14  C7  UNL     1      25.358   2.741  53.699  1.00  0.00     0.152 C 
BRANCH  13  15
HETATM   15  C6  UNL     1      26.355   0.793  53.010  1.00  0.00     0.137 A 
HETATM   16  C2  UNL     1      26.120  -0.383  53.881  1.00  0.00    -0.058 A 
HETATM   17  C1  UNL     1      25.618  -0.289  55.279  1.00  0.00     0.046 C 
HETATM   18  C3  UNL     1      26.445  -1.476  53.167  1.00  0.00     0.005 A 
HETATM   19  C4  UNL     1      26.894  -1.100  51.835  1.00  0.00    -0.001 A 
HETATM   20  C5  UNL     1      26.844   0.239  51.731  1.00  0.00     0.003 A 
ENDBRANCH  13  15
ENDBRANCH   1  13
TORSDOF 2
ENDMDL
