MODEL 1
REMARK VINA RESULT:      -8.0      0.000      0.000
REMARK  7 active torsions:
REMARK  status: ('A' for Active; 'I' for Inactive)
REMARK    1  A    between atoms: C2_2  and  C3_3 
REMARK    2  A    between atoms: C5_5  and  N1_6 
REMARK    3  A    between atoms: N1_6  and  C6_7 
REMARK    4  A    between atoms: C9_10  and  N2_11 
REMARK       I    between atoms: N2_11  and  C10_12 
REMARK    5  A    between atoms: C16_21  and  O2_22 
REMARK    6  A    between atoms: C16_21  and  C17_23 
REMARK    7  A    between atoms: C17_23  and  O3_24 
ROOT
HETATM    1  C3  UNL     1      26.836   1.704  52.065  1.00  0.00    -0.019 C 
HETATM    2  C4  UNL     1      26.277   0.500  51.785  1.00  0.00     0.045 C 
HETATM    3  C5  UNL     1      26.541  -0.202  53.021  1.00  0.00     0.191 A 
HETATM    4  N3  UNL     1      26.738  -1.626  52.980  1.00  0.00    -0.241 NA
HETATM    5  C14 UNL     1      27.914  -1.874  53.412  1.00  0.00     0.230 A 
HETATM    6  N4  UNL     1      28.652  -0.687  53.780  1.00  0.00    -0.243 NA
HETATM    7  C15 UNL     1      27.831   0.304  53.535  1.00  0.00     0.109 A 
HETATM    8  C16 UNL     1      27.485   1.760  53.423  1.00  0.00     0.150 C 
ENDROOT
BRANCH   3   9
HETATM    9  N1  UNL     1      25.456   0.033  54.019  1.00  0.00    -0.354 N 
HETATM   10  H5  UNL     1      25.405   0.167  55.070  1.00  0.00     0.163 HD
BRANCH   9  11
HETATM   11  C6  UNL     1      24.110   0.074  53.501  1.00  0.00     0.030 A 
HETATM   12  C7  UNL     1      23.487   1.217  53.037  1.00  0.00     0.031 A 
HETATM   13  C8  UNL     1      22.201   1.268  52.561  1.00  0.00     0.032 A 
HETATM   14  C9  UNL     1      21.437   0.125  52.523  1.00  0.00     0.034 A 
HETATM   15  C12 UNL     1      22.013  -1.035  52.974  1.00  0.00     0.032 A 
HETATM   16  C13 UNL     1      23.293  -1.029  53.437  1.00  0.00     0.031 A 
BRANCH  14  17
HETATM   17  N2  UNL     1      20.132   0.291  52.016  1.00  0.00    -0.328 N 
HETATM   18  C10 UNL     1      18.935  -0.311  52.474  1.00  0.00     0.218 C 
HETATM   19  C11 UNL     1      17.590  -0.092  51.893  1.00  0.00     0.117 C 
HETATM   20  O1  UNL     1      18.932  -1.105  53.444  1.00  0.00    -0.274 OA
HETATM   21  H8  UNL     1      19.919   0.913  51.206  1.00  0.00     0.169 HD
ENDBRANCH  14  17
ENDBRANCH   9  11
ENDBRANCH   3   9
BRANCH   1  22
HETATM   22  C2  UNL     1      26.863   2.834  51.158  1.00  0.00    -0.016 C 
HETATM   23  C1  UNL     1      26.496   3.216  49.959  1.00  0.00     0.031 C 
ENDBRANCH   1  22
BRANCH   8  24
HETATM   24  O2  UNL     1      26.637   2.114  54.398  1.00  0.00    -0.376 OA
HETATM   25  H15 UNL     1      26.239   3.001  54.326  1.00  0.00     0.211 HD
ENDBRANCH   8  24
BRANCH   8  26
HETATM   26  C17 UNL     1      28.761   2.588  53.391  1.00  0.00     0.213 C 
BRANCH  26  27
HETATM   27  O3  UNL     1      29.406   2.290  54.616  1.00  0.00    -0.397 OA
HETATM   28  H18 UNL     1      30.065   2.980  54.865  1.00  0.00     0.209 HD
ENDBRANCH  26  27
ENDBRANCH   8  26
TORSDOF 7
ENDMDL
MODEL 2
REMARK VINA RESULT:      -7.6      2.455      7.558
REMARK  7 active torsions:
REMARK  status: ('A' for Active; 'I' for Inactive)
REMARK    1  A    between atoms: C2_2  and  C3_3 
REMARK    2  A    between atoms: C5_5  and  N1_6 
REMARK    3  A    between atoms: N1_6  and  C6_7 
REMARK    4  A    between atoms: C9_10  and  N2_11 
REMARK       I    between atoms: N2_11  and  C10_12 
REMARK    5  A    between atoms: C16_21  and  O2_22 
REMARK    6  A    between atoms: C16_21  and  C17_23 
REMARK    7  A    between atoms: C17_23  and  O3_24 
ROOT
HETATM    1  C3  UNL     1      19.795   0.622  51.772  1.00  0.00    -0.019 C 
HETATM    2  C4  UNL     1      20.954   0.244  51.176  1.00  0.00     0.045 C 
HETATM    3  C5  UNL     1      21.580   1.534  50.986  1.00  0.00     0.191 A 
HETATM    4  N3  UNL     1      22.457   1.718  49.861  1.00  0.00    -0.241 NA
HETATM    5  C14 UNL     1      21.964   2.639  49.125  1.00  0.00     0.230 A 
HETATM    6  N4  UNL     1      20.721   3.175  49.632  1.00  0.00    -0.243 NA
HETATM    7  C15 UNL     1      20.495   2.505  50.734  1.00  0.00     0.109 A 
HETATM    8  C16 UNL     1      19.657   2.115  51.916  1.00  0.00     0.150 C 
ENDROOT
BRANCH   3   9
HETATM    9  N1  UNL     1      22.367   1.934  52.189  1.00  0.00    -0.354 N 
HETATM   10  H5  UNL     1      22.226   2.598  53.005  1.00  0.00     0.163 HD
BRANCH   9  11
HETATM   11  C6  UNL     1      23.669   1.330  52.331  1.00  0.00     0.030 A 
HETATM   12  C7  UNL     1      24.835   1.856  51.808  1.00  0.00     0.031 A 
HETATM   13  C8  UNL     1      26.074   1.276  51.922  1.00  0.00     0.032 A 
HETATM   14  C9  UNL     1      26.217   0.087  52.597  1.00  0.00     0.034 A 
HETATM   15  C12 UNL     1      25.086  -0.475  53.135  1.00  0.00     0.032 A 
HETATM   16  C13 UNL     1      23.881   0.143  52.991  1.00  0.00     0.031 A 
BRANCH  14  17
HETATM   17  N2  UNL     1      27.532  -0.419  52.654  1.00  0.00    -0.328 N 
HETATM   18  C10 UNL     1      28.374  -0.533  53.786  1.00  0.00     0.218 C 
HETATM   19  C11 UNL     1      29.752  -1.076  53.776  1.00  0.00     0.117 C 
HETATM   20  O1  UNL     1      27.994  -0.166  54.923  1.00  0.00    -0.274 OA
HETATM   21  H8  UNL     1      28.032  -0.777  51.812  1.00  0.00     0.169 HD
ENDBRANCH  14  17
ENDBRANCH   9  11
ENDBRANCH   3   9
BRANCH   1  22
HETATM   22  C2  UNL     1      18.753  -0.287  52.203  1.00  0.00    -0.016 C 
HETATM   23  C1  UNL     1      18.413  -1.097  53.176  1.00  0.00     0.031 C 
ENDBRANCH   1  22
BRANCH   8  24
HETATM   24  O2  UNL     1      20.199   2.587  53.048  1.00  0.00    -0.376 OA
HETATM   25  H15 UNL     1      20.129   2.014  53.833  1.00  0.00     0.211 HD
ENDBRANCH   8  24
BRANCH   8  26
HETATM   26  C17 UNL     1      18.219   2.560  51.694  1.00  0.00     0.213 C 
BRANCH  26  27
HETATM   27  O3  UNL     1      18.276   3.974  51.742  1.00  0.00    -0.397 OA
HETATM   28  H18 UNL     1      18.034   4.385  50.879  1.00  0.00     0.209 HD
ENDBRANCH  26  27
ENDBRANCH   8  26
TORSDOF 7
ENDMDL
MODEL 3
REMARK VINA RESULT:      -7.1      3.544      6.191
REMARK  7 active torsions:
REMARK  status: ('A' for Active; 'I' for Inactive)
REMARK    1  A    between atoms: C2_2  and  C3_3 
REMARK    2  A    between atoms: C5_5  and  N1_6 
REMARK    3  A    between atoms: N1_6  and  C6_7 
REMARK    4  A    between atoms: C9_10  and  N2_11 
REMARK       I    between atoms: N2_11  and  C10_12 
REMARK    5  A    between atoms: C16_21  and  O2_22 
REMARK    6  A    between atoms: C16_21  and  C17_23 
REMARK    7  A    between atoms: C17_23  and  O3_24 
ROOT
HETATM    1  C3  UNL     1      26.989   0.300  52.935  1.00  0.00    -0.019 C 
HETATM    2  C4  UNL     1      26.444   0.617  51.734  1.00  0.00     0.045 C 
HETATM    3  C5  UNL     1      25.309   1.403  52.164  1.00  0.00     0.191 A 
HETATM    4  N3  UNL     1      24.118   1.398  51.358  1.00  0.00    -0.241 NA
HETATM    5  C14 UNL     1      23.164   0.929  52.067  1.00  0.00     0.230 A 
HETATM    6  N4  UNL     1      23.573   0.554  53.401  1.00  0.00    -0.243 NA
HETATM    7  C15 UNL     1      24.852   0.830  53.448  1.00  0.00     0.109 A 
HETATM    8  C16 UNL     1      26.200   0.824  54.107  1.00  0.00     0.150 C 
ENDROOT
BRANCH   3   9
HETATM    9  N1  UNL     1      25.680   2.838  52.339  1.00  0.00    -0.354 N 
HETATM   10  H5  UNL     1      26.111   3.424  53.111  1.00  0.00     0.163 HD
BRANCH   9  11
HETATM   11  C6  UNL     1      25.382   3.714  51.232  1.00  0.00     0.030 A 
HETATM   12  C7  UNL     1      24.251   4.503  51.144  1.00  0.00     0.031 A 
HETATM   13  C8  UNL     1      23.951   5.324  50.085  1.00  0.00     0.032 A 
HETATM   14  C9  UNL     1      24.806   5.401  49.012  1.00  0.00     0.034 A 
HETATM   15  C12 UNL     1      25.944   4.634  49.053  1.00  0.00     0.032 A 
HETATM   16  C13 UNL     1      26.192   3.836  50.128  1.00  0.00     0.031 A 
BRANCH  14  17
HETATM   17  N2  UNL     1      24.402   6.274  47.981  1.00  0.00    -0.328 N 
HETATM   18  C10 UNL     1      24.877   7.579  47.708  1.00  0.00     0.218 C 
HETATM   19  C11 UNL     1      24.406   8.447  46.603  1.00  0.00     0.117 C 
HETATM   20  O1  UNL     1      25.766   8.113  48.411  1.00  0.00    -0.274 OA
HETATM   21  H8  UNL     1      23.669   6.018  47.285  1.00  0.00     0.169 HD
ENDBRANCH  14  17
ENDBRANCH   9  11
ENDBRANCH   3   9
BRANCH   1  22
HETATM   22  C2  UNL     1      28.186  -0.496  53.115  1.00  0.00    -0.016 C 
HETATM   23  C1  UNL     1      29.426  -0.432  53.533  1.00  0.00     0.031 C 
ENDBRANCH   1  22
BRANCH   8  24
HETATM   24  O2  UNL     1      26.551   2.067  54.463  1.00  0.00    -0.376 OA
HETATM   25  H15 UNL     1      26.115   2.795  53.984  1.00  0.00     0.211 HD
ENDBRANCH   8  24
BRANCH   8  26
HETATM   26  C17 UNL     1      26.202  -0.167  55.261  1.00  0.00     0.213 C 
BRANCH  26  27
HETATM   27  O3  UNL     1      25.279  -1.167  54.869  1.00  0.00    -0.397 OA
HETATM   28  H18 UNL     1      24.781  -0.914  54.056  1.00  0.00     0.209 HD
ENDBRANCH  26  27
ENDBRANCH   8  26
TORSDOF 7
ENDMDL
MODEL 4
REMARK VINA RESULT:      -6.9      2.721      3.670
REMARK  7 active torsions:
REMARK  status: ('A' for Active; 'I' for Inactive)
REMARK    1  A    between atoms: C2_2  and  C3_3 
REMARK    2  A    between atoms: C5_5  and  N1_6 
REMARK    3  A    between atoms: N1_6  and  C6_7 
REMARK    4  A    between atoms: C9_10  and  N2_11 
REMARK       I    between atoms: N2_11  and  C10_12 
REMARK    5  A    between atoms: C16_21  and  O2_22 
REMARK    6  A    between atoms: C16_21  and  C17_23 
REMARK    7  A    between atoms: C17_23  and  O3_24 
ROOT
HETATM    1  C3  UNL     1      23.891   3.436  49.866  1.00  0.00    -0.019 C 
HETATM    2  C4  UNL     1      23.856   2.135  50.246  1.00  0.00     0.045 C 
HETATM    3  C5  UNL     1      24.743   2.175  51.388  1.00  0.00     0.191 A 
HETATM    4  N3  UNL     1      25.518   1.005  51.704  1.00  0.00    -0.241 NA
HETATM    5  C14 UNL     1      26.754   1.318  51.625  1.00  0.00     0.230 A 
HETATM    6  N4  UNL     1      26.973   2.695  51.245  1.00  0.00    -0.243 NA
HETATM    7  C15 UNL     1      25.772   3.195  51.096  1.00  0.00     0.109 A 
HETATM    8  C16 UNL     1      24.812   4.280  50.707  1.00  0.00     0.150 C 
ENDROOT
BRANCH   3   9
HETATM    9  N1  UNL     1      24.003   2.526  52.635  1.00  0.00    -0.354 N 
HETATM   10  H5  UNL     1      24.122   3.233  53.418  1.00  0.00     0.163 HD
BRANCH   9  11
HETATM   11  C6  UNL     1      22.838   1.729  52.933  1.00  0.00     0.030 A 
HETATM   12  C7  UNL     1      22.880   0.455  53.468  1.00  0.00     0.031 A 
HETATM   13  C8  UNL     1      21.777  -0.317  53.735  1.00  0.00     0.032 A 
HETATM   14  C9  UNL     1      20.518   0.167  53.468  1.00  0.00     0.034 A 
HETATM   15  C12 UNL     1      20.426   1.428  52.935  1.00  0.00     0.032 A 
HETATM   16  C13 UNL     1      21.553   2.152  52.689  1.00  0.00     0.031 A 
BRANCH  14  17
HETATM   17  N2  UNL     1      19.458  -0.708  53.781  1.00  0.00    -0.328 N 
HETATM   18  C10 UNL     1      18.368  -1.086  52.961  1.00  0.00     0.218 C 
HETATM   19  C11 UNL     1      17.283  -2.016  53.354  1.00  0.00     0.117 C 
HETATM   20  O1  UNL     1      18.241  -0.642  51.796  1.00  0.00    -0.274 OA
HETATM   21  H8  UNL     1      19.379  -1.185  54.705  1.00  0.00     0.169 HD
ENDBRANCH  14  17
ENDBRANCH   9  11
ENDBRANCH   3   9
BRANCH   1  22
HETATM   22  C2  UNL     1      23.161   3.988  48.742  1.00  0.00    -0.016 C 
HETATM   23  C1  UNL     1      22.409   3.653  47.722  1.00  0.00     0.031 C 
ENDBRANCH   1  22
BRANCH   8  24
HETATM   24  O2  UNL     1      24.216   4.787  51.794  1.00  0.00    -0.376 OA
HETATM   25  H15 UNL     1      24.727   4.757  52.623  1.00  0.00     0.211 HD
ENDBRANCH   8  24
BRANCH   8  26
HETATM   26  C17 UNL     1      25.532   5.322  49.862  1.00  0.00     0.213 C 
BRANCH  26  27
HETATM   27  O3  UNL     1      25.601   6.465  50.695  1.00  0.00    -0.397 OA
HETATM   28  H18 UNL     1      25.702   6.225  51.646  1.00  0.00     0.209 HD
ENDBRANCH  26  27
ENDBRANCH   8  26
TORSDOF 7
ENDMDL
MODEL 5
REMARK VINA RESULT:      -6.8      3.406      4.710
REMARK  7 active torsions:
REMARK  status: ('A' for Active; 'I' for Inactive)
REMARK    1  A    between atoms: C2_2  and  C3_3 
REMARK    2  A    between atoms: C5_5  and  N1_6 
REMARK    3  A    between atoms: N1_6  and  C6_7 
REMARK    4  A    between atoms: C9_10  and  N2_11 
REMARK       I    between atoms: N2_11  and  C10_12 
REMARK    5  A    between atoms: C16_21  and  O2_22 
REMARK    6  A    between atoms: C16_21  and  C17_23 
REMARK    7  A    between atoms: C17_23  and  O3_24 
ROOT
HETATM    1  C3  UNL     1      25.471   2.744  51.146  1.00  0.00    -0.019 C 
HETATM    2  C4  UNL     1      24.607   3.242  52.066  1.00  0.00     0.045 C 
HETATM    3  C5  UNL     1      23.937   4.249  51.274  1.00  0.00     0.191 A 
HETATM    4  N3  UNL     1      23.445   5.431  51.930  1.00  0.00    -0.241 NA
HETATM    5  C14 UNL     1      24.042   6.440  51.422  1.00  0.00     0.230 A 
HETATM    6  N4  UNL     1      24.996   6.086  50.397  1.00  0.00    -0.243 NA
HETATM    7  C15 UNL     1      24.935   4.780  50.321  1.00  0.00     0.109 A 
HETATM    8  C16 UNL     1      25.394   3.445  49.814  1.00  0.00     0.150 C 
ENDROOT
BRANCH   3   9
HETATM    9  N1  UNL     1      22.773   3.673  50.540  1.00  0.00    -0.354 N 
HETATM   10  H5  UNL     1      22.316   3.829  49.595  1.00  0.00     0.163 HD
BRANCH   9  11
HETATM   11  C6  UNL     1      22.012   2.665  51.238  1.00  0.00     0.030 A 
HETATM   12  C7  UNL     1      22.156   1.305  51.042  1.00  0.00     0.031 A 
HETATM   13  C8  UNL     1      21.422   0.340  51.689  1.00  0.00     0.032 A 
HETATM   14  C9  UNL     1      20.465   0.705  52.605  1.00  0.00     0.034 A 
HETATM   15  C12 UNL     1      20.286   2.046  52.833  1.00  0.00     0.032 A 
HETATM   16  C13 UNL     1      21.040   2.961  52.164  1.00  0.00     0.031 A 
BRANCH  14  17
HETATM   17  N2  UNL     1      19.772  -0.364  53.209  1.00  0.00    -0.328 N 
HETATM   18  C10 UNL     1      18.505  -0.891  52.860  1.00  0.00     0.218 C 
HETATM   19  C11 UNL     1      17.832  -2.022  53.540  1.00  0.00     0.117 C 
HETATM   20  O1  UNL     1      17.838  -0.415  51.911  1.00  0.00    -0.274 OA
HETATM   21  H8  UNL     1      20.158  -0.896  54.019  1.00  0.00     0.169 HD
ENDBRANCH  14  17
ENDBRANCH   9  11
ENDBRANCH   3   9
BRANCH   1  22
HETATM   22  C2  UNL     1      26.417   1.675  51.393  1.00  0.00    -0.016 C 
HETATM   23  C1  UNL     1      26.540   0.508  51.977  1.00  0.00     0.031 C 
ENDBRANCH   1  22
BRANCH   8  24
HETATM   24  O2  UNL     1      24.476   2.916  48.993  1.00  0.00    -0.376 OA
HETATM   25  H15 UNL     1      24.814   2.475  48.193  1.00  0.00     0.211 HD
ENDBRANCH   8  24
BRANCH   8  26
HETATM   26  C17 UNL     1      26.772   3.583  49.183  1.00  0.00     0.213 C 
BRANCH  26  27
HETATM   27  O3  UNL     1      27.362   4.678  49.860  1.00  0.00    -0.397 OA
HETATM   28  H18 UNL     1      28.044   5.130  49.309  1.00  0.00     0.209 HD
ENDBRANCH  26  27
ENDBRANCH   8  26
TORSDOF 7
ENDMDL
MODEL 6
REMARK VINA RESULT:      -6.8      9.416     12.836
REMARK  7 active torsions:
REMARK  status: ('A' for Active; 'I' for Inactive)
REMARK    1  A    between atoms: C2_2  and  C3_3 
REMARK    2  A    between atoms: C5_5  and  N1_6 
REMARK    3  A    between atoms: N1_6  and  C6_7 
REMARK    4  A    between atoms: C9_10  and  N2_11 
REMARK       I    between atoms: N2_11  and  C10_12 
REMARK    5  A    between atoms: C16_21  and  O2_22 
REMARK    6  A    between atoms: C16_21  and  C17_23 
REMARK    7  A    between atoms: C17_23  and  O3_24 
ROOT
HETATM    1  C3  UNL     1      28.554   8.091  48.090  1.00  0.00    -0.019 C 
HETATM    2  C4  UNL     1      29.177   8.517  46.963  1.00  0.00     0.045 C 
HETATM    3  C5  UNL     1      29.594   9.838  47.381  1.00  0.00     0.191 A 
HETATM    4  N3  UNL     1      29.688  10.879  46.394  1.00  0.00    -0.241 NA
HETATM    5  C14 UNL     1      28.871  11.805  46.719  1.00  0.00     0.230 A 
HETATM    6  N4  UNL     1      28.129  11.518  47.926  1.00  0.00    -0.243 NA
HETATM    7  C15 UNL     1      28.558  10.341  48.308  1.00  0.00     0.109 A 
HETATM    8  C16 UNL     1      28.527   9.125  49.186  1.00  0.00     0.150 C 
ENDROOT
BRANCH   3   9
HETATM    9  N1  UNL     1      30.922   9.795  48.060  1.00  0.00    -0.354 N 
HETATM   10  H5  UNL     1      31.408  10.357  48.818  1.00  0.00     0.163 HD
BRANCH   9  11
HETATM   11  C6  UNL     1      31.839   8.779  47.605  1.00  0.00     0.030 A 
HETATM   12  C7  UNL     1      32.187   7.658  48.336  1.00  0.00     0.031 A 
HETATM   13  C8  UNL     1      33.074   6.697  47.919  1.00  0.00     0.032 A 
HETATM   14  C9  UNL     1      33.686   6.814  46.693  1.00  0.00     0.034 A 
HETATM   15  C12 UNL     1      33.372   7.910  45.931  1.00  0.00     0.032 A 
HETATM   16  C13 UNL     1      32.486   8.834  46.394  1.00  0.00     0.031 A 
BRANCH  14  17
HETATM   17  N2  UNL     1      34.577   5.771  46.364  1.00  0.00    -0.328 N 
HETATM   18  C10 UNL     1      34.276   4.520  45.774  1.00  0.00     0.218 C 
HETATM   19  C11 UNL     1      35.266   3.465  45.454  1.00  0.00     0.117 C 
HETATM   20  O1  UNL     1      33.101   4.206  45.470  1.00  0.00    -0.274 OA
HETATM   21  H8  UNL     1      35.603   5.835  46.538  1.00  0.00     0.169 HD
ENDBRANCH  14  17
ENDBRANCH   9  11
ENDBRANCH   3   9
BRANCH   1  22
HETATM   22  C2  UNL     1      27.930   6.793  48.249  1.00  0.00    -0.016 C 
HETATM   23  C1  UNL     1      28.197   5.528  48.466  1.00  0.00     0.031 C 
ENDBRANCH   1  22
BRANCH   8  24
HETATM   24  O2  UNL     1      29.612   9.088  49.971  1.00  0.00    -0.376 OA
HETATM   25  H15 UNL     1      29.841   8.222  50.354  1.00  0.00     0.211 HD
ENDBRANCH   8  24
BRANCH   8  26
HETATM   26  C17 UNL     1      27.214   9.080  49.954  1.00  0.00     0.213 C 
BRANCH  26  27
HETATM   27  O3  UNL     1      27.521   9.658  51.210  1.00  0.00    -0.397 OA
HETATM   28  H18 UNL     1      26.709   9.920  51.705  1.00  0.00     0.209 HD
ENDBRANCH  26  27
ENDBRANCH   8  26
TORSDOF 7
ENDMDL
MODEL 7
REMARK VINA RESULT:      -6.8      4.072      5.295
REMARK  7 active torsions:
REMARK  status: ('A' for Active; 'I' for Inactive)
REMARK    1  A    between atoms: C2_2  and  C3_3 
REMARK    2  A    between atoms: C5_5  and  N1_6 
REMARK    3  A    between atoms: N1_6  and  C6_7 
REMARK    4  A    between atoms: C9_10  and  N2_11 
REMARK       I    between atoms: N2_11  and  C10_12 
REMARK    5  A    between atoms: C16_21  and  O2_22 
REMARK    6  A    between atoms: C16_21  and  C17_23 
REMARK    7  A    between atoms: C17_23  and  O3_24 
ROOT
HETATM    1  C3  UNL     1      23.355   6.609  50.031  1.00  0.00    -0.019 C 
HETATM    2  C4  UNL     1      23.164   5.297  49.745  1.00  0.00     0.045 C 
HETATM    3  C5  UNL     1      24.365   4.729  50.319  1.00  0.00     0.191 A 
HETATM    4  N3  UNL     1      24.924   3.546  49.723  1.00  0.00    -0.241 NA
HETATM    5  C14 UNL     1      26.101   3.829  49.316  1.00  0.00     0.230 A 
HETATM    6  N4  UNL     1      26.479   5.202  49.563  1.00  0.00    -0.243 NA
HETATM    7  C15 UNL     1      25.436   5.733  50.151  1.00  0.00     0.109 A 
HETATM    8  C16 UNL     1      24.664   6.885  50.724  1.00  0.00     0.150 C 
ENDROOT
BRANCH   3   9
HETATM    9  N1  UNL     1      24.173   4.409  51.764  1.00  0.00    -0.354 N 
HETATM   10  H5  UNL     1      24.631   4.702  52.675  1.00  0.00     0.163 HD
BRANCH   9  11
HETATM   11  C6  UNL     1      23.146   3.445  52.074  1.00  0.00     0.030 A 
HETATM   12  C7  UNL     1      21.797   3.739  52.149  1.00  0.00     0.031 A 
HETATM   13  C8  UNL     1      20.816   2.832  52.463  1.00  0.00     0.032 A 
HETATM   14  C9  UNL     1      21.148   1.526  52.730  1.00  0.00     0.034 A 
HETATM   15  C12 UNL     1      22.476   1.185  52.668  1.00  0.00     0.032 A 
HETATM   16  C13 UNL     1      23.409   2.125  52.353  1.00  0.00     0.031 A 
BRANCH  14  17
HETATM   17  N2  UNL     1      20.063   0.680  53.040  1.00  0.00    -0.328 N 
HETATM   18  C10 UNL     1      19.148   0.072  52.147  1.00  0.00     0.218 C 
HETATM   19  C11 UNL     1      18.025  -0.810  52.542  1.00  0.00     0.117 C 
HETATM   20  O1  UNL     1      19.230   0.246  50.908  1.00  0.00    -0.274 OA
HETATM   21  H8  UNL     1      19.824   0.410  54.018  1.00  0.00     0.169 HD
ENDBRANCH  14  17
ENDBRANCH   9  11
ENDBRANCH   3   9
BRANCH   1  22
HETATM   22  C2  UNL     1      22.436   7.673  49.684  1.00  0.00    -0.016 C 
HETATM   23  C1  UNL     1      21.444   7.971  48.880  1.00  0.00     0.031 C 
ENDBRANCH   1  22
BRANCH   8  24
HETATM   24  O2  UNL     1      24.587   6.777  52.058  1.00  0.00    -0.376 OA
HETATM   25  H15 UNL     1      23.900   7.311  52.496  1.00  0.00     0.211 HD
ENDBRANCH   8  24
BRANCH   8  26
HETATM   26  C17 UNL     1      25.274   8.196  50.250  1.00  0.00     0.213 C 
BRANCH  26  27
HETATM   27  O3  UNL     1      26.617   8.142  50.697  1.00  0.00    -0.397 OA
HETATM   28  H18 UNL     1      27.149   7.482  50.193  1.00  0.00     0.209 HD
ENDBRANCH  26  27
ENDBRANCH   8  26
TORSDOF 7
ENDMDL
MODEL 8
REMARK VINA RESULT:      -6.7      8.447     10.370
REMARK  7 active torsions:
REMARK  status: ('A' for Active; 'I' for Inactive)
REMARK    1  A    between atoms: C2_2  and  C3_3 
REMARK    2  A    between atoms: C5_5  and  N1_6 
REMARK    3  A    between atoms: N1_6  and  C6_7 
REMARK    4  A    between atoms: C9_10  and  N2_11 
REMARK       I    between atoms: N2_11  and  C10_12 
REMARK    5  A    between atoms: C16_21  and  O2_22 
REMARK    6  A    between atoms: C16_21  and  C17_23 
REMARK    7  A    between atoms: C17_23  and  O3_24 
ROOT
HETATM    1  C3  UNL     1      32.892   3.563  47.297  1.00  0.00    -0.019 C 
HETATM    2  C4  UNL     1      32.298   4.362  48.218  1.00  0.00     0.045 C 
HETATM    3  C5  UNL     1      32.634   5.664  47.687  1.00  0.00     0.191 A 
HETATM    4  N3  UNL     1      32.806   6.761  48.601  1.00  0.00    -0.241 NA
HETATM    5  C14 UNL     1      34.006   7.186  48.485  1.00  0.00     0.230 A 
HETATM    6  N4  UNL     1      34.784   6.448  47.516  1.00  0.00    -0.243 NA
HETATM    7  C15 UNL     1      33.964   5.538  47.053  1.00  0.00     0.109 A 
HETATM    8  C16 UNL     1      33.633   4.328  46.231  1.00  0.00     0.150 C 
ENDROOT
BRANCH   3   9
HETATM    9  N1  UNL     1      31.623   6.118  46.687  1.00  0.00    -0.354 N 
HETATM   10  H5  UNL     1      31.628   6.353  45.653  1.00  0.00     0.163 HD
BRANCH   9  11
HETATM   11  C6  UNL     1      30.288   6.341  47.186  1.00  0.00     0.030 A 
HETATM   12  C7  UNL     1      29.561   7.497  46.978  1.00  0.00     0.031 A 
HETATM   13  C8  UNL     1      28.297   7.724  47.466  1.00  0.00     0.032 A 
HETATM   14  C9  UNL     1      27.669   6.762  48.220  1.00  0.00     0.034 A 
HETATM   15  C12 UNL     1      28.352   5.595  48.453  1.00  0.00     0.032 A 
HETATM   16  C13 UNL     1      29.604   5.422  47.946  1.00  0.00     0.031 A 
BRANCH  14  17
HETATM   17  N2  UNL     1      26.375   7.099  48.669  1.00  0.00    -0.328 N 
HETATM   18  C10 UNL     1      26.019   7.963  49.732  1.00  0.00     0.218 C 
HETATM   19  C11 UNL     1      24.633   8.275  50.152  1.00  0.00     0.117 C 
HETATM   20  O1  UNL     1      26.889   8.548  50.419  1.00  0.00    -0.274 OA
HETATM   21  H8  UNL     1      25.511   6.716  48.228  1.00  0.00     0.169 HD
ENDBRANCH  14  17
ENDBRANCH   9  11
ENDBRANCH   3   9
BRANCH   1  22
HETATM   22  C2  UNL     1      32.874   2.114  47.325  1.00  0.00    -0.016 C 
HETATM   23  C1  UNL     1      32.275   1.070  46.807  1.00  0.00     0.031 C 
ENDBRANCH   1  22
BRANCH   8  24
HETATM   24  O2  UNL     1      32.858   4.667  45.192  1.00  0.00    -0.376 OA
HETATM   25  H15 UNL     1      31.897   4.683  45.355  1.00  0.00     0.211 HD
ENDBRANCH   8  24
BRANCH   8  26
HETATM   26  C17 UNL     1      34.916   3.614  45.831  1.00  0.00     0.213 C 
BRANCH  26  27
HETATM   27  O3  UNL     1      35.605   4.553  45.026  1.00  0.00    -0.397 OA
HETATM   28  H18 UNL     1      34.996   5.047  44.428  1.00  0.00     0.209 HD
ENDBRANCH  26  27
ENDBRANCH   8  26
TORSDOF 7
ENDMDL
MODEL 9
REMARK VINA RESULT:      -6.7      2.839      3.888
REMARK  7 active torsions:
REMARK  status: ('A' for Active; 'I' for Inactive)
REMARK    1  A    between atoms: C2_2  and  C3_3 
REMARK    2  A    between atoms: C5_5  and  N1_6 
REMARK    3  A    between atoms: N1_6  and  C6_7 
REMARK    4  A    between atoms: C9_10  and  N2_11 
REMARK       I    between atoms: N2_11  and  C10_12 
REMARK    5  A    between atoms: C16_21  and  O2_22 
REMARK    6  A    between atoms: C16_21  and  C17_23 
REMARK    7  A    between atoms: C17_23  and  O3_24 
ROOT
HETATM    1  C3  UNL     1      25.304   2.281  51.463  1.00  0.00    -0.019 C 
HETATM    2  C4  UNL     1      24.118   1.763  51.059  1.00  0.00     0.045 C 
HETATM    3  C5  UNL     1      23.538   1.414  52.337  1.00  0.00     0.191 A 
HETATM    4  N3  UNL     1      22.643   0.291  52.408  1.00  0.00    -0.241 NA
HETATM    5  C14 UNL     1      23.154  -0.570  53.202  1.00  0.00     0.230 A 
HETATM    6  N4  UNL     1      24.428  -0.162  53.747  1.00  0.00    -0.243 NA
HETATM    7  C15 UNL     1      24.655   1.015  53.220  1.00  0.00     0.109 A 
HETATM    8  C16 UNL     1      25.504   2.223  52.955  1.00  0.00     0.150 C 
ENDROOT
BRANCH   3   9
HETATM    9  N1  UNL     1      22.796   2.568  52.926  1.00  0.00    -0.354 N 
HETATM   10  H5  UNL     1      22.967   3.262  53.710  1.00  0.00     0.163 HD
BRANCH   9  11
HETATM   11  C6  UNL     1      21.502   2.853  52.357  1.00  0.00     0.030 A 
HETATM   12  C7  UNL     1      20.382   2.062  52.531  1.00  0.00     0.031 A 
HETATM   13  C8  UNL     1      19.152   2.316  51.976  1.00  0.00     0.032 A 
HETATM   14  C9  UNL     1      18.972   3.424  51.183  1.00  0.00     0.034 A 
HETATM   15  C12 UNL     1      20.056   4.240  50.981  1.00  0.00     0.032 A 
HETATM   16  C13 UNL     1      21.254   3.941  51.555  1.00  0.00     0.031 A 
BRANCH  14  17
HETATM   17  N2  UNL     1      17.671   3.589  50.666  1.00  0.00    -0.328 N 
HETATM   18  C10 UNL     1      16.517   4.057  51.340  1.00  0.00     0.218 C 
HETATM   19  C11 UNL     1      15.174   4.207  50.733  1.00  0.00     0.117 C 
HETATM   20  O1  UNL     1      16.556   4.392  52.547  1.00  0.00    -0.274 OA
HETATM   21  H8  UNL     1      17.428   3.366  49.677  1.00  0.00     0.169 HD
ENDBRANCH  14  17
ENDBRANCH   9  11
ENDBRANCH   3   9
BRANCH   1  22
HETATM   22  C2  UNL     1      26.321   2.810  50.576  1.00  0.00    -0.016 C 
HETATM   23  C1  UNL     1      26.528   3.718  49.655  1.00  0.00     0.031 C 
ENDBRANCH   1  22
BRANCH   8  24
HETATM   24  O2  UNL     1      25.009   3.292  53.595  1.00  0.00    -0.376 OA
HETATM   25  H15 UNL     1      24.073   3.241  53.862  1.00  0.00     0.211 HD
ENDBRANCH   8  24
BRANCH   8  26
HETATM   26  C17 UNL     1      26.953   1.917  53.306  1.00  0.00     0.213 C 
BRANCH  26  27
HETATM   27  O3  UNL     1      26.892   1.369  54.611  1.00  0.00    -0.397 OA
HETATM   28  H18 UNL     1      26.571   0.437  54.606  1.00  0.00     0.209 HD
ENDBRANCH  26  27
ENDBRANCH   8  26
TORSDOF 7
ENDMDL
