MODEL 1
REMARK VINA RESULT:      -7.4      0.000      0.000
REMARK  7 active torsions:
REMARK  status: ('A' for Active; 'I' for Inactive)
REMARK    1  A    between atoms: C2_2  and  C3_3 
REMARK    2  A    between atoms: C3_3  and  C4_4 
REMARK    3  A    between atoms: C4_4  and  N1_5 
REMARK       I    between atoms: N1_5  and  C5_6 
REMARK    4  A    between atoms: C5_6  and  C6_8 
REMARK    5  A    between atoms: C9_11  and  S1_12 
REMARK    6  A    between atoms: S1_12  and  C10_15 
REMARK    7  A    between atoms: C13_18  and  C14_19 
ROOT
HETATM    1  C6  UNL     1      24.439   0.304  53.572  1.00  0.00     0.032 A 
HETATM    2  C7  UNL     1      24.418   1.536  52.951  1.00  0.00     0.018 A 
HETATM    3  C8  UNL     1      23.212   1.976  52.391  1.00  0.00     0.025 A 
HETATM    4  C9  UNL     1      22.052   1.231  52.432  1.00  0.00     0.064 A 
HETATM    5  C17 UNL     1      22.091   0.000  53.056  1.00  0.00     0.025 A 
HETATM    6  C18 UNL     1      23.282  -0.445  53.617  1.00  0.00     0.018 A 
ENDROOT
BRANCH   4   7
HETATM    7  S1  UNL     1      20.621   1.911  51.687  1.00  0.00     0.206 S 
HETATM    8  O2  UNL     1      19.549   0.879  51.642  1.00  0.00    -0.217 OA
HETATM    9  O3  UNL     1      20.101   3.047  52.556  1.00  0.00    -0.217 OA
BRANCH   7  10
HETATM   10  C10 UNL     1      20.971   2.585  50.116  1.00  0.00     0.064 A 
HETATM   11  C11 UNL     1      20.808   3.949  49.851  1.00  0.00     0.025 A 
HETATM   12  C12 UNL     1      21.097   4.457  48.585  1.00  0.00     0.016 A 
HETATM   13  C13 UNL     1      21.534   3.533  47.670  1.00  0.00     0.002 A 
HETATM   14  C15 UNL     1      21.716   2.182  47.868  1.00  0.00     0.016 A 
HETATM   15  C16 UNL     1      21.416   1.713  49.145  1.00  0.00     0.025 A 
BRANCH  13  16
HETATM   16  C14 UNL     1      21.853   4.002  46.329  1.00  0.00     0.269 C 
HETATM   17  O4  UNL     1      22.145   3.470  45.234  1.00  0.00    -0.301 OA
ENDBRANCH  13  16
ENDBRANCH   7  10
ENDBRANCH   4   7
BRANCH   1  18
HETATM   18  C5  UNL     1      25.706  -0.130  54.147  1.00  0.00     0.251 C 
HETATM   19  N1  UNL     1      26.874   0.672  54.263  1.00  0.00    -0.357 N 
HETATM   20  H10 UNL     1      26.774   1.656  53.892  1.00  0.00     0.162 HD
HETATM   21  O1  UNL     1      25.777  -1.311  54.576  1.00  0.00    -0.268 OA
BRANCH  19  22
HETATM   22  C4  UNL     1      28.109   0.202  54.840  1.00  0.00     0.123 C 
BRANCH  22  23
HETATM   23  C3  UNL     1      29.337   0.598  54.049  1.00  0.00     0.019 C 
BRANCH  23  24
HETATM   24  C2  UNL     1      30.061  -0.607  53.489  1.00  0.00    -0.003 C 
HETATM   25  C1  UNL     1      29.173  -1.803  53.364  1.00  0.00     0.005 C 
ENDBRANCH  23  24
ENDBRANCH  22  23
ENDBRANCH  19  22
ENDBRANCH   1  18
TORSDOF 7
ENDMDL
MODEL 2
REMARK VINA RESULT:      -7.3      2.912      4.546
REMARK  7 active torsions:
REMARK  status: ('A' for Active; 'I' for Inactive)
REMARK    1  A    between atoms: C2_2  and  C3_3 
REMARK    2  A    between atoms: C3_3  and  C4_4 
REMARK    3  A    between atoms: C4_4  and  N1_5 
REMARK       I    between atoms: N1_5  and  C5_6 
REMARK    4  A    between atoms: C5_6  and  C6_8 
REMARK    5  A    between atoms: C9_11  and  S1_12 
REMARK    6  A    between atoms: S1_12  and  C10_15 
REMARK    7  A    between atoms: C13_18  and  C14_19 
ROOT
HETATM    1  C6  UNL     1      24.345   0.233  53.525  1.00  0.00     0.032 A 
HETATM    2  C7  UNL     1      24.090   1.564  53.263  1.00  0.00     0.018 A 
HETATM    3  C8  UNL     1      22.827   1.912  52.771  1.00  0.00     0.025 A 
HETATM    4  C9  UNL     1      21.833   0.985  52.537  1.00  0.00     0.064 A 
HETATM    5  C17 UNL     1      22.105  -0.342  52.804  1.00  0.00     0.025 A 
HETATM    6  C18 UNL     1      23.355  -0.698  53.293  1.00  0.00     0.018 A 
ENDROOT
BRANCH   4   7
HETATM    7  S1  UNL     1      20.303   1.571  51.920  1.00  0.00     0.206 S 
HETATM    8  O2  UNL     1      19.983   2.881  52.553  1.00  0.00    -0.217 OA
HETATM    9  O3  UNL     1      20.435   1.827  50.426  1.00  0.00    -0.217 OA
BRANCH   7  10
HETATM   10  C10 UNL     1      19.031   0.395  52.129  1.00  0.00     0.064 A 
HETATM   11  C11 UNL     1      19.040  -0.514  53.192  1.00  0.00     0.025 A 
HETATM   12  C12 UNL     1      18.009  -1.441  53.332  1.00  0.00     0.016 A 
HETATM   13  C13 UNL     1      17.030  -1.377  52.372  1.00  0.00     0.002 A 
HETATM   14  C15 UNL     1      16.962  -0.509  51.305  1.00  0.00     0.016 A 
HETATM   15  C16 UNL     1      18.012   0.402  51.200  1.00  0.00     0.025 A 
BRANCH  13  16
HETATM   16  C14 UNL     1      15.924  -2.319  52.464  1.00  0.00     0.269 C 
HETATM   17  O4  UNL     1      15.109  -2.832  51.664  1.00  0.00    -0.301 OA
ENDBRANCH  13  16
ENDBRANCH   7  10
ENDBRANCH   4   7
BRANCH   1  18
HETATM   18  C5  UNL     1      25.668  -0.103  54.037  1.00  0.00     0.251 C 
HETATM   19  N1  UNL     1      26.778   0.784  54.093  1.00  0.00    -0.357 N 
HETATM   20  H10 UNL     1      26.587   1.756  53.725  1.00  0.00     0.162 HD
HETATM   21  O1  UNL     1      25.848  -1.273  54.464  1.00  0.00    -0.268 OA
BRANCH  19  22
HETATM   22  C4  UNL     1      28.072   0.409  54.608  1.00  0.00     0.123 C 
BRANCH  22  23
HETATM   23  C3  UNL     1      29.138   0.290  53.540  1.00  0.00     0.019 C 
BRANCH  23  24
HETATM   24  C2  UNL     1      29.925  -0.995  53.668  1.00  0.00    -0.003 C 
HETATM   25  C1  UNL     1      29.148  -2.190  53.217  1.00  0.00     0.005 C 
ENDBRANCH  23  24
ENDBRANCH  22  23
ENDBRANCH  19  22
ENDBRANCH   1  18
TORSDOF 7
ENDMDL
MODEL 3
REMARK VINA RESULT:      -7.2      2.092      2.384
REMARK  7 active torsions:
REMARK  status: ('A' for Active; 'I' for Inactive)
REMARK    1  A    between atoms: C2_2  and  C3_3 
REMARK    2  A    between atoms: C3_3  and  C4_4 
REMARK    3  A    between atoms: C4_4  and  N1_5 
REMARK       I    between atoms: N1_5  and  C5_6 
REMARK    4  A    between atoms: C5_6  and  C6_8 
REMARK    5  A    between atoms: C9_11  and  S1_12 
REMARK    6  A    between atoms: S1_12  and  C10_15 
REMARK    7  A    between atoms: C13_18  and  C14_19 
ROOT
HETATM    1  C6  UNL     1      24.997   0.929  53.456  1.00  0.00     0.032 A 
HETATM    2  C7  UNL     1      24.970   2.291  53.241  1.00  0.00     0.018 A 
HETATM    3  C8  UNL     1      23.812   2.852  52.688  1.00  0.00     0.025 A 
HETATM    4  C9  UNL     1      22.706   2.102  52.351  1.00  0.00     0.064 A 
HETATM    5  C17 UNL     1      22.750   0.741  52.571  1.00  0.00     0.025 A 
HETATM    6  C18 UNL     1      23.893   0.174  53.120  1.00  0.00     0.018 A 
ENDROOT
BRANCH   4   7
HETATM    7  S1  UNL     1      21.330   2.944  51.667  1.00  0.00     0.206 S 
HETATM    8  O2  UNL     1      20.570   2.015  50.785  1.00  0.00    -0.217 OA
HETATM    9  O3  UNL     1      20.388   3.351  52.790  1.00  0.00    -0.217 OA
BRANCH   7  10
HETATM   10  C10 UNL     1      21.812   4.405  50.845  1.00  0.00     0.064 A 
HETATM   11  C11 UNL     1      21.669   5.663  51.441  1.00  0.00     0.025 A 
HETATM   12  C12 UNL     1      22.064   6.812  50.759  1.00  0.00     0.016 A 
HETATM   13  C13 UNL     1      22.582   6.599  49.506  1.00  0.00     0.002 A 
HETATM   14  C15 UNL     1      22.750   5.392  48.865  1.00  0.00     0.016 A 
HETATM   15  C16 UNL     1      22.343   4.267  49.580  1.00  0.00     0.025 A 
BRANCH  13  16
HETATM   16  C14 UNL     1      23.014   7.761  48.741  1.00  0.00     0.269 C 
HETATM   17  O4  UNL     1      23.620   8.828  48.989  1.00  0.00    -0.301 OA
ENDBRANCH  13  16
ENDBRANCH   7  10
ENDBRANCH   4   7
BRANCH   1  18
HETATM   18  C5  UNL     1      26.214   0.370  54.033  1.00  0.00     0.251 C 
HETATM   19  N1  UNL     1      27.433   1.076  54.225  1.00  0.00    -0.357 N 
HETATM   20  H10 UNL     1      27.414   2.085  53.911  1.00  0.00     0.162 HD
HETATM   21  O1  UNL     1      26.188  -0.836  54.391  1.00  0.00    -0.268 OA
BRANCH  19  22
HETATM   22  C4  UNL     1      28.615   0.484  54.800  1.00  0.00     0.123 C 
BRANCH  22  23
HETATM   23  C3  UNL     1      29.656   0.090  53.775  1.00  0.00     0.019 C 
BRANCH  23  24
HETATM   24  C2  UNL     1      30.006  -1.379  53.861  1.00  0.00    -0.003 C 
HETATM   25  C1  UNL     1      29.056  -2.240  53.092  1.00  0.00     0.005 C 
ENDBRANCH  23  24
ENDBRANCH  22  23
ENDBRANCH  19  22
ENDBRANCH   1  18
TORSDOF 7
ENDMDL
MODEL 4
REMARK VINA RESULT:      -7.1      5.359      8.313
REMARK  7 active torsions:
REMARK  status: ('A' for Active; 'I' for Inactive)
REMARK    1  A    between atoms: C2_2  and  C3_3 
REMARK    2  A    between atoms: C3_3  and  C4_4 
REMARK    3  A    between atoms: C4_4  and  N1_5 
REMARK       I    between atoms: N1_5  and  C5_6 
REMARK    4  A    between atoms: C5_6  and  C6_8 
REMARK    5  A    between atoms: C9_11  and  S1_12 
REMARK    6  A    between atoms: S1_12  and  C10_15 
REMARK    7  A    between atoms: C13_18  and  C14_19 
ROOT
HETATM    1  C6  UNL     1      26.374   5.449  49.149  1.00  0.00     0.032 A 
HETATM    2  C7  UNL     1      26.992   4.218  49.242  1.00  0.00     0.018 A 
HETATM    3  C8  UNL     1      26.470   3.280  50.140  1.00  0.00     0.025 A 
HETATM    4  C9  UNL     1      25.370   3.535  50.932  1.00  0.00     0.064 A 
HETATM    5  C17 UNL     1      24.764   4.770  50.827  1.00  0.00     0.025 A 
HETATM    6  C18 UNL     1      25.274   5.708  49.939  1.00  0.00     0.018 A 
ENDROOT
BRANCH   4   7
HETATM    7  S1  UNL     1      24.831   2.263  52.009  1.00  0.00     0.206 S 
HETATM    8  O2  UNL     1      24.160   2.869  53.193  1.00  0.00    -0.217 OA
HETATM    9  O3  UNL     1      23.784   1.419  51.297  1.00  0.00    -0.217 OA
BRANCH   7  10
HETATM   10  C10 UNL     1      26.138   1.195  52.451  1.00  0.00     0.064 A 
HETATM   11  C11 UNL     1      27.242   1.651  53.179  1.00  0.00     0.025 A 
HETATM   12  C12 UNL     1      28.270   0.773  53.518  1.00  0.00     0.016 A 
HETATM   13  C13 UNL     1      28.102  -0.519  53.087  1.00  0.00     0.002 A 
HETATM   14  C15 UNL     1      27.043  -1.029  52.370  1.00  0.00     0.016 A 
HETATM   15  C16 UNL     1      26.036  -0.120  52.051  1.00  0.00     0.025 A 
BRANCH  13  16
HETATM   16  C14 UNL     1      29.142  -1.485  53.409  1.00  0.00     0.269 C 
HETATM   17  O4  UNL     1      29.200  -2.724  53.580  1.00  0.00    -0.301 OA
ENDBRANCH  13  16
ENDBRANCH   7  10
ENDBRANCH   4   7
BRANCH   1  18
HETATM   18  C5  UNL     1      26.938   6.407  48.206  1.00  0.00     0.251 C 
HETATM   19  N1  UNL     1      28.321   6.558  47.914  1.00  0.00    -0.357 N 
HETATM   20  H10 UNL     1      28.959   5.902  48.444  1.00  0.00     0.162 HD
HETATM   21  O1  UNL     1      26.139   7.166  47.600  1.00  0.00    -0.268 OA
BRANCH  19  22
HETATM   22  C4  UNL     1      28.837   7.520  46.973  1.00  0.00     0.123 C 
BRANCH  22  23
HETATM   23  C3  UNL     1      30.211   8.043  47.332  1.00  0.00     0.019 C 
BRANCH  23  24
HETATM   24  C2  UNL     1      30.420   8.102  48.829  1.00  0.00    -0.003 C 
HETATM   25  C1  UNL     1      30.565   9.503  49.332  1.00  0.00     0.005 C 
ENDBRANCH  23  24
ENDBRANCH  22  23
ENDBRANCH  19  22
ENDBRANCH   1  18
TORSDOF 7
ENDMDL
MODEL 5
REMARK VINA RESULT:      -7.1      5.333      7.594
REMARK  7 active torsions:
REMARK  status: ('A' for Active; 'I' for Inactive)
REMARK    1  A    between atoms: C2_2  and  C3_3 
REMARK    2  A    between atoms: C3_3  and  C4_4 
REMARK    3  A    between atoms: C4_4  and  N1_5 
REMARK       I    between atoms: N1_5  and  C5_6 
REMARK    4  A    between atoms: C5_6  and  C6_8 
REMARK    5  A    between atoms: C9_11  and  S1_12 
REMARK    6  A    between atoms: S1_12  and  C10_15 
REMARK    7  A    between atoms: C13_18  and  C14_19 
ROOT
HETATM    1  C6  UNL     1      27.277   5.615  48.759  1.00  0.00     0.032 A 
HETATM    2  C7  UNL     1      26.272   6.419  49.257  1.00  0.00     0.018 A 
HETATM    3  C8  UNL     1      25.220   5.811  49.953  1.00  0.00     0.025 A 
HETATM    4  C9  UNL     1      25.149   4.450  50.160  1.00  0.00     0.064 A 
HETATM    5  C17 UNL     1      26.162   3.660  49.656  1.00  0.00     0.025 A 
HETATM    6  C18 UNL     1      27.210   4.253  48.964  1.00  0.00     0.018 A 
ENDROOT
BRANCH   4   7
HETATM    7  S1  UNL     1      23.772   3.834  51.050  1.00  0.00     0.206 S 
HETATM    8  O2  UNL     1      23.165   4.935  51.848  1.00  0.00    -0.217 OA
HETATM    9  O3  UNL     1      22.709   3.371  50.064  1.00  0.00    -0.217 OA
BRANCH   7  10
HETATM   10  C10 UNL     1      24.201   2.454  52.028  1.00  0.00     0.064 A 
HETATM   11  C11 UNL     1      23.461   1.268  51.987  1.00  0.00     0.025 A 
HETATM   12  C12 UNL     1      23.830   0.183  52.780  1.00  0.00     0.016 A 
HETATM   13  C13 UNL     1      24.936   0.383  53.567  1.00  0.00     0.002 A 
HETATM   14  C15 UNL     1      25.706   1.522  53.653  1.00  0.00     0.016 A 
HETATM   15  C16 UNL     1      25.304   2.584  52.845  1.00  0.00     0.025 A 
BRANCH  13  16
HETATM   16  C14 UNL     1      25.373  -0.714  54.419  1.00  0.00     0.269 C 
HETATM   17  O4  UNL     1      25.469  -0.916  55.651  1.00  0.00    -0.301 OA
ENDBRANCH  13  16
ENDBRANCH   7  10
ENDBRANCH   4   7
BRANCH   1  18
HETATM   18  C5  UNL     1      28.360   6.273  48.038  1.00  0.00     0.251 C 
HETATM   19  N1  UNL     1      29.716   5.848  48.024  1.00  0.00    -0.357 N 
HETATM   20  H10 UNL     1      29.914   4.981  48.594  1.00  0.00     0.162 HD
HETATM   21  O1  UNL     1      28.075   7.303  47.373  1.00  0.00    -0.268 OA
BRANCH  19  22
HETATM   22  C4  UNL     1      30.757   6.530  47.296  1.00  0.00     0.123 C 
BRANCH  22  23
HETATM   23  C3  UNL     1      32.034   5.728  47.171  1.00  0.00     0.019 C 
BRANCH  23  24
HETATM   24  C2  UNL     1      31.801   4.253  47.412  1.00  0.00    -0.003 C 
HETATM   25  C1  UNL     1      32.340   3.400  46.307  1.00  0.00     0.005 C 
ENDBRANCH  23  24
ENDBRANCH  22  23
ENDBRANCH  19  22
ENDBRANCH   1  18
TORSDOF 7
ENDMDL
MODEL 6
REMARK VINA RESULT:      -7.1      6.383      8.596
REMARK  7 active torsions:
REMARK  status: ('A' for Active; 'I' for Inactive)
REMARK    1  A    between atoms: C2_2  and  C3_3 
REMARK    2  A    between atoms: C3_3  and  C4_4 
REMARK    3  A    between atoms: C4_4  and  N1_5 
REMARK       I    between atoms: N1_5  and  C5_6 
REMARK    4  A    between atoms: C5_6  and  C6_8 
REMARK    5  A    between atoms: C9_11  and  S1_12 
REMARK    6  A    between atoms: S1_12  and  C10_15 
REMARK    7  A    between atoms: C13_18  and  C14_19 
ROOT
HETATM    1  C6  UNL     1      27.627   6.328  48.650  1.00  0.00     0.032 A 
HETATM    2  C7  UNL     1      26.424   6.830  49.104  1.00  0.00     0.018 A 
HETATM    3  C8  UNL     1      25.446   5.923  49.529  1.00  0.00     0.025 A 
HETATM    4  C9  UNL     1      25.634   4.557  49.511  1.00  0.00     0.064 A 
HETATM    5  C17 UNL     1      26.842   4.072  49.053  1.00  0.00     0.025 A 
HETATM    6  C18 UNL     1      27.820   4.963  48.630  1.00  0.00     0.018 A 
ENDROOT
BRANCH   4   7
HETATM    7  S1  UNL     1      24.318   3.548  50.072  1.00  0.00     0.206 S 
HETATM    8  O2  UNL     1      23.245   4.407  50.646  1.00  0.00    -0.217 OA
HETATM    9  O3  UNL     1      23.708   2.819  48.884  1.00  0.00    -0.217 OA
BRANCH   7  10
HETATM   10  C10 UNL     1      24.872   2.330  51.192  1.00  0.00     0.064 A 
HETATM   11  C11 UNL     1      26.220   1.966  51.271  1.00  0.00     0.025 A 
HETATM   12  C12 UNL     1      26.632   0.990  52.177  1.00  0.00     0.016 A 
HETATM   13  C13 UNL     1      25.633   0.447  52.945  1.00  0.00     0.002 A 
HETATM   14  C15 UNL     1      24.292   0.760  52.917  1.00  0.00     0.016 A 
HETATM   15  C16 UNL     1      23.921   1.741  51.998  1.00  0.00     0.025 A 
BRANCH  13  16
HETATM   16  C14 UNL     1      25.999  -0.579  53.912  1.00  0.00     0.269 C 
HETATM   17  O4  UNL     1      26.076  -0.656  55.159  1.00  0.00    -0.301 OA
ENDBRANCH  13  16
ENDBRANCH   7  10
ENDBRANCH   4   7
BRANCH   1  18
HETATM   18  C5  UNL     1      28.629   7.294  48.214  1.00  0.00     0.251 C 
HETATM   19  N1  UNL     1      29.686   7.802  49.017  1.00  0.00    -0.357 N 
HETATM   20  H10 UNL     1      29.714   7.423  50.003  1.00  0.00     0.162 HD
HETATM   21  O1  UNL     1      28.554   7.716  47.031  1.00  0.00    -0.268 OA
BRANCH  19  22
HETATM   22  C4  UNL     1      30.657   8.758  48.545  1.00  0.00     0.123 C 
BRANCH  22  23
HETATM   23  C3  UNL     1      30.682  10.041  49.346  1.00  0.00     0.019 C 
BRANCH  23  24
HETATM   24  C2  UNL     1      31.006  11.241  48.483  1.00  0.00    -0.003 C 
HETATM   25  C1  UNL     1      30.564  12.528  49.102  1.00  0.00     0.005 C 
ENDBRANCH  23  24
ENDBRANCH  22  23
ENDBRANCH  19  22
ENDBRANCH   1  18
TORSDOF 7
ENDMDL
MODEL 7
REMARK VINA RESULT:      -6.9      5.397      7.120
REMARK  7 active torsions:
REMARK  status: ('A' for Active; 'I' for Inactive)
REMARK    1  A    between atoms: C2_2  and  C3_3 
REMARK    2  A    between atoms: C3_3  and  C4_4 
REMARK    3  A    between atoms: C4_4  and  N1_5 
REMARK       I    between atoms: N1_5  and  C5_6 
REMARK    4  A    between atoms: C5_6  and  C6_8 
REMARK    5  A    between atoms: C9_11  and  S1_12 
REMARK    6  A    between atoms: S1_12  and  C10_15 
REMARK    7  A    between atoms: C13_18  and  C14_19 
ROOT
HETATM    1  C6  UNL     1      27.701   5.724  48.516  1.00  0.00     0.032 A 
HETATM    2  C7  UNL     1      26.680   6.652  48.493  1.00  0.00     0.018 A 
HETATM    3  C8  UNL     1      25.396   6.234  48.862  1.00  0.00     0.025 A 
HETATM    4  C9  UNL     1      25.111   4.939  49.244  1.00  0.00     0.064 A 
HETATM    5  C17 UNL     1      26.144   4.024  49.260  1.00  0.00     0.025 A 
HETATM    6  C18 UNL     1      27.422   4.428  48.897  1.00  0.00     0.018 A 
ENDROOT
BRANCH   4   7
HETATM    7  S1  UNL     1      23.456   4.565  49.677  1.00  0.00     0.206 S 
HETATM    8  O2  UNL     1      22.787   5.795  50.184  1.00  0.00    -0.217 OA
HETATM    9  O3  UNL     1      22.700   4.137  48.428  1.00  0.00    -0.217 OA
BRANCH   7  10
HETATM   10  C10 UNL     1      23.371   3.239  50.808  1.00  0.00     0.064 A 
HETATM   11  C11 UNL     1      23.995   3.301  52.058  1.00  0.00     0.025 A 
HETATM   12  C12 UNL     1      23.907   2.226  52.941  1.00  0.00     0.016 A 
HETATM   13  C13 UNL     1      23.185   1.152  52.484  1.00  0.00     0.002 A 
HETATM   14  C15 UNL     1      22.548   1.029  51.270  1.00  0.00     0.016 A 
HETATM   15  C16 UNL     1      22.659   2.125  50.416  1.00  0.00     0.025 A 
BRANCH  13  16
HETATM   16  C14 UNL     1      23.056  -0.004  53.360  1.00  0.00     0.269 C 
HETATM   17  O4  UNL     1      22.271  -0.973  53.464  1.00  0.00    -0.301 OA
ENDBRANCH  13  16
ENDBRANCH   7  10
ENDBRANCH   4   7
BRANCH   1  18
HETATM   18  C5  UNL     1      29.029   6.185  48.128  1.00  0.00     0.251 C 
HETATM   19  N1  UNL     1      30.243   5.842  48.783  1.00  0.00    -0.357 N 
HETATM   20  H10 UNL     1      30.131   5.199  49.614  1.00  0.00     0.162 HD
HETATM   21  O1  UNL     1      29.111   6.950  47.133  1.00  0.00    -0.268 OA
BRANCH  19  22
HETATM   22  C4  UNL     1      31.537   6.322  48.366  1.00  0.00     0.123 C 
BRANCH  22  23
HETATM   23  C3  UNL     1      32.549   5.220  48.145  1.00  0.00     0.019 C 
BRANCH  23  24
HETATM   24  C2  UNL     1      31.981   4.087  47.319  1.00  0.00    -0.003 C 
HETATM   25  C1  UNL     1      32.859   2.876  47.324  1.00  0.00     0.005 C 
ENDBRANCH  23  24
ENDBRANCH  22  23
ENDBRANCH  19  22
ENDBRANCH   1  18
TORSDOF 7
ENDMDL
MODEL 8
REMARK VINA RESULT:      -6.8      7.476      9.852
REMARK  7 active torsions:
REMARK  status: ('A' for Active; 'I' for Inactive)
REMARK    1  A    between atoms: C2_2  and  C3_3 
REMARK    2  A    between atoms: C3_3  and  C4_4 
REMARK    3  A    between atoms: C4_4  and  N1_5 
REMARK       I    between atoms: N1_5  and  C5_6 
REMARK    4  A    between atoms: C5_6  and  C6_8 
REMARK    5  A    between atoms: C9_11  and  S1_12 
REMARK    6  A    between atoms: S1_12  and  C10_15 
REMARK    7  A    between atoms: C13_18  and  C14_19 
ROOT
HETATM    1  C6  UNL     1      26.350   5.287  49.199  1.00  0.00     0.032 A 
HETATM    2  C7  UNL     1      27.513   4.632  48.850  1.00  0.00     0.018 A 
HETATM    3  C8  UNL     1      28.545   5.378  48.267  1.00  0.00     0.025 A 
HETATM    4  C9  UNL     1      28.445   6.732  48.027  1.00  0.00     0.064 A 
HETATM    5  C17 UNL     1      27.275   7.372  48.381  1.00  0.00     0.025 A 
HETATM    6  C18 UNL     1      26.245   6.642  48.962  1.00  0.00     0.018 A 
ENDROOT
BRANCH   4   7
HETATM    7  S1  UNL     1      29.818   7.531  47.290  1.00  0.00     0.206 S 
HETATM    8  O2  UNL     1      29.507   7.837  45.866  1.00  0.00    -0.217 OA
HETATM    9  O3  UNL     1      30.049   8.864  47.984  1.00  0.00    -0.217 OA
BRANCH   7  10
HETATM   10  C10 UNL     1      31.281   6.597  47.471  1.00  0.00     0.064 A 
HETATM   11  C11 UNL     1      31.797   5.831  46.421  1.00  0.00     0.025 A 
HETATM   12  C12 UNL     1      32.968   5.096  46.597  1.00  0.00     0.016 A 
HETATM   13  C13 UNL     1      33.537   5.193  47.842  1.00  0.00     0.002 A 
HETATM   14  C15 UNL     1      33.082   5.927  48.915  1.00  0.00     0.016 A 
HETATM   15  C16 UNL     1      31.908   6.647  48.698  1.00  0.00     0.025 A 
BRANCH  13  16
HETATM   16  C14 UNL     1      34.764   4.448  48.090  1.00  0.00     0.269 C 
HETATM   17  O4  UNL     1      35.162   3.277  47.898  1.00  0.00    -0.301 OA
ENDBRANCH  13  16
ENDBRANCH   7  10
ENDBRANCH   4   7
BRANCH   1  18
HETATM   18  C5  UNL     1      25.292   4.488  49.804  1.00  0.00     0.251 C 
HETATM   19  N1  UNL     1      24.861   4.582  51.156  1.00  0.00    -0.357 N 
HETATM   20  H10 UNL     1      25.373   5.302  51.734  1.00  0.00     0.162 HD
HETATM   21  O1  UNL     1      24.710   3.643  49.075  1.00  0.00    -0.268 OA
BRANCH  19  22
HETATM   22  C4  UNL     1      23.808   3.770  51.715  1.00  0.00     0.123 C 
BRANCH  22  23
HETATM   23  C3  UNL     1      24.218   3.024  52.966  1.00  0.00     0.019 C 
BRANCH  23  24
HETATM   24  C2  UNL     1      24.305   1.532  52.732  1.00  0.00    -0.003 C 
HETATM   25  C1  UNL     1      25.555   1.137  52.013  1.00  0.00     0.005 C 
ENDBRANCH  23  24
ENDBRANCH  22  23
ENDBRANCH  19  22
ENDBRANCH   1  18
TORSDOF 7
ENDMDL
MODEL 9
REMARK VINA RESULT:      -6.8      5.119      5.681
REMARK  7 active torsions:
REMARK  status: ('A' for Active; 'I' for Inactive)
REMARK    1  A    between atoms: C2_2  and  C3_3 
REMARK    2  A    between atoms: C3_3  and  C4_4 
REMARK    3  A    between atoms: C4_4  and  N1_5 
REMARK       I    between atoms: N1_5  and  C5_6 
REMARK    4  A    between atoms: C5_6  and  C6_8 
REMARK    5  A    between atoms: C9_11  and  S1_12 
REMARK    6  A    between atoms: S1_12  and  C10_15 
REMARK    7  A    between atoms: C13_18  and  C14_19 
ROOT
HETATM    1  C6  UNL     1      25.480   2.083  51.904  1.00  0.00     0.032 A 
HETATM    2  C7  UNL     1      26.230   2.455  50.807  1.00  0.00     0.018 A 
HETATM    3  C8  UNL     1      25.865   3.619  50.119  1.00  0.00     0.025 A 
HETATM    4  C9  UNL     1      24.793   4.402  50.490  1.00  0.00     0.064 A 
HETATM    5  C17 UNL     1      24.053   4.015  51.589  1.00  0.00     0.025 A 
HETATM    6  C18 UNL     1      24.407   2.863  52.279  1.00  0.00     0.018 A 
ENDROOT
BRANCH   4   7
HETATM    7  S1  UNL     1      24.458   5.829  49.531  1.00  0.00     0.206 S 
HETATM    8  O2  UNL     1      23.901   5.419  48.212  1.00  0.00    -0.217 OA
HETATM    9  O3  UNL     1      23.382   6.652  50.224  1.00  0.00    -0.217 OA
BRANCH   7  10
HETATM   10  C10 UNL     1      25.865   6.848  49.378  1.00  0.00     0.064 A 
HETATM   11  C11 UNL     1      26.054   7.965  50.198  1.00  0.00     0.025 A 
HETATM   12  C12 UNL     1      27.190   8.760  50.052  1.00  0.00     0.016 A 
HETATM   13  C13 UNL     1      28.062   8.358  49.071  1.00  0.00     0.002 A 
HETATM   14  C15 UNL     1      27.936   7.272  48.234  1.00  0.00     0.016 A 
HETATM   15  C16 UNL     1      26.787   6.504  48.412  1.00  0.00     0.025 A 
BRANCH  13  16
HETATM   16  C14 UNL     1      29.269   9.147  48.869  1.00  0.00     0.269 C 
HETATM   17  O4  UNL     1      30.250   9.489  49.568  1.00  0.00    -0.301 OA
ENDBRANCH  13  16
ENDBRANCH   7  10
ENDBRANCH   4   7
BRANCH   1  18
HETATM   18  C5  UNL     1      25.881   0.868  52.603  1.00  0.00     0.251 C 
HETATM   19  N1  UNL     1      26.830  -0.079  52.129  1.00  0.00    -0.357 N 
HETATM   20  H10 UNL     1      27.257   0.154  51.190  1.00  0.00     0.162 HD
HETATM   21  O1  UNL     1      25.345   0.633  53.717  1.00  0.00    -0.268 OA
BRANCH  19  22
HETATM   22  C4  UNL     1      27.198  -1.270  52.853  1.00  0.00     0.123 C 
BRANCH  22  23
HETATM   23  C3  UNL     1      28.688  -1.406  53.078  1.00  0.00     0.019 C 
BRANCH  23  24
HETATM   24  C2  UNL     1      29.289  -0.148  53.666  1.00  0.00    -0.003 C 
HETATM   25  C1  UNL     1      28.667   0.226  54.974  1.00  0.00     0.005 C 
ENDBRANCH  23  24
ENDBRANCH  22  23
ENDBRANCH  19  22
ENDBRANCH   1  18
TORSDOF 7
ENDMDL
