MODEL 1
REMARK VINA RESULT:      -9.6      0.000      0.000
REMARK  3 active torsions:
REMARK  status: ('A' for Active; 'I' for Inactive)
REMARK    1  A    between atoms: O1_2  and  C2_3 
REMARK    2  A    between atoms: C2_3  and  C3_5 
REMARK    3  A    between atoms: C4_6  and  O3_7 
ROOT
HETATM    1  C3  UNL     1      24.460   2.402  51.286  1.00  0.00     0.111 A 
HETATM    2  C4  UNL     1      25.748   2.608  51.514  1.00  0.00     0.102 A 
HETATM    3  C6  UNL     1      26.357   1.820  52.566  1.00  0.00     0.012 A 
HETATM    4  C7  UNL     1      27.701   2.108  52.708  1.00  0.00     0.015 A 
HETATM    5  C8  UNL     1      28.532   1.509  53.623  1.00  0.00     0.001 A 
HETATM    6  C9  UNL     1      28.023   0.554  54.465  1.00  0.00     0.001 A 
HETATM    7  C10 UNL     1      26.692   0.231  54.364  1.00  0.00     0.016 A 
HETATM    8  C11 UNL     1      25.891   0.857  53.430  1.00  0.00     0.018 A 
HETATM    9  C12 UNL     1      24.503   0.333  53.509  1.00  0.00     0.124 A 
HETATM   10  S1  UNL     1      23.563   1.188  52.271  1.00  0.00    -0.077 SA
HETATM   11  C13 UNL     1      21.990   0.396  52.571  1.00  0.00     0.091 A 
HETATM   12  C14 UNL     1      22.315  -0.438  53.574  1.00  0.00     0.148 A 
HETATM   13  O4  UNL     1      23.609  -0.450  54.035  1.00  0.00    -0.297 OA
HETATM   14  C15 UNL     1      21.156  -1.239  54.027  1.00  0.00     0.218 A 
HETATM   15  O5  UNL     1      21.250  -2.081  54.958  1.00  0.00    -0.284 OA
HETATM   16  C16 UNL     1      19.852  -1.049  53.372  1.00  0.00     0.031 A 
HETATM   17  C17 UNL     1      18.781  -1.828  53.833  1.00  0.00     0.016 A 
HETATM   18  C18 UNL     1      17.568  -1.632  53.203  1.00  0.00     0.001 A 
HETATM   19  C19 UNL     1      17.330  -0.744  52.173  1.00  0.00     0.001 A 
HETATM   20  C20 UNL     1      18.399   0.009  51.740  1.00  0.00     0.016 A 
HETATM   21  C21 UNL     1      19.618  -0.143  52.325  1.00  0.00     0.030 A 
HETATM   22  C22 UNL     1      20.768   0.654  51.872  1.00  0.00     0.202 A 
HETATM   23  O6  UNL     1      20.709   1.493  50.956  1.00  0.00    -0.286 OA
ENDROOT
BRANCH   1  24
HETATM   24  C2  UNL     1      23.640   3.038  50.321  1.00  0.00     0.302 C 
HETATM   25  O2  UNL     1      23.126   3.326  49.245  1.00  0.00    -0.259 OA
BRANCH  24  26
HETATM   26  O1  UNL     1      22.829   4.019  50.839  1.00  0.00    -0.322 OA
HETATM   27  C1  UNL     1      23.285   5.320  51.077  1.00  0.00     0.213 C 
ENDBRANCH  24  26
ENDBRANCH   1  24
BRANCH   2  28
HETATM   28  O3  UNL     1      26.387   3.550  50.732  1.00  0.00    -0.353 OA
HETATM   29  C5  UNL     1      26.792   3.405  49.408  1.00  0.00     0.210 C 
ENDBRANCH   2  28
TORSDOF 3
ENDMDL
MODEL 2
REMARK VINA RESULT:      -9.5      1.970      7.196
REMARK  3 active torsions:
REMARK  status: ('A' for Active; 'I' for Inactive)
REMARK    1  A    between atoms: O1_2  and  C2_3 
REMARK    2  A    between atoms: C2_3  and  C3_5 
REMARK    3  A    between atoms: C4_6  and  O3_7 
ROOT
HETATM    1  C3  UNL     1      25.281   0.659  53.053  1.00  0.00     0.111 A 
HETATM    2  C4  UNL     1      24.565  -0.208  53.752  1.00  0.00     0.102 A 
HETATM    3  C6  UNL     1      23.125  -0.123  53.612  1.00  0.00     0.012 A 
HETATM    4  C7  UNL     1      22.481  -1.079  54.374  1.00  0.00     0.015 A 
HETATM    5  C8  UNL     1      21.117  -1.238  54.432  1.00  0.00     0.001 A 
HETATM    6  C9  UNL     1      20.315  -0.406  53.695  1.00  0.00     0.001 A 
HETATM    7  C10 UNL     1      20.907   0.561  52.920  1.00  0.00     0.016 A 
HETATM    8  C11 UNL     1      22.281   0.686  52.889  1.00  0.00     0.018 A 
HETATM    9  C12 UNL     1      22.677   1.791  51.978  1.00  0.00     0.124 A 
HETATM   10  S1  UNL     1      24.450   1.862  52.001  1.00  0.00    -0.077 SA
HETATM   11  C13 UNL     1      24.653   3.224  50.863  1.00  0.00     0.091 A 
HETATM   12  C14 UNL     1      23.370   3.501  50.569  1.00  0.00     0.148 A 
HETATM   13  O4  UNL     1      22.379   2.751  51.155  1.00  0.00    -0.297 OA
HETATM   14  C15 UNL     1      23.249   4.626  49.616  1.00  0.00     0.218 A 
HETATM   15  O5  UNL     1      22.132   5.042  49.213  1.00  0.00    -0.284 OA
HETATM   16  C16 UNL     1      24.470   5.282  49.120  1.00  0.00     0.031 A 
HETATM   17  C17 UNL     1      24.309   6.343  48.218  1.00  0.00     0.016 A 
HETATM   18  C18 UNL     1      25.469   6.942  47.768  1.00  0.00     0.001 A 
HETATM   19  C19 UNL     1      26.752   6.584  48.129  1.00  0.00     0.001 A 
HETATM   20  C20 UNL     1      26.882   5.539  49.017  1.00  0.00     0.016 A 
HETATM   21  C21 UNL     1      25.773   4.911  49.493  1.00  0.00     0.030 A 
HETATM   22  C22 UNL     1      25.896   3.794  50.440  1.00  0.00     0.202 A 
HETATM   23  O6  UNL     1      26.983   3.359  50.857  1.00  0.00    -0.286 OA
ENDROOT
BRANCH   1  24
HETATM   24  C2  UNL     1      26.694   0.781  53.014  1.00  0.00     0.302 C 
HETATM   25  O2  UNL     1      27.864   0.599  52.698  1.00  0.00    -0.259 OA
BRANCH  24  26
HETATM   26  O1  UNL     1      27.197   1.709  53.894  1.00  0.00    -0.322 OA
HETATM   27  C1  UNL     1      28.453   2.301  53.723  1.00  0.00     0.213 C 
ENDBRANCH  24  26
ENDBRANCH   1  24
BRANCH   2  28
HETATM   28  O3  UNL     1      25.252  -1.107  54.543  1.00  0.00    -0.353 OA
HETATM   29  C5  UNL     1      25.474  -1.018  55.915  1.00  0.00     0.210 C 
ENDBRANCH   2  28
TORSDOF 3
ENDMDL
MODEL 3
REMARK VINA RESULT:      -9.3      2.579      7.345
REMARK  3 active torsions:
REMARK  status: ('A' for Active; 'I' for Inactive)
REMARK    1  A    between atoms: O1_2  and  C2_3 
REMARK    2  A    between atoms: C2_3  and  C3_5 
REMARK    3  A    between atoms: C4_6  and  O3_7 
ROOT
HETATM    1  C3  UNL     1      23.299   2.636  51.933  1.00  0.00     0.111 A 
HETATM    2  C4  UNL     1      23.400   1.509  52.619  1.00  0.00     0.102 A 
HETATM    3  C6  UNL     1      24.683   0.837  52.580  1.00  0.00     0.012 A 
HETATM    4  C7  UNL     1      24.679  -0.318  53.338  1.00  0.00     0.015 A 
HETATM    5  C8  UNL     1      25.759  -1.154  53.489  1.00  0.00     0.001 A 
HETATM    6  C9  UNL     1      26.936  -0.846  52.856  1.00  0.00     0.001 A 
HETATM    7  C10 UNL     1      26.992   0.292  52.090  1.00  0.00     0.016 A 
HETATM    8  C11 UNL     1      25.884   1.105  51.965  1.00  0.00     0.018 A 
HETATM    9  C12 UNL     1      26.195   2.271  51.098  1.00  0.00     0.124 A 
HETATM   10  S1  UNL     1      24.719   3.251  51.011  1.00  0.00    -0.077 SA
HETATM   11  C13 UNL     1      25.349   4.542  49.947  1.00  0.00     0.091 A 
HETATM   12  C14 UNL     1      26.610   4.118  49.755  1.00  0.00     0.148 A 
HETATM   13  O4  UNL     1      27.017   2.951  50.356  1.00  0.00    -0.297 OA
HETATM   14  C15 UNL     1      27.376   5.034  48.882  1.00  0.00     0.218 A 
HETATM   15  O5  UNL     1      28.578   4.816  48.578  1.00  0.00    -0.284 OA
HETATM   16  C16 UNL     1      26.718   6.238  48.350  1.00  0.00     0.031 A 
HETATM   17  C17 UNL     1      27.481   7.078  47.527  1.00  0.00     0.016 A 
HETATM   18  C18 UNL     1      26.841   8.200  47.040  1.00  0.00     0.001 A 
HETATM   19  C19 UNL     1      25.532   8.554  47.295  1.00  0.00     0.001 A 
HETATM   20  C20 UNL     1      24.804   7.711  48.106  1.00  0.00     0.016 A 
HETATM   21  C21 UNL     1      25.384   6.590  48.614  1.00  0.00     0.030 A 
HETATM   22  C22 UNL     1      24.621   5.683  49.482  1.00  0.00     0.202 A 
HETATM   23  O6  UNL     1      23.433   5.868  49.801  1.00  0.00    -0.286 OA
ENDROOT
BRANCH   1  24
HETATM   24  C2  UNL     1      22.162   3.476  51.812  1.00  0.00     0.302 C 
HETATM   25  O2  UNL     1      21.363   4.381  52.025  1.00  0.00    -0.259 OA
BRANCH  24  26
HETATM   26  O1  UNL     1      21.311   3.119  50.794  1.00  0.00    -0.322 OA
HETATM   27  C1  UNL     1      19.920   3.181  50.924  1.00  0.00     0.213 C 
ENDBRANCH  24  26
ENDBRANCH   1  24
BRANCH   2  28
HETATM   28  O3  UNL     1      22.281   1.082  53.307  1.00  0.00    -0.353 OA
HETATM   29  C5  UNL     1      21.304   0.200  52.852  1.00  0.00     0.210 C 
ENDBRANCH   2  28
TORSDOF 3
ENDMDL
MODEL 4
REMARK VINA RESULT:      -9.2      2.944      5.691
REMARK  3 active torsions:
REMARK  status: ('A' for Active; 'I' for Inactive)
REMARK    1  A    between atoms: O1_2  and  C2_3 
REMARK    2  A    between atoms: C2_3  and  C3_5 
REMARK    3  A    between atoms: C4_6  and  O3_7 
ROOT
HETATM    1  C3  UNL     1      24.182   6.044  49.101  1.00  0.00     0.111 A 
HETATM    2  C4  UNL     1      24.930   6.860  48.373  1.00  0.00     0.102 A 
HETATM    3  C6  UNL     1      26.336   6.528  48.263  1.00  0.00     0.012 A 
HETATM    4  C7  UNL     1      27.015   7.437  47.474  1.00  0.00     0.015 A 
HETATM    5  C8  UNL     1      28.357   7.370  47.190  1.00  0.00     0.001 A 
HETATM    6  C9  UNL     1      29.101   6.342  47.710  1.00  0.00     0.001 A 
HETATM    7  C10 UNL     1      28.472   5.412  48.501  1.00  0.00     0.016 A 
HETATM    8  C11 UNL     1      27.121   5.515  48.761  1.00  0.00     0.018 A 
HETATM    9  C12 UNL     1      26.676   4.393  49.627  1.00  0.00     0.124 A 
HETATM   10  S1  UNL     1      24.935   4.611  49.892  1.00  0.00    -0.077 SA
HETATM   11  C13 UNL     1      24.666   3.179  50.925  1.00  0.00     0.091 A 
HETATM   12  C14 UNL     1      25.908   2.667  50.976  1.00  0.00     0.148 A 
HETATM   13  O4  UNL     1      26.919   3.310  50.302  1.00  0.00    -0.297 OA
HETATM   14  C15 UNL     1      25.968   1.437  51.795  1.00  0.00     0.218 A 
HETATM   15  O5  UNL     1      27.042   0.803  51.969  1.00  0.00    -0.284 OA
HETATM   16  C16 UNL     1      24.738   0.933  52.427  1.00  0.00     0.031 A 
HETATM   17  C17 UNL     1      24.841  -0.236  53.194  1.00  0.00     0.016 A 
HETATM   18  C18 UNL     1      23.673  -0.688  53.776  1.00  0.00     0.001 A 
HETATM   19  C19 UNL     1      22.435  -0.090  53.666  1.00  0.00     0.001 A 
HETATM   20  C20 UNL     1      22.361   1.058  52.907  1.00  0.00     0.016 A 
HETATM   21  C21 UNL     1      23.481   1.549  52.309  1.00  0.00     0.030 A 
HETATM   22  C22 UNL     1      23.418   2.771  51.496  1.00  0.00     0.202 A 
HETATM   23  O6  UNL     1      22.375   3.420  51.305  1.00  0.00    -0.286 OA
ENDROOT
BRANCH   1  24
HETATM   24  C2  UNL     1      22.792   6.146  49.360  1.00  0.00     0.302 C 
HETATM   25  O2  UNL     1      21.578   6.023  49.237  1.00  0.00    -0.259 OA
BRANCH  24  26
HETATM   26  O1  UNL     1      22.489   6.834  50.511  1.00  0.00    -0.322 OA
HETATM   27  C1  UNL     1      21.415   7.727  50.589  1.00  0.00     0.213 C 
ENDBRANCH  24  26
ENDBRANCH   1  24
BRANCH   2  28
HETATM   28  O3  UNL     1      24.303   7.943  47.790  1.00  0.00    -0.353 OA
HETATM   29  C5  UNL     1      24.149   9.216  48.334  1.00  0.00     0.210 C 
ENDBRANCH   2  28
TORSDOF 3
ENDMDL
MODEL 5
REMARK VINA RESULT:      -8.1      2.637      8.421
REMARK  3 active torsions:
REMARK  status: ('A' for Active; 'I' for Inactive)
REMARK    1  A    between atoms: O1_2  and  C2_3 
REMARK    2  A    between atoms: C2_3  and  C3_5 
REMARK    3  A    between atoms: C4_6  and  O3_7 
ROOT
HETATM    1  C3  UNL     1      24.034   1.992  51.750  1.00  0.00     0.111 A 
HETATM    2  C4  UNL     1      22.879   1.588  52.256  1.00  0.00     0.102 A 
HETATM    3  C6  UNL     1      21.713   2.384  51.929  1.00  0.00     0.012 A 
HETATM    4  C7  UNL     1      20.565   1.866  52.497  1.00  0.00     0.015 A 
HETATM    5  C8  UNL     1      19.312   2.409  52.353  1.00  0.00     0.001 A 
HETATM    6  C9  UNL     1      19.158   3.543  51.597  1.00  0.00     0.001 A 
HETATM    7  C10 UNL     1      20.268   4.097  51.010  1.00  0.00     0.016 A 
HETATM    8  C11 UNL     1      21.510   3.519  51.181  1.00  0.00     0.018 A 
HETATM    9  C12 UNL     1      22.543   4.292  50.445  1.00  0.00     0.124 A 
HETATM   10  S1  UNL     1      24.090   3.467  50.717  1.00  0.00    -0.077 SA
HETATM   11  C13 UNL     1      25.123   4.564  49.757  1.00  0.00     0.091 A 
HETATM   12  C14 UNL     1      24.211   5.450  49.319  1.00  0.00     0.148 A 
HETATM   13  O4  UNL     1      22.897   5.287  49.687  1.00  0.00    -0.297 OA
HETATM   14  C15 UNL     1      24.820   6.500  48.474  1.00  0.00     0.218 A 
HETATM   15  O5  UNL     1      24.136   7.426  47.965  1.00  0.00    -0.284 OA
HETATM   16  C16 UNL     1      26.269   6.466  48.217  1.00  0.00     0.031 A 
HETATM   17  C17 UNL     1      26.803   7.480  47.410  1.00  0.00     0.016 A 
HETATM   18  C18 UNL     1      28.164   7.426  47.184  1.00  0.00     0.001 A 
HETATM   19  C19 UNL     1      29.025   6.469  47.681  1.00  0.00     0.001 A 
HETATM   20  C20 UNL     1      28.474   5.484  48.471  1.00  0.00     0.016 A 
HETATM   21  C21 UNL     1      27.138   5.488  48.727  1.00  0.00     0.030 A 
HETATM   22  C22 UNL     1      26.536   4.443  49.567  1.00  0.00     0.202 A 
HETATM   23  O6  UNL     1      27.183   3.515  50.085  1.00  0.00    -0.286 OA
ENDROOT
BRANCH   1  24
HETATM   24  C2  UNL     1      25.308   1.392  51.918  1.00  0.00     0.302 C 
HETATM   25  O2  UNL     1      26.255   0.624  51.781  1.00  0.00    -0.259 OA
BRANCH  24  26
HETATM   26  O1  UNL     1      26.103   2.022  52.845  1.00  0.00    -0.322 OA
HETATM   27  C1  UNL     1      27.386   1.567  53.165  1.00  0.00     0.213 C 
ENDBRANCH  24  26
ENDBRANCH   1  24
BRANCH   2  28
HETATM   28  O3  UNL     1      22.892   0.453  53.041  1.00  0.00    -0.353 OA
HETATM   29  C5  UNL     1      22.559  -0.842  52.651  1.00  0.00     0.210 C 
ENDBRANCH   2  28
TORSDOF 3
ENDMDL
MODEL 6
REMARK VINA RESULT:      -7.9      6.619     11.756
REMARK  3 active torsions:
REMARK  status: ('A' for Active; 'I' for Inactive)
REMARK    1  A    between atoms: O1_2  and  C2_3 
REMARK    2  A    between atoms: C2_3  and  C3_5 
REMARK    3  A    between atoms: C4_6  and  O3_7 
ROOT
HETATM    1  C3  UNL     1      26.674   8.067  47.838  1.00  0.00     0.111 A 
HETATM    2  C4  UNL     1      25.590   7.362  48.121  1.00  0.00     0.102 A 
HETATM    3  C6  UNL     1      25.799   6.006  48.589  1.00  0.00     0.012 A 
HETATM    4  C7  UNL     1      24.605   5.370  48.865  1.00  0.00     0.015 A 
HETATM    5  C8  UNL     1      24.498   4.081  49.328  1.00  0.00     0.001 A 
HETATM    6  C9  UNL     1      25.639   3.351  49.543  1.00  0.00     0.001 A 
HETATM    7  C10 UNL     1      26.853   3.939  49.284  1.00  0.00     0.016 A 
HETATM    8  C11 UNL     1      26.915   5.237  48.820  1.00  0.00     0.018 A 
HETATM    9  C12 UNL     1      28.330   5.647  48.626  1.00  0.00     0.124 A 
HETATM   10  S1  UNL     1      28.302   7.322  48.042  1.00  0.00    -0.077 SA
HETATM   11  C13 UNL     1      30.067   7.558  47.897  1.00  0.00     0.091 A 
HETATM   12  C14 UNL     1      30.516   6.357  48.301  1.00  0.00     0.148 A 
HETATM   13  O4  UNL     1      29.605   5.396  48.669  1.00  0.00    -0.297 OA
HETATM   14  C15 UNL     1      31.993   6.280  48.276  1.00  0.00     0.218 A 
HETATM   15  O5  UNL     1      32.613   5.239  48.618  1.00  0.00    -0.284 OA
HETATM   16  C16 UNL     1      32.767   7.453  47.839  1.00  0.00     0.031 A 
HETATM   17  C17 UNL     1      34.164   7.337  47.830  1.00  0.00     0.016 A 
HETATM   18  C18 UNL     1      34.867   8.450  47.416  1.00  0.00     0.001 A 
HETATM   19  C19 UNL     1      34.312   9.649  47.016  1.00  0.00     0.001 A 
HETATM   20  C20 UNL     1      32.937   9.737  47.033  1.00  0.00     0.016 A 
HETATM   21  C21 UNL     1      32.194   8.670  47.433  1.00  0.00     0.030 A 
HETATM   22  C22 UNL     1      30.727   8.750  47.457  1.00  0.00     0.202 A 
HETATM   23  O6  UNL     1      30.084   9.761  47.126  1.00  0.00    -0.286 OA
ENDROOT
BRANCH   1  24
HETATM   24  C2  UNL     1      26.738   9.404  47.370  1.00  0.00     0.302 C 
HETATM   25  O2  UNL     1      26.794  10.363  46.609  1.00  0.00    -0.259 OA
BRANCH  24  26
HETATM   26  O1  UNL     1      26.759  10.344  48.372  1.00  0.00    -0.322 OA
HETATM   27  C1  UNL     1      26.188  11.612  48.221  1.00  0.00     0.213 C 
ENDBRANCH  24  26
ENDBRANCH   1  24
BRANCH   2  28
HETATM   28  O3  UNL     1      24.368   7.980  47.947  1.00  0.00    -0.353 OA
HETATM   29  C5  UNL     1      23.665   8.730  48.887  1.00  0.00     0.210 C 
ENDBRANCH   2  28
TORSDOF 3
ENDMDL
MODEL 7
REMARK VINA RESULT:      -7.9      6.796     10.712
REMARK  3 active torsions:
REMARK  status: ('A' for Active; 'I' for Inactive)
REMARK    1  A    between atoms: O1_2  and  C2_3 
REMARK    2  A    between atoms: C2_3  and  C3_5 
REMARK    3  A    between atoms: C4_6  and  O3_7 
ROOT
HETATM    1  C3  UNL     1      31.737   6.782  47.751  1.00  0.00     0.111 A 
HETATM    2  C4  UNL     1      32.683   7.658  47.455  1.00  0.00     0.102 A 
HETATM    3  C6  UNL     1      32.267   9.037  47.295  1.00  0.00     0.012 A 
HETATM    4  C7  UNL     1      33.334   9.863  47.001  1.00  0.00     0.015 A 
HETATM    5  C8  UNL     1      33.237  11.218  46.802  1.00  0.00     0.001 A 
HETATM    6  C9  UNL     1      32.010  11.822  46.897  1.00  0.00     0.001 A 
HETATM    7  C10 UNL     1      30.916  11.045  47.189  1.00  0.00     0.016 A 
HETATM    8  C11 UNL     1      31.058   9.686  47.382  1.00  0.00     0.018 A 
HETATM    9  C12 UNL     1      29.741   9.070  47.693  1.00  0.00     0.124 A 
HETATM   10  S1  UNL     1      30.032   7.336  47.932  1.00  0.00    -0.077 SA
HETATM   11  C13 UNL     1      28.347   6.854  48.279  1.00  0.00     0.091 A 
HETATM   12  C14 UNL     1      27.720   8.039  48.184  1.00  0.00     0.148 A 
HETATM   13  O4  UNL     1      28.459   9.158  47.882  1.00  0.00    -0.297 OA
HETATM   14  C15 UNL     1      26.267   7.921  48.435  1.00  0.00     0.218 A 
HETATM   15  O5  UNL     1      25.499   8.917  48.393  1.00  0.00    -0.284 OA
HETATM   16  C16 UNL     1      25.697   6.600  48.743  1.00  0.00     0.031 A 
HETATM   17  C17 UNL     1      24.316   6.533  48.974  1.00  0.00     0.016 A 
HETATM   18  C18 UNL     1      23.805   5.283  49.261  1.00  0.00     0.001 A 
HETATM   19  C19 UNL     1      24.533   4.114  49.337  1.00  0.00     0.001 A 
HETATM   20  C20 UNL     1      25.889   4.207  49.106  1.00  0.00     0.016 A 
HETATM   21  C21 UNL     1      26.446   5.414  48.818  1.00  0.00     0.030 A 
HETATM   22  C22 UNL     1      27.890   5.529  48.570  1.00  0.00     0.202 A 
HETATM   23  O6  UNL     1      28.676   4.565  48.604  1.00  0.00    -0.286 OA
ENDROOT
BRANCH   1  24
HETATM   24  C2  UNL     1      31.884   5.386  47.959  1.00  0.00     0.302 C 
HETATM   25  O2  UNL     1      32.052   4.310  48.521  1.00  0.00    -0.259 OA
BRANCH  24  26
HETATM   26  O1  UNL     1      31.797   4.640  46.808  1.00  0.00    -0.322 OA
HETATM   27  C1  UNL     1      32.137   3.284  46.767  1.00  0.00     0.213 C 
ENDBRANCH  24  26
ENDBRANCH   1  24
BRANCH   2  28
HETATM   28  O3  UNL     1      33.973   7.180  47.327  1.00  0.00    -0.353 OA
HETATM   29  C5  UNL     1      34.915   7.027  48.341  1.00  0.00     0.210 C 
ENDBRANCH   2  28
TORSDOF 3
ENDMDL
MODEL 8
REMARK VINA RESULT:      -7.8      1.727      2.565
REMARK  3 active torsions:
REMARK  status: ('A' for Active; 'I' for Inactive)
REMARK    1  A    between atoms: O1_2  and  C2_3 
REMARK    2  A    between atoms: C2_3  and  C3_5 
REMARK    3  A    between atoms: C4_6  and  O3_7 
ROOT
HETATM    1  C3  UNL     1      22.505   2.575  51.717  1.00  0.00     0.111 A 
HETATM    2  C4  UNL     1      23.769   2.496  52.102  1.00  0.00     0.102 A 
HETATM    3  C6  UNL     1      24.128   1.361  52.927  1.00  0.00     0.012 A 
HETATM    4  C7  UNL     1      25.469   1.373  53.258  1.00  0.00     0.015 A 
HETATM    5  C8  UNL     1      26.090   0.418  54.026  1.00  0.00     0.001 A 
HETATM    6  C9  UNL     1      25.354  -0.632  54.511  1.00  0.00     0.001 A 
HETATM    7  C10 UNL     1      24.016  -0.691  54.210  1.00  0.00     0.016 A 
HETATM    8  C11 UNL     1      23.431   0.289  53.434  1.00  0.00     0.018 A 
HETATM    9  C12 UNL     1      21.986   0.000  53.242  1.00  0.00     0.124 A 
HETATM   10  S1  UNL     1      21.335   1.304  52.230  1.00  0.00    -0.077 SA
HETATM   11  C13 UNL     1      19.644   0.731  52.156  1.00  0.00     0.091 A 
HETATM   12  C14 UNL     1      19.724  -0.388  52.897  1.00  0.00     0.148 A 
HETATM   13  O4  UNL     1      20.936  -0.738  53.442  1.00  0.00    -0.297 OA
HETATM   14  C15 UNL     1      18.420  -1.079  53.001  1.00  0.00     0.218 A 
HETATM   15  O5  UNL     1      18.281  -2.146  53.653  1.00  0.00    -0.284 OA
HETATM   16  C16 UNL     1      17.247  -0.505  52.323  1.00  0.00     0.031 A 
HETATM   17  C17 UNL     1      16.031  -1.193  52.448  1.00  0.00     0.016 A 
HETATM   18  C18 UNL     1      14.946  -0.635  51.803  1.00  0.00     0.001 A 
HETATM   19  C19 UNL     1      14.962   0.527  51.058  1.00  0.00     0.001 A 
HETATM   20  C20 UNL     1      16.168   1.184  50.952  1.00  0.00     0.016 A 
HETATM   21  C21 UNL     1      17.272   0.679  51.567  1.00  0.00     0.030 A 
HETATM   22  C22 UNL     1      18.566   1.367  51.462  1.00  0.00     0.202 A 
HETATM   23  O6  UNL     1      18.737   2.422  50.827  1.00  0.00    -0.286 OA
ENDROOT
BRANCH   1  24
HETATM   24  C2  UNL     1      21.906   3.577  50.912  1.00  0.00     0.302 C 
HETATM   25  O2  UNL     1      21.375   4.630  50.577  1.00  0.00    -0.259 OA
BRANCH  24  26
HETATM   26  O1  UNL     1      21.796   3.234  49.586  1.00  0.00    -0.322 OA
HETATM   27  C1  UNL     1      22.250   4.065  48.556  1.00  0.00     0.213 C 
ENDBRANCH  24  26
ENDBRANCH   1  24
BRANCH   2  28
HETATM   28  O3  UNL     1      24.623   3.496  51.682  1.00  0.00    -0.353 OA
HETATM   29  C5  UNL     1      25.402   3.505  50.527  1.00  0.00     0.210 C 
ENDBRANCH   2  28
TORSDOF 3
ENDMDL
MODEL 9
REMARK VINA RESULT:      -7.7      6.818      9.995
REMARK  3 active torsions:
REMARK  status: ('A' for Active; 'I' for Inactive)
REMARK    1  A    between atoms: O1_2  and  C2_3 
REMARK    2  A    between atoms: C2_3  and  C3_5 
REMARK    3  A    between atoms: C4_6  and  O3_7 
ROOT
HETATM    1  C3  UNL     1      31.193   8.183  47.320  1.00  0.00     0.111 A 
HETATM    2  C4  UNL     1      32.366   7.746  46.892  1.00  0.00     0.102 A 
HETATM    3  C6  UNL     1      32.553   6.309  46.863  1.00  0.00     0.012 A 
HETATM    4  C7  UNL     1      33.805   5.966  46.390  1.00  0.00     0.015 A 
HETATM    5  C8  UNL     1      34.257   4.676  46.248  1.00  0.00     0.001 A 
HETATM    6  C9  UNL     1      33.431   3.637  46.589  1.00  0.00     0.001 A 
HETATM    7  C10 UNL     1      32.175   3.925  47.065  1.00  0.00     0.016 A 
HETATM    8  C11 UNL     1      31.760   5.235  47.191  1.00  0.00     0.018 A 
HETATM    9  C12 UNL     1      30.370   5.287  47.714  1.00  0.00     0.124 A 
HETATM   10  S1  UNL     1      29.931   7.002  47.830  1.00  0.00    -0.077 SA
HETATM   11  C13 UNL     1      28.273   6.786  48.460  1.00  0.00     0.091 A 
HETATM   12  C14 UNL     1      28.201   5.445  48.526  1.00  0.00     0.148 A 
HETATM   13  O4  UNL     1      29.290   4.702  48.138  1.00  0.00    -0.297 OA
HETATM   14  C15 UNL     1      26.890   4.984  49.033  1.00  0.00     0.218 A 
HETATM   15  O5  UNL     1      26.620   3.762  49.170  1.00  0.00    -0.284 OA
HETATM   16  C16 UNL     1      25.867   5.980  49.390  1.00  0.00     0.031 A 
HETATM   17  C17 UNL     1      24.639   5.499  49.866  1.00  0.00     0.016 A 
HETATM   18  C18 UNL     1      23.696   6.453  50.193  1.00  0.00     0.001 A 
HETATM   19  C19 UNL     1      23.864   7.819  50.091  1.00  0.00     0.001 A 
HETATM   20  C20 UNL     1      25.080   8.265  49.621  1.00  0.00     0.016 A 
HETATM   21  C21 UNL     1      26.046   7.369  49.283  1.00  0.00     0.030 A 
HETATM   22  C22 UNL     1      27.348   7.830  48.778  1.00  0.00     0.202 A 
HETATM   23  O6  UNL     1      27.646   9.028  48.631  1.00  0.00    -0.286 OA
ENDROOT
BRANCH   1  24
HETATM   24  C2  UNL     1      30.763   9.529  47.441  1.00  0.00     0.302 C 
HETATM   25  O2  UNL     1      30.347  10.644  47.145  1.00  0.00    -0.259 OA
BRANCH  24  26
HETATM   26  O1  UNL     1      30.805  10.014  48.727  1.00  0.00    -0.322 OA
HETATM   27  C1  UNL     1      30.766  11.382  49.014  1.00  0.00     0.213 C 
ENDBRANCH  24  26
ENDBRANCH   1  24
BRANCH   2  28
HETATM   28  O3  UNL     1      33.298   8.693  46.515  1.00  0.00    -0.353 OA
HETATM   29  C5  UNL     1      34.258   9.294  47.325  1.00  0.00     0.210 C 
ENDBRANCH   2  28
TORSDOF 3
ENDMDL
