MODEL 1
REMARK VINA RESULT:      -8.9      0.000      0.000
REMARK  0 active torsions:
REMARK  status: ('A' for Active; 'I' for Inactive)
ROOT
HETATM    1  C1  UNL     1      19.144  -0.139  52.403  1.00  0.00     0.050 C 
HETATM    2  C2  UNL     1      20.486  -0.392  53.055  1.00  0.00    -0.035 C 
HETATM    3  C3  UNL     1      20.776  -1.345  54.061  1.00  0.00     0.011 C 
HETATM    4  C4  UNL     1      22.027  -1.510  54.616  1.00  0.00     0.041 C 
HETATM    5  C5  UNL     1      23.096  -0.791  54.262  1.00  0.00     0.177 C 
HETATM    6  C6  UNL     1      22.298  -0.159  53.405  1.00  0.00     0.070 C 
HETATM    7  C7  UNL     1      21.464   0.504  52.507  1.00  0.00     0.037 C 
HETATM    8  N1  UNL     1      21.525   1.517  51.585  1.00  0.00    -0.367 N 
HETATM    9  C8  UNL     1      22.638   1.770  50.674  1.00  0.00     0.201 C 
HETATM   10  C9  UNL     1      22.298   3.060  49.971  1.00  0.00     0.057 C 
HETATM   11  N2  UNL     1      23.924   1.765  51.221  1.00  0.00    -0.276 NA
HETATM   12  C10 UNL     1      25.013   2.264  50.747  1.00  0.00     0.124 C 
HETATM   13  C11 UNL     1      25.704   1.758  51.969  1.00  0.00    -0.019 A 
HETATM   14  C12 UNL     1      26.183   0.453  51.863  1.00  0.00     0.014 A 
HETATM   15  C13 UNL     1      26.687  -0.412  52.801  1.00  0.00     0.017 A 
HETATM   16  C14 UNL     1      26.471   0.594  53.706  1.00  0.00     0.028 A 
HETATM   17  C15 UNL     1      26.140   1.773  54.297  1.00  0.00     0.017 A 
HETATM   18  C16 UNL     1      25.685   2.446  53.193  1.00  0.00     0.014 A 
HETATM   19  C17 UNL     1      25.907  -0.458  54.746  1.00  0.00     0.323 A 
HETATM   20  O1  UNL     1      25.341  -1.283  55.527  1.00  0.00    -0.119 OA
HETATM   21  N3  UNL     1      24.477  -0.626  54.499  1.00  0.00     0.138 N 
HETATM   22  H7  UNL     1      20.655   2.101  51.622  1.00  0.00     0.161 HD
HETATM   23  H17 UNL     1      24.374   0.135  53.762  1.00  0.00     0.335 HD
ENDROOT
TORSDOF 0
ENDMDL
MODEL 2
REMARK VINA RESULT:      -8.5      1.840      4.018
REMARK  0 active torsions:
REMARK  status: ('A' for Active; 'I' for Inactive)
ROOT
HETATM    1  C1  UNL     1      19.702   1.016  51.098  1.00  0.00     0.050 C 
HETATM    2  C2  UNL     1      21.162   1.406  51.016  1.00  0.00    -0.035 C 
HETATM    3  C3  UNL     1      21.730   2.407  50.192  1.00  0.00     0.011 C 
HETATM    4  C4  UNL     1      23.078   2.698  50.166  1.00  0.00     0.041 C 
HETATM    5  C5  UNL     1      23.987   2.070  50.917  1.00  0.00     0.177 C 
HETATM    6  C6  UNL     1      22.981   1.347  51.403  1.00  0.00     0.070 C 
HETATM    7  C7  UNL     1      21.928   0.589  51.913  1.00  0.00     0.037 C 
HETATM    8  N1  UNL     1      21.721  -0.438  52.797  1.00  0.00    -0.367 N 
HETATM    9  C8  UNL     1      22.411  -0.613  54.072  1.00  0.00     0.201 C 
HETATM   10  C9  UNL     1      21.946  -1.946  54.603  1.00  0.00     0.057 C 
HETATM   11  N2  UNL     1      23.802  -0.478  54.069  1.00  0.00    -0.276 NA
HETATM   12  C10 UNL     1      24.662  -0.888  54.936  1.00  0.00     0.124 C 
HETATM   13  C11 UNL     1      25.723  -0.292  54.073  1.00  0.00    -0.019 A 
HETATM   14  C12 UNL     1      26.000   1.048  54.342  1.00  0.00     0.014 A 
HETATM   15  C13 UNL     1      26.746   1.979  53.664  1.00  0.00     0.017 A 
HETATM   16  C14 UNL     1      26.993   0.982  52.758  1.00  0.00     0.028 A 
HETATM   17  C15 UNL     1      27.029  -0.207  52.099  1.00  0.00     0.017 A 
HETATM   18  C16 UNL     1      26.245  -0.947  52.947  1.00  0.00     0.014 A 
HETATM   19  C17 UNL     1      26.782   2.004  51.569  1.00  0.00     0.323 A 
HETATM   20  O1  UNL     1      26.490   2.794  50.619  1.00  0.00    -0.119 OA
HETATM   21  N3  UNL     1      25.360   2.036  51.238  1.00  0.00     0.138 N 
HETATM   22  H7  UNL     1      20.992  -1.097  52.431  1.00  0.00     0.161 HD
HETATM   23  H17 UNL     1      25.050   1.250  51.886  1.00  0.00     0.335 HD
ENDROOT
TORSDOF 0
ENDMDL
MODEL 3
REMARK VINA RESULT:      -8.3      1.827      4.825
REMARK  0 active torsions:
REMARK  status: ('A' for Active; 'I' for Inactive)
ROOT
HETATM    1  C1  UNL     1      28.174   0.378  53.373  1.00  0.00     0.050 C 
HETATM    2  C2  UNL     1      26.669   0.218  53.384  1.00  0.00    -0.035 C 
HETATM    3  C3  UNL     1      25.904  -0.566  54.280  1.00  0.00     0.011 C 
HETATM    4  C4  UNL     1      24.530  -0.670  54.220  1.00  0.00     0.041 C 
HETATM    5  C5  UNL     1      23.778  -0.040  53.314  1.00  0.00     0.177 C 
HETATM    6  C6  UNL     1      24.911   0.463  52.828  1.00  0.00     0.070 C 
HETATM    7  C7  UNL     1      26.096   0.989  52.318  1.00  0.00     0.037 C 
HETATM    8  N1  UNL     1      26.517   1.805  51.299  1.00  0.00    -0.367 N 
HETATM    9  C8  UNL     1      25.831   3.007  50.835  1.00  0.00     0.201 C 
HETATM   10  C9  UNL     1      26.598   3.467  49.621  1.00  0.00     0.057 C 
HETATM   11  N2  UNL     1      24.455   2.911  50.612  1.00  0.00    -0.276 NA
HETATM   12  C10 UNL     1      23.687   3.677  49.917  1.00  0.00     0.124 C 
HETATM   13  C11 UNL     1      22.554   2.787  50.302  1.00  0.00    -0.019 A 
HETATM   14  C12 UNL     1      21.924   3.137  51.496  1.00  0.00     0.014 A 
HETATM   15  C13 UNL     1      20.998   2.479  52.265  1.00  0.00     0.017 A 
HETATM   16  C14 UNL     1      21.066   1.483  51.328  1.00  0.00     0.028 A 
HETATM   17  C15 UNL     1      21.375   0.733  50.237  1.00  0.00     0.017 A 
HETATM   18  C16 UNL     1      22.279   1.577  49.644  1.00  0.00     0.014 A 
HETATM   19  C17 UNL     1      21.066   0.395  52.477  1.00  0.00     0.323 A 
HETATM   20  O1  UNL     1      21.191  -0.466  53.401  1.00  0.00    -0.119 OA
HETATM   21  N3  UNL     1      22.446   0.175  52.902  1.00  0.00     0.138 N 
HETATM   22  H7  UNL     1      27.410   1.444  50.885  1.00  0.00     0.161 HD
HETATM   23  H17 UNL     1      22.916   0.781  52.163  1.00  0.00     0.335 HD
ENDROOT
TORSDOF 0
ENDMDL
MODEL 4
REMARK VINA RESULT:      -7.9      2.134      5.746
REMARK  0 active torsions:
REMARK  status: ('A' for Active; 'I' for Inactive)
ROOT
HETATM    1  C1  UNL     1      27.305  -0.142  54.186  1.00  0.00     0.050 C 
HETATM    2  C2  UNL     1      26.594   0.672  53.128  1.00  0.00    -0.035 C 
HETATM    3  C3  UNL     1      27.190   1.503  52.149  1.00  0.00     0.011 C 
HETATM    4  C4  UNL     1      26.471   2.225  51.221  1.00  0.00     0.041 C 
HETATM    5  C5  UNL     1      25.137   2.214  51.145  1.00  0.00     0.177 C 
HETATM    6  C6  UNL     1      25.157   1.373  52.177  1.00  0.00     0.070 C 
HETATM    7  C7  UNL     1      25.175   0.493  53.257  1.00  0.00     0.037 C 
HETATM    8  N1  UNL     1      24.295  -0.183  54.062  1.00  0.00    -0.367 N 
HETATM    9  C8  UNL     1      23.055  -0.815  53.620  1.00  0.00     0.201 C 
HETATM   10  C9  UNL     1      22.377  -1.297  54.879  1.00  0.00     0.057 C 
HETATM   11  N2  UNL     1      22.213  -0.064  52.796  1.00  0.00    -0.276 NA
HETATM   12  C10 UNL     1      20.961  -0.231  52.541  1.00  0.00     0.124 C 
HETATM   13  C11 UNL     1      21.045   0.968  51.657  1.00  0.00    -0.019 A 
HETATM   14  C12 UNL     1      21.413   0.691  50.341  1.00  0.00     0.014 A 
HETATM   15  C13 UNL     1      21.777   1.512  49.304  1.00  0.00     0.017 A 
HETATM   16  C14 UNL     1      21.590   2.547  50.182  1.00  0.00     0.028 A 
HETATM   17  C15 UNL     1      21.308   3.292  51.283  1.00  0.00     0.017 A 
HETATM   18  C16 UNL     1      20.976   2.282  52.149  1.00  0.00     0.014 A 
HETATM   19  C17 UNL     1      22.910   3.241  49.652  1.00  0.00     0.323 A 
HETATM   20  O1  UNL     1      24.031   3.730  49.312  1.00  0.00    -0.119 OA
HETATM   21  N3  UNL     1      24.042   2.718  50.412  1.00  0.00     0.138 N 
HETATM   22  H7  UNL     1      24.631  -0.184  55.055  1.00  0.00     0.161 HD
HETATM   23  H17 UNL     1      23.483   2.141  51.111  1.00  0.00     0.335 HD
ENDROOT
TORSDOF 0
ENDMDL
MODEL 5
REMARK VINA RESULT:      -7.9      3.495      6.388
REMARK  0 active torsions:
REMARK  status: ('A' for Active; 'I' for Inactive)
ROOT
HETATM    1  C1  UNL     1      25.793   7.731  47.740  1.00  0.00     0.050 C 
HETATM    2  C2  UNL     1      26.021   6.426  48.471  1.00  0.00    -0.035 C 
HETATM    3  C3  UNL     1      27.197   5.638  48.461  1.00  0.00     0.011 C 
HETATM    4  C4  UNL     1      27.324   4.450  49.148  1.00  0.00     0.041 C 
HETATM    5  C5  UNL     1      26.355   3.918  49.897  1.00  0.00     0.177 C 
HETATM    6  C6  UNL     1      25.613   4.969  49.555  1.00  0.00     0.070 C 
HETATM    7  C7  UNL     1      24.835   6.070  49.198  1.00  0.00     0.037 C 
HETATM    8  N1  UNL     1      23.572   6.559  49.405  1.00  0.00    -0.367 N 
HETATM    9  C8  UNL     1      22.830   6.494  50.661  1.00  0.00     0.201 C 
HETATM   10  C9  UNL     1      21.456   7.031  50.347  1.00  0.00     0.057 C 
HETATM   11  N2  UNL     1      22.802   5.264  51.323  1.00  0.00    -0.276 NA
HETATM   12  C10 UNL     1      21.990   4.846  52.231  1.00  0.00     0.124 C 
HETATM   13  C11 UNL     1      22.759   3.568  52.243  1.00  0.00    -0.019 A 
HETATM   14  C12 UNL     1      23.843   3.554  53.120  1.00  0.00     0.014 A 
HETATM   15  C13 UNL     1      24.878   2.668  53.277  1.00  0.00     0.017 A 
HETATM   16  C14 UNL     1      24.301   1.960  52.256  1.00  0.00     0.028 A 
HETATM   17  C15 UNL     1      23.475   1.534  51.263  1.00  0.00     0.017 A 
HETATM   18  C16 UNL     1      22.551   2.546  51.303  1.00  0.00     0.014 A 
HETATM   19  C17 UNL     1      25.728   1.708  51.619  1.00  0.00     0.323 A 
HETATM   20  O1  UNL     1      26.857   1.615  51.046  1.00  0.00    -0.119 OA
HETATM   21  N3  UNL     1      26.045   2.833  50.743  1.00  0.00     0.138 N 
HETATM   22  H7  UNL     1      23.197   6.991  48.526  1.00  0.00     0.161 HD
HETATM   23  H17 UNL     1      25.106   3.330  50.811  1.00  0.00     0.335 HD
ENDROOT
TORSDOF 0
ENDMDL
MODEL 6
REMARK VINA RESULT:      -7.9      2.271      5.163
REMARK  0 active torsions:
REMARK  status: ('A' for Active; 'I' for Inactive)
ROOT
HETATM    1  C1  UNL     1      27.675   0.891  53.270  1.00  0.00     0.050 C 
HETATM    2  C2  UNL     1      26.192   0.732  53.011  1.00  0.00    -0.035 C 
HETATM    3  C3  UNL     1      25.278  -0.053  53.754  1.00  0.00     0.011 C 
HETATM    4  C4  UNL     1      23.937  -0.154  53.448  1.00  0.00     0.041 C 
HETATM    5  C5  UNL     1      23.361   0.478  52.423  1.00  0.00     0.177 C 
HETATM    6  C6  UNL     1      24.563   0.980  52.149  1.00  0.00     0.070 C 
HETATM    7  C7  UNL     1      25.820   1.506  51.861  1.00  0.00     0.037 C 
HETATM    8  N1  UNL     1      26.418   2.323  50.936  1.00  0.00    -0.367 N 
HETATM    9  C8  UNL     1      25.827   3.527  50.359  1.00  0.00     0.201 C 
HETATM   10  C9  UNL     1      26.801   3.987  49.303  1.00  0.00     0.057 C 
HETATM   11  N2  UNL     1      24.514   3.433  49.892  1.00  0.00    -0.276 NA
HETATM   12  C10 UNL     1      23.884   4.201  49.071  1.00  0.00     0.124 C 
HETATM   13  C11 UNL     1      22.699   3.311  49.245  1.00  0.00    -0.019 A 
HETATM   14  C12 UNL     1      21.866   3.660  50.308  1.00  0.00     0.014 A 
HETATM   15  C13 UNL     1      20.816   3.002  50.897  1.00  0.00     0.017 A 
HETATM   16  C14 UNL     1      21.050   2.008  49.985  1.00  0.00     0.028 A 
HETATM   17  C15 UNL     1      21.550   1.260  48.965  1.00  0.00     0.017 A 
HETATM   18  C16 UNL     1      22.546   2.103  48.547  1.00  0.00     0.014 A 
HETATM   19  C17 UNL     1      20.843   0.918  51.114  1.00  0.00     0.323 A 
HETATM   20  O1  UNL     1      20.800   0.055  52.044  1.00  0.00    -0.119 OA
HETATM   21  N3  UNL     1      22.124   0.695  51.778  1.00  0.00     0.138 N 
HETATM   22  H7  UNL     1      27.371   1.962  50.688  1.00  0.00     0.161 HD
HETATM   23  H17 UNL     1      22.719   1.302  51.137  1.00  0.00     0.335 HD
ENDROOT
TORSDOF 0
ENDMDL
MODEL 7
REMARK VINA RESULT:      -7.8      2.207      4.845
REMARK  0 active torsions:
REMARK  status: ('A' for Active; 'I' for Inactive)
ROOT
HETATM    1  C1  UNL     1      24.833  -1.115  55.255  1.00  0.00     0.050 C 
HETATM    2  C2  UNL     1      23.537  -0.796  54.543  1.00  0.00    -0.035 C 
HETATM    3  C3  UNL     1      22.237  -1.214  54.914  1.00  0.00     0.011 C 
HETATM    4  C4  UNL     1      21.100  -0.890  54.204  1.00  0.00     0.041 C 
HETATM    5  C5  UNL     1      21.106  -0.146  53.095  1.00  0.00     0.177 C 
HETATM    6  C6  UNL     1      22.427  -0.070  53.238  1.00  0.00     0.070 C 
HETATM    7  C7  UNL     1      23.810   0.010  53.387  1.00  0.00     0.037 C 
HETATM    8  N1  UNL     1      24.895   0.553  52.747  1.00  0.00    -0.367 N 
HETATM    9  C8  UNL     1      24.930   1.860  52.096  1.00  0.00     0.201 C 
HETATM   10  C9  UNL     1      26.278   1.939  51.423  1.00  0.00     0.057 C 
HETATM   11  N2  UNL     1      23.870   2.176  51.242  1.00  0.00    -0.276 NA
HETATM   12  C10 UNL     1      23.807   3.074  50.320  1.00  0.00     0.124 C 
HETATM   13  C11 UNL     1      22.409   2.622  50.062  1.00  0.00    -0.019 A 
HETATM   14  C12 UNL     1      21.443   3.263  50.836  1.00  0.00     0.014 A 
HETATM   15  C13 UNL     1      20.110   3.002  51.029  1.00  0.00     0.017 A 
HETATM   16  C14 UNL     1      20.287   1.951  50.170  1.00  0.00     0.028 A 
HETATM   17  C15 UNL     1      20.814   1.042  49.307  1.00  0.00     0.017 A 
HETATM   18  C16 UNL     1      22.105   1.501  49.272  1.00  0.00     0.014 A 
HETATM   19  C17 UNL     1      19.402   1.031  51.106  1.00  0.00     0.323 A 
HETATM   20  O1  UNL     1      18.798   0.266  51.919  1.00  0.00    -0.119 OA
HETATM   21  N3  UNL     1      20.270   0.433  52.117  1.00  0.00     0.138 N 
HETATM   22  H7  UNL     1      25.710  -0.106  52.781  1.00  0.00     0.161 HD
HETATM   23  H17 UNL     1      21.196   0.790  51.732  1.00  0.00     0.335 HD
ENDROOT
TORSDOF 0
ENDMDL
MODEL 8
REMARK VINA RESULT:      -7.3      2.242      5.120
REMARK  0 active torsions:
REMARK  status: ('A' for Active; 'I' for Inactive)
ROOT
HETATM    1  C1  UNL     1      25.964  -0.006  53.700  1.00  0.00     0.050 C 
HETATM    2  C2  UNL     1      24.462  -0.036  53.520  1.00  0.00    -0.035 C 
HETATM    3  C3  UNL     1      23.529  -0.781  54.280  1.00  0.00     0.011 C 
HETATM    4  C4  UNL     1      22.170  -0.764  54.048  1.00  0.00     0.041 C 
HETATM    5  C5  UNL     1      21.592  -0.041  53.085  1.00  0.00     0.177 C 
HETATM    6  C6  UNL     1      22.814   0.378  52.764  1.00  0.00     0.070 C 
HETATM    7  C7  UNL     1      24.092   0.817  52.427  1.00  0.00     0.037 C 
HETATM    8  N1  UNL     1      24.703   1.627  51.505  1.00  0.00    -0.367 N 
HETATM    9  C8  UNL     1      24.181   2.900  51.014  1.00  0.00     0.201 C 
HETATM   10  C9  UNL     1      25.130   3.332  49.924  1.00  0.00     0.057 C 
HETATM   11  N2  UNL     1      22.841   2.930  50.620  1.00  0.00    -0.276 NA
HETATM   12  C10 UNL     1      22.232   3.783  49.870  1.00  0.00     0.124 C 
HETATM   13  C11 UNL     1      20.990   2.981  50.074  1.00  0.00    -0.019 A 
HETATM   14  C12 UNL     1      20.246   3.343  51.196  1.00  0.00     0.014 A 
HETATM   15  C13 UNL     1      19.180   2.742  51.816  1.00  0.00     0.017 A 
HETATM   16  C14 UNL     1      19.284   1.776  50.851  1.00  0.00     0.028 A 
HETATM   17  C15 UNL     1      19.666   1.040  49.774  1.00  0.00     0.017 A 
HETATM   18  C16 UNL     1      20.703   1.822  49.335  1.00  0.00     0.014 A 
HETATM   19  C17 UNL     1      19.051   0.654  51.942  1.00  0.00     0.323 A 
HETATM   20  O1  UNL     1      18.988  -0.245  52.836  1.00  0.00    -0.119 OA
HETATM   21  N3  UNL     1      20.344   0.301  52.523  1.00  0.00     0.138 N 
HETATM   22  H7  UNL     1      25.609   1.205  51.188  1.00  0.00     0.161 HD
HETATM   23  H17 UNL     1      20.951   0.889  51.875  1.00  0.00     0.335 HD
ENDROOT
TORSDOF 0
ENDMDL
MODEL 9
REMARK VINA RESULT:      -7.2      2.105      5.481
REMARK  0 active torsions:
REMARK  status: ('A' for Active; 'I' for Inactive)
ROOT
HETATM    1  C1  UNL     1      26.878   4.314  49.320  1.00  0.00     0.050 C 
HETATM    2  C2  UNL     1      26.063   3.354  50.158  1.00  0.00    -0.035 C 
HETATM    3  C3  UNL     1      26.548   2.468  51.149  1.00  0.00     0.011 C 
HETATM    4  C4  UNL     1      25.740   1.612  51.868  1.00  0.00     0.041 C 
HETATM    5  C5  UNL     1      24.417   1.532  51.707  1.00  0.00     0.177 C 
HETATM    6  C6  UNL     1      24.545   2.472  50.773  1.00  0.00     0.070 C 
HETATM    7  C7  UNL     1      24.678   3.456  49.796  1.00  0.00     0.037 C 
HETATM    8  N1  UNL     1      23.898   4.154  48.910  1.00  0.00    -0.367 N 
HETATM    9  C8  UNL     1      22.554   4.659  49.179  1.00  0.00     0.201 C 
HETATM   10  C9  UNL     1      22.066   5.222  47.867  1.00  0.00     0.057 C 
HETATM   11  N2  UNL     1      21.646   3.777  49.770  1.00  0.00    -0.276 NA
HETATM   12  C10 UNL     1      20.360   3.839  49.813  1.00  0.00     0.124 C 
HETATM   13  C11 UNL     1      20.387   2.564  50.588  1.00  0.00    -0.019 A 
HETATM   14  C12 UNL     1      20.501   2.729  51.968  1.00  0.00     0.014 A 
HETATM   15  C13 UNL     1      20.747   1.832  52.976  1.00  0.00     0.017 A 
HETATM   16  C14 UNL     1      20.795   0.882  51.991  1.00  0.00     0.028 A 
HETATM   17  C15 UNL     1      20.765   0.235  50.796  1.00  0.00     0.017 A 
HETATM   18  C16 UNL     1      20.507   1.305  49.978  1.00  0.00     0.014 A 
HETATM   19  C17 UNL     1      22.056   0.222  52.684  1.00  0.00     0.323 A 
HETATM   20  O1  UNL     1      23.137  -0.228  53.172  1.00  0.00    -0.119 OA
HETATM   21  N3  UNL     1      23.256   0.889  52.186  1.00  0.00     0.138 N 
HETATM   22  H7  UNL     1      24.397   4.276  47.997  1.00  0.00     0.161 HD
HETATM   23  H17 UNL     1      22.781   1.498  51.453  1.00  0.00     0.335 HD
ENDROOT
TORSDOF 0
ENDMDL
