MODEL 1
REMARK VINA RESULT:      -5.9      0.000      0.000
REMARK  8 active torsions:
REMARK  status: ('A' for Active; 'I' for Inactive)
REMARK    1  A    between atoms: O1_2  and  C2_3 
REMARK    2  A    between atoms: C2_3  and  C3_4 
REMARK    3  A    between atoms: C3_4  and  O2_5 
REMARK    4  A    between atoms: O2_5  and  C4_6 
REMARK    5  A    between atoms: C11_15  and  O3_16 
REMARK    6  A    between atoms: O3_16  and  C12_17 
REMARK    7  A    between atoms: C12_17  and  C13_18 
REMARK    8  A    between atoms: C13_18  and  O4_19 
ROOT
HETATM    1  C4  UNL     1      24.250   0.881  52.614  1.00  0.00     0.103 A 
HETATM    2  C5  UNL     1      25.398   1.666  52.683  1.00  0.00     0.055 A 
HETATM    3  C6  UNL     1      26.510   1.318  53.405  1.00  0.00     0.013 A 
HETATM    4  C7  UNL     1      27.662   2.085  53.488  1.00  0.00     0.132 A 
HETATM    5  N1  UNL     1      28.729   1.686  54.219  1.00  0.00    -0.253 NA
HETATM    6  C8  UNL     1      28.699   0.513  54.900  1.00  0.00     0.233 A 
HETATM    7  N2  UNL     1      27.584  -0.250  54.832  1.00  0.00    -0.241 NA
HETATM    8  C9  UNL     1      26.512   0.126  54.111  1.00  0.00     0.072 A 
HETATM    9  C10 UNL     1      25.372  -0.639  54.034  1.00  0.00     0.072 A 
HETATM   10  C11 UNL     1      24.227  -0.349  53.329  1.00  0.00     0.104 A 
ENDROOT
BRANCH   1  11
HETATM   11  O2  UNL     1      23.141   1.216  51.907  1.00  0.00    -0.346 OA
BRANCH  11  12
HETATM   12  C3  UNL     1      22.796   2.428  51.349  1.00  0.00     0.201 C 
BRANCH  12  13
HETATM   13  C2  UNL     1      21.770   3.142  52.134  1.00  0.00     0.193 C 
BRANCH  13  14
HETATM   14  O1  UNL     1      22.018   4.485  52.341  1.00  0.00    -0.394 OA
HETATM   15  C1  UNL     1      23.337   4.792  52.591  1.00  0.00     0.201 C 
ENDBRANCH  13  14
ENDBRANCH  12  13
ENDBRANCH  11  12
ENDBRANCH   1  11
BRANCH  10  16
HETATM   16  O3  UNL     1      23.081  -1.004  53.178  1.00  0.00    -0.346 OA
BRANCH  16  17
HETATM   17  C12 UNL     1      22.034  -1.371  53.943  1.00  0.00     0.201 C 
BRANCH  17  18
HETATM   18  C13 UNL     1      21.361  -0.327  54.788  1.00  0.00     0.193 C 
BRANCH  18  19
HETATM   19  O4  UNL     1      20.534   0.495  54.087  1.00  0.00    -0.394 OA
HETATM   20  C14 UNL     1      19.744  -0.151  53.146  1.00  0.00     0.201 C 
ENDBRANCH  18  19
ENDBRANCH  17  18
ENDBRANCH  16  17
ENDBRANCH  10  16
TORSDOF 8
ENDMDL
MODEL 2
REMARK VINA RESULT:      -5.9      1.773      2.205
REMARK  8 active torsions:
REMARK  status: ('A' for Active; 'I' for Inactive)
REMARK    1  A    between atoms: O1_2  and  C2_3 
REMARK    2  A    between atoms: C2_3  and  C3_4 
REMARK    3  A    between atoms: C3_4  and  O2_5 
REMARK    4  A    between atoms: O2_5  and  C4_6 
REMARK    5  A    between atoms: C11_15  and  O3_16 
REMARK    6  A    between atoms: O3_16  and  C12_17 
REMARK    7  A    between atoms: C12_17  and  C13_18 
REMARK    8  A    between atoms: C13_18  and  O4_19 
ROOT
HETATM    1  C4  UNL     1      25.205   1.693  53.206  1.00  0.00     0.103 A 
HETATM    2  C5  UNL     1      26.553   1.946  53.445  1.00  0.00     0.055 A 
HETATM    3  C6  UNL     1      27.512   0.965  53.478  1.00  0.00     0.013 A 
HETATM    4  C7  UNL     1      28.858   1.194  53.715  1.00  0.00     0.132 A 
HETATM    5  N1  UNL     1      29.758   0.183  53.735  1.00  0.00    -0.253 NA
HETATM    6  C8  UNL     1      29.360  -1.098  53.524  1.00  0.00     0.233 A 
HETATM    7  N2  UNL     1      28.050  -1.342  53.293  1.00  0.00    -0.241 NA
HETATM    8  C9  UNL     1      27.139  -0.351  53.266  1.00  0.00     0.072 A 
HETATM    9  C10 UNL     1      25.805  -0.586  53.032  1.00  0.00     0.072 A 
HETATM   10  C11 UNL     1      24.796   0.348  52.984  1.00  0.00     0.104 A 
ENDROOT
BRANCH   1  11
HETATM   11  O2  UNL     1      24.246   2.653  53.175  1.00  0.00    -0.346 OA
BRANCH  11  12
HETATM   12  C3  UNL     1      24.109   3.720  52.313  1.00  0.00     0.201 C 
BRANCH  12  13
HETATM   13  C2  UNL     1      23.722   3.302  50.952  1.00  0.00     0.193 C 
BRANCH  13  14
HETATM   14  O1  UNL     1      24.774   3.030  50.100  1.00  0.00    -0.394 OA
HETATM   15  C1  UNL     1      25.797   3.952  50.141  1.00  0.00     0.201 C 
ENDBRANCH  13  14
ENDBRANCH  12  13
ENDBRANCH  11  12
ENDBRANCH   1  11
BRANCH  10  16
HETATM   16  O3  UNL     1      23.491   0.243  52.765  1.00  0.00    -0.346 OA
BRANCH  16  17
HETATM   17  C12 UNL     1      22.500  -0.630  53.039  1.00  0.00     0.201 C 
BRANCH  17  18
HETATM   18  C13 UNL     1      21.753  -0.484  54.333  1.00  0.00     0.193 C 
BRANCH  18  19
HETATM   19  O4  UNL     1      21.992  -1.488  55.220  1.00  0.00    -0.394 OA
HETATM   20  C14 UNL     1      23.295  -1.534  55.698  1.00  0.00     0.201 C 
ENDBRANCH  18  19
ENDBRANCH  17  18
ENDBRANCH  16  17
ENDBRANCH  10  16
TORSDOF 8
ENDMDL
MODEL 3
REMARK VINA RESULT:      -5.9      3.204      5.765
REMARK  8 active torsions:
REMARK  status: ('A' for Active; 'I' for Inactive)
REMARK    1  A    between atoms: O1_2  and  C2_3 
REMARK    2  A    between atoms: C2_3  and  C3_4 
REMARK    3  A    between atoms: C3_4  and  O2_5 
REMARK    4  A    between atoms: O2_5  and  C4_6 
REMARK    5  A    between atoms: C11_15  and  O3_16 
REMARK    6  A    between atoms: O3_16  and  C12_17 
REMARK    7  A    between atoms: C12_17  and  C13_18 
REMARK    8  A    between atoms: C13_18  and  O4_19 
ROOT
HETATM    1  C4  UNL     1      25.811  -0.054  52.829  1.00  0.00     0.103 A 
HETATM    2  C5  UNL     1      25.049  -0.779  53.740  1.00  0.00     0.055 A 
HETATM    3  C6  UNL     1      23.722  -0.531  53.984  1.00  0.00     0.013 A 
HETATM    4  C7  UNL     1      22.945  -1.240  54.886  1.00  0.00     0.132 A 
HETATM    5  N1  UNL     1      21.638  -0.946  55.083  1.00  0.00    -0.253 NA
HETATM    6  C8  UNL     1      21.047   0.063  54.393  1.00  0.00     0.233 A 
HETATM    7  N2  UNL     1      21.789   0.767  53.508  1.00  0.00    -0.241 NA
HETATM    8  C9  UNL     1      23.089   0.491  53.296  1.00  0.00     0.072 A 
HETATM    9  C10 UNL     1      23.854   1.199  52.400  1.00  0.00     0.072 A 
HETATM   10  C11 UNL     1      25.184   1.001  52.109  1.00  0.00     0.104 A 
ENDROOT
BRANCH   1  11
HETATM   11  O2  UNL     1      27.126  -0.286  52.583  1.00  0.00    -0.346 OA
BRANCH  11  12
HETATM   12  C3  UNL     1      28.088  -0.817  53.415  1.00  0.00     0.201 C 
BRANCH  12  13
HETATM   13  C2  UNL     1      29.073   0.191  53.855  1.00  0.00     0.193 C 
BRANCH  13  14
HETATM   14  O1  UNL     1      28.536   1.320  54.440  1.00  0.00    -0.394 OA
HETATM   15  C1  UNL     1      28.767   2.489  53.749  1.00  0.00     0.201 C 
ENDBRANCH  13  14
ENDBRANCH  12  13
ENDBRANCH  11  12
ENDBRANCH   1  11
BRANCH  10  16
HETATM   16  O3  UNL     1      26.015   1.610  51.271  1.00  0.00    -0.346 OA
BRANCH  16  17
HETATM   17  C12 UNL     1      26.374   2.872  50.963  1.00  0.00     0.201 C 
BRANCH  17  18
HETATM   18  C13 UNL     1      25.308   3.835  50.525  1.00  0.00     0.193 C 
BRANCH  18  19
HETATM   19  O4  UNL     1      24.876   3.632  49.252  1.00  0.00    -0.394 OA
HETATM   20  C14 UNL     1      23.577   3.150  49.155  1.00  0.00     0.201 C 
ENDBRANCH  18  19
ENDBRANCH  17  18
ENDBRANCH  16  17
ENDBRANCH  10  16
TORSDOF 8
ENDMDL
MODEL 4
REMARK VINA RESULT:      -5.8      2.892      5.495
REMARK  8 active torsions:
REMARK  status: ('A' for Active; 'I' for Inactive)
REMARK    1  A    between atoms: O1_2  and  C2_3 
REMARK    2  A    between atoms: C2_3  and  C3_4 
REMARK    3  A    between atoms: C3_4  and  O2_5 
REMARK    4  A    between atoms: O2_5  and  C4_6 
REMARK    5  A    between atoms: C11_15  and  O3_16 
REMARK    6  A    between atoms: O3_16  and  C12_17 
REMARK    7  A    between atoms: C12_17  and  C13_18 
REMARK    8  A    between atoms: C13_18  and  O4_19 
ROOT
HETATM    1  C4  UNL     1      24.680   1.113  52.421  1.00  0.00     0.103 A 
HETATM    2  C5  UNL     1      24.483   0.242  53.488  1.00  0.00     0.055 A 
HETATM    3  C6  UNL     1      23.275  -0.339  53.778  1.00  0.00     0.013 A 
HETATM    4  C7  UNL     1      23.057  -1.208  54.835  1.00  0.00     0.132 A 
HETATM    5  N1  UNL     1      21.838  -1.750  55.070  1.00  0.00    -0.253 NA
HETATM    6  C8  UNL     1      20.785  -1.452  54.267  1.00  0.00     0.233 A 
HETATM    7  N2  UNL     1      20.977  -0.605  53.230  1.00  0.00    -0.241 NA
HETATM    8  C9  UNL     1      22.180  -0.056  52.978  1.00  0.00     0.072 A 
HETATM    9  C10 UNL     1      22.389   0.806  51.927  1.00  0.00     0.072 A 
HETATM   10  C11 UNL     1      23.571   1.420  51.583  1.00  0.00     0.104 A 
ENDROOT
BRANCH   1  11
HETATM   11  O2  UNL     1      25.869   1.698  52.127  1.00  0.00    -0.346 OA
BRANCH  11  12
HETATM   12  C3  UNL     1      27.147   1.228  52.336  1.00  0.00     0.201 C 
BRANCH  12  13
HETATM   13  C2  UNL     1      27.850   1.956  53.411  1.00  0.00     0.193 C 
BRANCH  13  14
HETATM   14  O1  UNL     1      27.750   1.390  54.666  1.00  0.00    -0.394 OA
HETATM   15  C1  UNL     1      28.413   0.192  54.809  1.00  0.00     0.201 C 
ENDBRANCH  13  14
ENDBRANCH  12  13
ENDBRANCH  11  12
ENDBRANCH   1  11
BRANCH  10  16
HETATM   16  O3  UNL     1      23.891   2.256  50.602  1.00  0.00    -0.346 OA
BRANCH  16  17
HETATM   17  C12 UNL     1      23.564   3.503  50.208  1.00  0.00     0.201 C 
BRANCH  17  18
HETATM   18  C13 UNL     1      24.118   4.667  50.979  1.00  0.00     0.193 C 
BRANCH  18  19
HETATM   19  O4  UNL     1      23.565   4.822  52.212  1.00  0.00    -0.394 OA
HETATM   20  C14 UNL     1      22.178   4.905  52.213  1.00  0.00     0.201 C 
ENDBRANCH  18  19
ENDBRANCH  17  18
ENDBRANCH  16  17
ENDBRANCH  10  16
TORSDOF 8
ENDMDL
MODEL 5
REMARK VINA RESULT:      -5.7      2.144      4.630
REMARK  8 active torsions:
REMARK  status: ('A' for Active; 'I' for Inactive)
REMARK    1  A    between atoms: O1_2  and  C2_3 
REMARK    2  A    between atoms: C2_3  and  C3_4 
REMARK    3  A    between atoms: C3_4  and  O2_5 
REMARK    4  A    between atoms: O2_5  and  C4_6 
REMARK    5  A    between atoms: C11_15  and  O3_16 
REMARK    6  A    between atoms: O3_16  and  C12_17 
REMARK    7  A    between atoms: C12_17  and  C13_18 
REMARK    8  A    between atoms: C13_18  and  O4_19 
ROOT
HETATM    1  C4  UNL     1      24.553   1.212  52.381  1.00  0.00     0.103 A 
HETATM    2  C5  UNL     1      25.242   0.652  53.452  1.00  0.00     0.055 A 
HETATM    3  C6  UNL     1      26.563   0.910  53.718  1.00  0.00     0.013 A 
HETATM    4  C7  UNL     1      27.269   0.363  54.779  1.00  0.00     0.132 A 
HETATM    5  N1  UNL     1      28.574   0.657  54.989  1.00  0.00    -0.253 NA
HETATM    6  C8  UNL     1      29.233   1.502  54.158  1.00  0.00     0.233 A 
HETATM    7  N2  UNL     1      28.562   2.045  53.117  1.00  0.00    -0.241 NA
HETATM    8  C9  UNL     1      27.264   1.769  52.889  1.00  0.00     0.072 A 
HETATM    9  C10 UNL     1      26.571   2.314  51.835  1.00  0.00     0.072 A 
HETATM   10  C11 UNL     1      25.250   2.099  51.513  1.00  0.00     0.104 A 
ENDROOT
BRANCH   1  11
HETATM   11  O2  UNL     1      23.247   0.962  52.103  1.00  0.00    -0.346 OA
BRANCH  11  12
HETATM   12  C3  UNL     1      22.407   0.014  52.646  1.00  0.00     0.201 C 
BRANCH  12  13
HETATM   13  C2  UNL     1      21.466   0.589  53.628  1.00  0.00     0.193 C 
BRANCH  13  14
HETATM   14  O1  UNL     1      21.435  -0.048  54.853  1.00  0.00    -0.394 OA
HETATM   15  C1  UNL     1      22.300  -1.114  54.967  1.00  0.00     0.201 C 
ENDBRANCH  13  14
ENDBRANCH  12  13
ENDBRANCH  11  12
ENDBRANCH   1  11
BRANCH  10  16
HETATM   16  O3  UNL     1      24.481   2.566  50.537  1.00  0.00    -0.346 OA
BRANCH  16  17
HETATM   17  C12 UNL     1      23.929   3.743  50.178  1.00  0.00     0.201 C 
BRANCH  17  18
HETATM   18  C13 UNL     1      24.707   4.655  49.274  1.00  0.00     0.193 C 
BRANCH  18  19
HETATM   19  O4  UNL     1      25.908   5.039  49.785  1.00  0.00    -0.394 OA
HETATM   20  C14 UNL     1      27.001   4.709  48.995  1.00  0.00     0.201 C 
ENDBRANCH  18  19
ENDBRANCH  17  18
ENDBRANCH  16  17
ENDBRANCH  10  16
TORSDOF 8
ENDMDL
MODEL 6
REMARK VINA RESULT:      -5.7      1.286      3.617
REMARK  8 active torsions:
REMARK  status: ('A' for Active; 'I' for Inactive)
REMARK    1  A    between atoms: O1_2  and  C2_3 
REMARK    2  A    between atoms: C2_3  and  C3_4 
REMARK    3  A    between atoms: C3_4  and  O2_5 
REMARK    4  A    between atoms: O2_5  and  C4_6 
REMARK    5  A    between atoms: C11_15  and  O3_16 
REMARK    6  A    between atoms: O3_16  and  C12_17 
REMARK    7  A    between atoms: C12_17  and  C13_18 
REMARK    8  A    between atoms: C13_18  and  O4_19 
ROOT
HETATM    1  C4  UNL     1      24.322   0.947  52.611  1.00  0.00     0.103 A 
HETATM    2  C5  UNL     1      25.235  -0.100  52.690  1.00  0.00     0.055 A 
HETATM    3  C6  UNL     1      26.463   0.011  53.291  1.00  0.00     0.013 A 
HETATM    4  C7  UNL     1      27.387  -1.018  53.380  1.00  0.00     0.132 A 
HETATM    5  N1  UNL     1      28.585  -0.847  53.988  1.00  0.00    -0.253 NA
HETATM    6  C8  UNL     1      28.916   0.351  54.532  1.00  0.00     0.233 A 
HETATM    7  N2  UNL     1      28.028   1.368  54.455  1.00  0.00    -0.241 NA
HETATM    8  C9  UNL     1      26.831   1.220  53.857  1.00  0.00     0.072 A 
HETATM    9  C10 UNL     1      25.920   2.246  53.772  1.00  0.00     0.072 A 
HETATM   10  C11 UNL     1      24.676   2.201  53.186  1.00  0.00     0.104 A 
ENDROOT
BRANCH   1  11
HETATM   11  O2  UNL     1      23.106   0.853  52.015  1.00  0.00    -0.346 OA
BRANCH  11  12
HETATM   12  C3  UNL     1      22.025   0.070  52.358  1.00  0.00     0.201 C 
BRANCH  12  13
HETATM   13  C2  UNL     1      21.228   0.654  53.455  1.00  0.00     0.193 C 
BRANCH  13  14
HETATM   14  O1  UNL     1      21.412   0.067  54.691  1.00  0.00    -0.394 OA
HETATM   15  C1  UNL     1      21.800  -1.254  54.646  1.00  0.00     0.201 C 
ENDBRANCH  13  14
ENDBRANCH  12  13
ENDBRANCH  11  12
ENDBRANCH   1  11
BRANCH  10  16
HETATM   16  O3  UNL     1      23.720   3.112  53.049  1.00  0.00    -0.346 OA
BRANCH  16  17
HETATM   17  C12 UNL     1      23.563   4.312  52.454  1.00  0.00     0.201 C 
BRANCH  17  18
HETATM   18  C13 UNL     1      23.023   4.354  51.054  1.00  0.00     0.193 C 
BRANCH  18  19
HETATM   19  O4  UNL     1      21.876   3.642  50.887  1.00  0.00    -0.394 OA
HETATM   20  C14 UNL     1      20.790   4.126  51.605  1.00  0.00     0.201 C 
ENDBRANCH  18  19
ENDBRANCH  17  18
ENDBRANCH  16  17
ENDBRANCH  10  16
TORSDOF 8
ENDMDL
MODEL 7
REMARK VINA RESULT:      -5.5      3.441      5.956
REMARK  8 active torsions:
REMARK  status: ('A' for Active; 'I' for Inactive)
REMARK    1  A    between atoms: O1_2  and  C2_3 
REMARK    2  A    between atoms: C2_3  and  C3_4 
REMARK    3  A    between atoms: C3_4  and  O2_5 
REMARK    4  A    between atoms: O2_5  and  C4_6 
REMARK    5  A    between atoms: C11_15  and  O3_16 
REMARK    6  A    between atoms: O3_16  and  C12_17 
REMARK    7  A    between atoms: C12_17  and  C13_18 
REMARK    8  A    between atoms: C13_18  and  O4_19 
ROOT
HETATM    1  C4  UNL     1      23.222   0.778  51.935  1.00  0.00     0.103 A 
HETATM    2  C5  UNL     1      21.950   0.903  51.383  1.00  0.00     0.055 A 
HETATM    3  C6  UNL     1      20.828   0.341  51.934  1.00  0.00     0.013 A 
HETATM    4  C7  UNL     1      19.553   0.452  51.401  1.00  0.00     0.132 A 
HETATM    5  N1  UNL     1      18.482  -0.127  51.994  1.00  0.00    -0.253 NA
HETATM    6  C8  UNL     1      18.630  -0.841  53.138  1.00  0.00     0.233 A 
HETATM    7  N2  UNL     1      19.866  -0.962  53.674  1.00  0.00    -0.241 NA
HETATM    8  C9  UNL     1      20.945  -0.394  53.102  1.00  0.00     0.072 A 
HETATM    9  C10 UNL     1      22.206  -0.509  53.637  1.00  0.00     0.072 A 
HETATM   10  C11 UNL     1      23.369   0.029  53.136  1.00  0.00     0.104 A 
ENDROOT
BRANCH   1  11
HETATM   11  O2  UNL     1      24.342   1.325  51.396  1.00  0.00    -0.346 OA
BRANCH  11  12
HETATM   12  C3  UNL     1      24.983   2.499  51.728  1.00  0.00     0.201 C 
BRANCH  12  13
HETATM   13  C2  UNL     1      26.453   2.365  51.711  1.00  0.00     0.193 C 
BRANCH  13  14
HETATM   14  O1  UNL     1      27.106   3.174  50.801  1.00  0.00    -0.394 OA
HETATM   15  C1  UNL     1      26.410   3.401  49.634  1.00  0.00     0.201 C 
ENDBRANCH  13  14
ENDBRANCH  12  13
ENDBRANCH  11  12
ENDBRANCH   1  11
BRANCH  10  16
HETATM   16  O3  UNL     1      24.627  -0.011  53.560  1.00  0.00    -0.346 OA
BRANCH  16  17
HETATM   17  C12 UNL     1      25.306  -0.486  54.623  1.00  0.00     0.201 C 
BRANCH  17  18
HETATM   18  C13 UNL     1      26.601   0.174  55.001  1.00  0.00     0.193 C 
BRANCH  18  19
HETATM   19  O4  UNL     1      27.704  -0.502  54.582  1.00  0.00    -0.394 OA
HETATM   20  C14 UNL     1      28.883   0.231  54.637  1.00  0.00     0.201 C 
ENDBRANCH  18  19
ENDBRANCH  17  18
ENDBRANCH  16  17
ENDBRANCH  10  16
TORSDOF 8
ENDMDL
MODEL 8
REMARK VINA RESULT:      -5.4      2.657      5.501
REMARK  8 active torsions:
REMARK  status: ('A' for Active; 'I' for Inactive)
REMARK    1  A    between atoms: O1_2  and  C2_3 
REMARK    2  A    between atoms: C2_3  and  C3_4 
REMARK    3  A    between atoms: C3_4  and  O2_5 
REMARK    4  A    between atoms: O2_5  and  C4_6 
REMARK    5  A    between atoms: C11_15  and  O3_16 
REMARK    6  A    between atoms: O3_16  and  C12_17 
REMARK    7  A    between atoms: C12_17  and  C13_18 
REMARK    8  A    between atoms: C13_18  and  O4_19 
ROOT
HETATM    1  C4  UNL     1      20.414  -0.628  53.580  1.00  0.00     0.103 A 
HETATM    2  C5  UNL     1      21.239  -1.104  54.595  1.00  0.00     0.055 A 
HETATM    3  C6  UNL     1      22.604  -0.969  54.586  1.00  0.00     0.013 A 
HETATM    4  C7  UNL     1      23.444  -1.436  55.585  1.00  0.00     0.132 A 
HETATM    5  N1  UNL     1      24.786  -1.271  55.519  1.00  0.00    -0.253 NA
HETATM    6  C8  UNL     1      25.352  -0.639  54.460  1.00  0.00     0.233 A 
HETATM    7  N2  UNL     1      24.549  -0.176  53.475  1.00  0.00    -0.241 NA
HETATM    8  C9  UNL     1      23.212  -0.328  53.520  1.00  0.00     0.072 A 
HETATM    9  C10 UNL     1      22.386   0.138  52.525  1.00  0.00     0.072 A 
HETATM   10  C11 UNL     1      21.014   0.036  52.474  1.00  0.00     0.104 A 
ENDROOT
BRANCH   1  11
HETATM   11  O2  UNL     1      19.063  -0.759  53.574  1.00  0.00    -0.346 OA
BRANCH  11  12
HETATM   12  C3  UNL     1      18.297  -1.894  53.735  1.00  0.00     0.201 C 
BRANCH  12  13
HETATM   13  C2  UNL     1      17.110  -1.905  52.858  1.00  0.00     0.193 C 
BRANCH  13  14
HETATM   14  O1  UNL     1      16.299  -3.015  52.982  1.00  0.00    -0.394 OA
HETATM   15  C1  UNL     1      16.917  -4.118  53.528  1.00  0.00     0.201 C 
ENDBRANCH  13  14
ENDBRANCH  12  13
ENDBRANCH  11  12
ENDBRANCH   1  11
BRANCH  10  16
HETATM   16  O3  UNL     1      20.122   0.445  51.580  1.00  0.00    -0.346 OA
BRANCH  16  17
HETATM   17  C12 UNL     1      19.815   1.583  50.924  1.00  0.00     0.201 C 
BRANCH  17  18
HETATM   18  C13 UNL     1      18.918   2.580  51.599  1.00  0.00     0.193 C 
BRANCH  18  19
HETATM   19  O4  UNL     1      19.575   3.432  52.432  1.00  0.00    -0.394 OA
HETATM   20  C14 UNL     1      20.828   3.826  51.980  1.00  0.00     0.201 C 
ENDBRANCH  18  19
ENDBRANCH  17  18
ENDBRANCH  16  17
ENDBRANCH  10  16
TORSDOF 8
ENDMDL
MODEL 9
REMARK VINA RESULT:      -5.4      1.471      1.818
REMARK  8 active torsions:
REMARK  status: ('A' for Active; 'I' for Inactive)
REMARK    1  A    between atoms: O1_2  and  C2_3 
REMARK    2  A    between atoms: C2_3  and  C3_4 
REMARK    3  A    between atoms: C3_4  and  O2_5 
REMARK    4  A    between atoms: O2_5  and  C4_6 
REMARK    5  A    between atoms: C11_15  and  O3_16 
REMARK    6  A    between atoms: O3_16  and  C12_17 
REMARK    7  A    between atoms: C12_17  and  C13_18 
REMARK    8  A    between atoms: C13_18  and  O4_19 
ROOT
HETATM    1  C4  UNL     1      25.122   2.014  51.787  1.00  0.00     0.103 A 
HETATM    2  C5  UNL     1      26.484   2.179  52.022  1.00  0.00     0.055 A 
HETATM    3  C6  UNL     1      27.171   1.502  52.997  1.00  0.00     0.013 A 
HETATM    4  C7  UNL     1      28.525   1.652  53.249  1.00  0.00     0.132 A 
HETATM    5  N1  UNL     1      29.148   0.953  54.227  1.00  0.00    -0.253 NA
HETATM    6  C8  UNL     1      28.453   0.078  54.997  1.00  0.00     0.233 A 
HETATM    7  N2  UNL     1      27.130  -0.083  54.768  1.00  0.00    -0.241 NA
HETATM    8  C9  UNL     1      26.491   0.601  53.800  1.00  0.00     0.072 A 
HETATM    9  C10 UNL     1      25.147   0.447  53.557  1.00  0.00     0.072 A 
HETATM   10  C11 UNL     1      24.401   1.092  52.598  1.00  0.00     0.104 A 
ENDROOT
BRANCH   1  11
HETATM   11  O2  UNL     1      24.429   2.681  50.829  1.00  0.00    -0.346 OA
BRANCH  11  12
HETATM   12  C3  UNL     1      24.386   4.034  50.568  1.00  0.00     0.201 C 
BRANCH  12  13
HETATM   13  C2  UNL     1      23.488   4.760  51.487  1.00  0.00     0.193 C 
BRANCH  13  14
HETATM   14  O1  UNL     1      23.925   6.013  51.867  1.00  0.00    -0.394 OA
HETATM   15  C1  UNL     1      24.478   6.760  50.850  1.00  0.00     0.201 C 
ENDBRANCH  13  14
ENDBRANCH  12  13
ENDBRANCH  11  12
ENDBRANCH   1  11
BRANCH  10  16
HETATM   16  O3  UNL     1      23.116   1.024  52.270  1.00  0.00    -0.346 OA
BRANCH  16  17
HETATM   17  C12 UNL     1      22.138   0.095  52.255  1.00  0.00     0.201 C 
BRANCH  17  18
HETATM   18  C13 UNL     1      21.058   0.174  53.295  1.00  0.00     0.193 C 
BRANCH  18  19
HETATM   19  O4  UNL     1      21.515   0.060  54.571  1.00  0.00    -0.394 OA
HETATM   20  C14 UNL     1      21.994  -1.202  54.900  1.00  0.00     0.201 C 
ENDBRANCH  18  19
ENDBRANCH  17  18
ENDBRANCH  16  17
ENDBRANCH  10  16
TORSDOF 8
ENDMDL
