MODEL 1
REMARK VINA RESULT:      -8.8      0.000      0.000
REMARK  3 active torsions:
REMARK  status: ('A' for Active; 'I' for Inactive)
REMARK    1  A    between atoms: C1_2  and  C2_3 
REMARK    2  A    between atoms: C9_12  and  C10_13 
REMARK    3  A    between atoms: C10_13  and  C11_14 
ROOT
HETATM    1  C10 UNL     1      22.990   1.288  53.028  1.00  0.00     0.037 C 
ENDROOT
BRANCH   1   2
HETATM    2  C9  UNL     1      21.898   0.604  52.217  1.00  0.00     0.051 C 
HETATM    3  C2  UNL     1      20.561   0.845  52.816  1.00  0.00     0.144 C 
HETATM    4  N1  UNL     1      19.933   2.084  52.541  1.00  0.00    -0.409 N 
HETATM    5  C3  UNL     1      19.145   2.104  51.347  1.00  0.00     0.145 C 
HETATM    6  H3  UNL     1      19.591   2.640  53.328  1.00  0.00     0.154 HD
HETATM    7  C4  UNL     1      20.136   2.226  50.199  1.00  0.00     0.292 C 
HETATM    8  N2  UNL     1      20.861   1.000  49.993  1.00  0.00     0.095 N 
HETATM    9  C5  UNL     1      21.449   1.128  48.648  1.00  0.00     0.273 C 
HETATM   10  C8  UNL     1      22.042   0.829  50.764  1.00  0.00     0.229 C 
HETATM   11  C6  UNL     1      22.554   2.149  48.915  1.00  0.00     0.032 C 
HETATM   12  C7  UNL     1      22.877   2.049  50.393  1.00  0.00     0.038 C 
BRANCH   3  13
HETATM   13  C1  UNL     1      19.626  -0.261  52.505  1.00  0.00     0.256 C 
HETATM   14  O1  UNL     1      19.257  -0.802  53.514  1.00  0.00    -0.305 OA
ENDBRANCH   3  13
ENDBRANCH   1   2
BRANCH   1  15
HETATM   15  C11 UNL     1      24.243   0.502  53.022  1.00  0.00    -0.008 C 
HETATM   16  C12 UNL     1      25.446   0.951  53.285  1.00  0.00     0.041 A 
HETATM   17  C13 UNL     1      25.899   2.286  53.645  1.00  0.00     0.256 A 
HETATM   18  C19 UNL     1      26.660   0.152  53.271  1.00  0.00     0.009 A 
HETATM   19  O2  UNL     1      25.171   3.300  53.773  1.00  0.00    -0.267 OA
HETATM   20  N3  UNL     1      27.305   2.307  53.840  1.00  0.00    -0.322 N 
HETATM   21  C14 UNL     1      27.728   0.978  53.600  1.00  0.00     0.046 A 
HETATM   22  H19 UNL     1      27.891   3.132  54.104  1.00  0.00     0.169 HD
HETATM   23  C15 UNL     1      29.022   0.492  53.666  1.00  0.00     0.033 A 
HETATM   24  C16 UNL     1      29.221  -0.848  53.394  1.00  0.00     0.044 A 
HETATM   25  C17 UNL     1      28.190  -1.727  53.057  1.00  0.00     0.117 A 
HETATM   26  F1  UNL     1      28.411  -3.035  52.794  1.00  0.00    -0.206 F 
HETATM   27  C18 UNL     1      26.906  -1.190  53.003  1.00  0.00     0.057 A 
ENDBRANCH   1  15
TORSDOF 3
ENDMDL
MODEL 2
REMARK VINA RESULT:      -8.7      5.074      6.852
REMARK  3 active torsions:
REMARK  status: ('A' for Active; 'I' for Inactive)
REMARK    1  A    between atoms: C1_2  and  C2_3 
REMARK    2  A    between atoms: C9_12  and  C10_13 
REMARK    3  A    between atoms: C10_13  and  C11_14 
ROOT
HETATM    1  C10 UNL     1      26.496   4.143  49.827  1.00  0.00     0.037 C 
ENDROOT
BRANCH   1   2
HETATM    2  C9  UNL     1      25.972   5.361  49.076  1.00  0.00     0.051 C 
HETATM    3  C2  UNL     1      25.250   6.280  49.992  1.00  0.00     0.144 C 
HETATM    4  N1  UNL     1      26.027   7.155  50.789  1.00  0.00    -0.409 N 
HETATM    5  C3  UNL     1      26.350   8.403  50.167  1.00  0.00     0.145 C 
HETATM    6  H3  UNL     1      25.857   7.174  51.797  1.00  0.00     0.154 HD
HETATM    7  C4  UNL     1      27.484   8.101  49.199  1.00  0.00     0.292 C 
HETATM    8  N2  UNL     1      27.020   7.368  48.051  1.00  0.00     0.095 N 
HETATM    9  C5  UNL     1      28.093   7.509  47.050  1.00  0.00     0.273 C 
HETATM   10  C8  UNL     1      26.984   5.954  48.177  1.00  0.00     0.229 C 
HETATM   11  C6  UNL     1      29.160   6.591  47.644  1.00  0.00     0.032 C 
HETATM   12  C7  UNL     1      28.425   5.601  48.528  1.00  0.00     0.038 C 
BRANCH   3  13
HETATM   13  C1  UNL     1      24.218   7.058  49.268  1.00  0.00     0.256 C 
HETATM   14  O1  UNL     1      23.592   6.347  48.527  1.00  0.00    -0.305 OA
ENDBRANCH   3  13
ENDBRANCH   1   2
BRANCH   1  15
HETATM   15  C11 UNL     1      25.391   3.285  50.304  1.00  0.00    -0.008 C 
HETATM   16  C12 UNL     1      25.452   2.400  51.270  1.00  0.00     0.041 A 
HETATM   17  C13 UNL     1      26.564   2.010  52.124  1.00  0.00     0.256 A 
HETATM   18  C19 UNL     1      24.347   1.570  51.716  1.00  0.00     0.009 A 
HETATM   19  O2  UNL     1      27.726   2.482  52.082  1.00  0.00    -0.267 OA
HETATM   20  N3  UNL     1      26.166   1.001  53.040  1.00  0.00    -0.322 N 
HETATM   21  C14 UNL     1      24.800   0.763  52.754  1.00  0.00     0.046 A 
HETATM   22  H19 UNL     1      26.761   0.540  53.767  1.00  0.00     0.169 HD
HETATM   23  C15 UNL     1      23.963  -0.140  53.384  1.00  0.00     0.033 A 
HETATM   24  C16 UNL     1      22.654  -0.217  52.948  1.00  0.00     0.044 A 
HETATM   25  C17 UNL     1      22.140   0.565  51.912  1.00  0.00     0.117 A 
HETATM   26  F1  UNL     1      20.854   0.471  51.503  1.00  0.00    -0.206 F 
HETATM   27  C18 UNL     1      23.022   1.459  51.309  1.00  0.00     0.057 A 
ENDBRANCH   1  15
TORSDOF 3
ENDMDL
MODEL 3
REMARK VINA RESULT:      -8.7      4.125      5.757
REMARK  3 active torsions:
REMARK  status: ('A' for Active; 'I' for Inactive)
REMARK    1  A    between atoms: C1_2  and  C2_3 
REMARK    2  A    between atoms: C9_12  and  C10_13 
REMARK    3  A    between atoms: C10_13  and  C11_14 
ROOT
HETATM    1  C10 UNL     1      24.508   2.872  50.470  1.00  0.00     0.037 C 
ENDROOT
BRANCH   1   2
HETATM    2  C9  UNL     1      23.923   4.164  49.915  1.00  0.00     0.051 C 
HETATM    3  C2  UNL     1      23.185   4.908  50.967  1.00  0.00     0.144 C 
HETATM    4  N1  UNL     1      23.943   5.688  51.873  1.00  0.00    -0.409 N 
HETATM    5  C3  UNL     1      24.206   7.025  51.437  1.00  0.00     0.145 C 
HETATM    6  H3  UNL     1      23.794   5.551  52.875  1.00  0.00     0.154 HD
HETATM    7  C4  UNL     1      25.330   6.915  50.419  1.00  0.00     0.292 C 
HETATM    8  N2  UNL     1      24.871   6.341  49.182  1.00  0.00     0.095 N 
HETATM    9  C5  UNL     1      25.917   6.671  48.197  1.00  0.00     0.273 C 
HETATM   10  C8  UNL     1      24.892   4.923  49.099  1.00  0.00     0.229 C 
HETATM   11  C6  UNL     1      27.030   5.720  48.633  1.00  0.00     0.032 C 
HETATM   12  C7  UNL     1      26.353   4.582  49.372  1.00  0.00     0.038 C 
BRANCH   3  13
HETATM   13  C1  UNL     1      22.109   5.740  50.381  1.00  0.00     0.256 C 
HETATM   14  O1  UNL     1      21.027   5.294  50.658  1.00  0.00    -0.305 OA
ENDBRANCH   3  13
ENDBRANCH   1   2
BRANCH   1  15
HETATM   15  C11 UNL     1      23.494   2.092  51.213  1.00  0.00    -0.008 C 
HETATM   16  C12 UNL     1      23.726   1.210  52.155  1.00  0.00     0.041 A 
HETATM   17  C13 UNL     1      24.980   0.748  52.729  1.00  0.00     0.256 A 
HETATM   18  C19 UNL     1      22.706   0.459  52.867  1.00  0.00     0.009 A 
HETATM   19  O2  UNL     1      26.127   1.139  52.402  1.00  0.00    -0.267 OA
HETATM   20  N3  UNL     1      24.746  -0.227  53.734  1.00  0.00    -0.322 N 
HETATM   21  C14 UNL     1      23.340  -0.373  53.784  1.00  0.00     0.046 A 
HETATM   22  H19 UNL     1      25.466  -0.725  54.307  1.00  0.00     0.169 HD
HETATM   23  C15 UNL     1      22.618  -1.213  54.613  1.00  0.00     0.033 A 
HETATM   24  C16 UNL     1      21.241  -1.202  54.501  1.00  0.00     0.044 A 
HETATM   25  C17 UNL     1      20.548  -0.391  53.601  1.00  0.00     0.117 A 
HETATM   26  F1  UNL     1      19.198  -0.398  53.510  1.00  0.00    -0.206 F 
HETATM   27  C18 UNL     1      21.318   0.438  52.788  1.00  0.00     0.057 A 
ENDBRANCH   1  15
TORSDOF 3
ENDMDL
MODEL 4
REMARK VINA RESULT:      -8.5      1.804      2.883
REMARK  3 active torsions:
REMARK  status: ('A' for Active; 'I' for Inactive)
REMARK    1  A    between atoms: C1_2  and  C2_3 
REMARK    2  A    between atoms: C9_12  and  C10_13 
REMARK    3  A    between atoms: C10_13  and  C11_14 
ROOT
HETATM    1  C10 UNL     1      22.293   1.520  52.625  1.00  0.00     0.037 C 
ENDROOT
BRANCH   1   2
HETATM    2  C9  UNL     1      22.280   2.467  51.432  1.00  0.00     0.051 C 
HETATM    3  C2  UNL     1      22.705   1.767  50.193  1.00  0.00     0.144 C 
HETATM    4  N1  UNL     1      21.742   0.975  49.524  1.00  0.00    -0.409 N 
HETATM    5  C3  UNL     1      20.941   1.683  48.572  1.00  0.00     0.145 C 
HETATM    6  H3  UNL     1      21.983   0.008  49.295  1.00  0.00     0.154 HD
HETATM    7  C4  UNL     1      19.908   2.447  49.387  1.00  0.00     0.292 C 
HETATM    8  N2  UNL     1      20.500   3.558  50.084  1.00  0.00     0.095 N 
HETATM    9  C5  UNL     1      19.363   4.412  50.472  1.00  0.00     0.273 C 
HETATM   10  C8  UNL     1      21.049   3.280  51.364  1.00  0.00     0.229 C 
HETATM   11  C6  UNL     1      18.750   3.579  51.596  1.00  0.00     0.032 C 
HETATM   12  C7  UNL     1      19.864   2.699  52.129  1.00  0.00     0.038 C 
BRANCH   3  13
HETATM   13  C1  UNL     1      23.325   2.708  49.231  1.00  0.00     0.256 C 
HETATM   14  O1  UNL     1      24.216   3.324  49.752  1.00  0.00    -0.305 OA
ENDBRANCH   3  13
ENDBRANCH   1   2
BRANCH   1  15
HETATM   15  C11 UNL     1      23.534   0.717  52.666  1.00  0.00    -0.008 C 
HETATM   16  C12 UNL     1      24.719   1.133  53.043  1.00  0.00     0.041 A 
HETATM   17  C13 UNL     1      25.158   2.438  53.511  1.00  0.00     0.256 A 
HETATM   18  C19 UNL     1      25.922   0.317  53.072  1.00  0.00     0.009 A 
HETATM   19  O2  UNL     1      24.433   3.455  53.644  1.00  0.00    -0.267 OA
HETATM   20  N3  UNL     1      26.546   2.427  53.811  1.00  0.00    -0.322 N 
HETATM   21  C14 UNL     1      26.972   1.108  53.526  1.00  0.00     0.046 A 
HETATM   22  H19 UNL     1      27.119   3.227  54.165  1.00  0.00     0.169 HD
HETATM   23  C15 UNL     1      28.251   0.599  53.660  1.00  0.00     0.033 A 
HETATM   24  C16 UNL     1      28.456  -0.726  53.326  1.00  0.00     0.044 A 
HETATM   25  C17 UNL     1      27.444  -1.569  52.864  1.00  0.00     0.117 A 
HETATM   26  F1  UNL     1      27.670  -2.863  52.543  1.00  0.00    -0.206 F 
HETATM   27  C18 UNL     1      26.173  -1.010  52.746  1.00  0.00     0.057 A 
ENDBRANCH   1  15
TORSDOF 3
ENDMDL
MODEL 5
REMARK VINA RESULT:      -8.4      2.385      3.507
REMARK  3 active torsions:
REMARK  status: ('A' for Active; 'I' for Inactive)
REMARK    1  A    between atoms: C1_2  and  C2_3 
REMARK    2  A    between atoms: C9_12  and  C10_13 
REMARK    3  A    between atoms: C10_13  and  C11_14 
ROOT
HETATM    1  C10 UNL     1      22.897   1.064  51.681  1.00  0.00     0.037 C 
ENDROOT
BRANCH   1   2
HETATM    2  C9  UNL     1      21.951   2.227  51.955  1.00  0.00     0.051 C 
HETATM    3  C2  UNL     1      22.351   3.431  51.184  1.00  0.00     0.144 C 
HETATM    4  N1  UNL     1      21.970   3.494  49.822  1.00  0.00    -0.409 N 
HETATM    5  C3  UNL     1      20.676   4.060  49.589  1.00  0.00     0.145 C 
HETATM    6  H3  UNL     1      22.691   3.691  49.125  1.00  0.00     0.154 HD
HETATM    7  C4  UNL     1      19.678   2.965  49.932  1.00  0.00     0.292 C 
HETATM    8  N2  UNL     1      19.597   2.747  51.352  1.00  0.00     0.095 N 
HETATM    9  C5  UNL     1      18.346   1.993  51.550  1.00  0.00     0.273 C 
HETATM   10  C8  UNL     1      20.530   1.828  51.903  1.00  0.00     0.229 C 
HETATM   11  C6  UNL     1      18.749   0.623  51.008  1.00  0.00     0.032 C 
HETATM   12  C7  UNL     1      20.260   0.549  51.119  1.00  0.00     0.038 C 
BRANCH   3  13
HETATM   13  C1  UNL     1      21.931   4.673  51.873  1.00  0.00     0.256 C 
HETATM   14  O1  UNL     1      22.883   5.361  52.129  1.00  0.00    -0.305 OA
ENDBRANCH   3  13
ENDBRANCH   1   2
BRANCH   1  15
HETATM   15  C11 UNL     1      24.274   1.371  52.121  1.00  0.00    -0.008 C 
HETATM   16  C12 UNL     1      24.979   0.701  53.000  1.00  0.00     0.041 A 
HETATM   17  C13 UNL     1      24.644  -0.484  53.774  1.00  0.00     0.256 A 
HETATM   18  C19 UNL     1      26.334   1.029  53.412  1.00  0.00     0.009 A 
HETATM   19  O2  UNL     1      23.556  -1.109  53.730  1.00  0.00    -0.267 OA
HETATM   20  N3  UNL     1      25.727  -0.863  54.611  1.00  0.00    -0.322 N 
HETATM   21  C14 UNL     1      26.739   0.092  54.356  1.00  0.00     0.046 A 
HETATM   22  H19 UNL     1      25.758  -1.675  55.269  1.00  0.00     0.169 HD
HETATM   23  C15 UNL     1      27.995   0.148  54.934  1.00  0.00     0.033 A 
HETATM   24  C16 UNL     1      28.839   1.169  54.543  1.00  0.00     0.044 A 
HETATM   25  C17 UNL     1      28.490   2.139  53.601  1.00  0.00     0.117 A 
HETATM   26  F1  UNL     1      29.334   3.130  53.235  1.00  0.00    -0.206 F 
HETATM   27  C18 UNL     1      27.215   2.040  53.048  1.00  0.00     0.057 A 
ENDBRANCH   1  15
TORSDOF 3
ENDMDL
MODEL 6
REMARK VINA RESULT:      -8.3      5.162      6.853
REMARK  3 active torsions:
REMARK  status: ('A' for Active; 'I' for Inactive)
REMARK    1  A    between atoms: C1_2  and  C2_3 
REMARK    2  A    between atoms: C9_12  and  C10_13 
REMARK    3  A    between atoms: C10_13  and  C11_14 
ROOT
HETATM    1  C10 UNL     1      25.706   2.765  49.906  1.00  0.00     0.037 C 
ENDROOT
BRANCH   1   2
HETATM    2  C9  UNL     1      25.429   3.015  51.382  1.00  0.00     0.051 C 
HETATM    3  C2  UNL     1      23.971   3.133  51.637  1.00  0.00     0.144 C 
HETATM    4  N1  UNL     1      23.225   1.934  51.741  1.00  0.00    -0.409 N 
HETATM    5  C3  UNL     1      23.174   1.373  53.057  1.00  0.00     0.145 C 
HETATM    6  H3  UNL     1      22.387   1.831  51.165  1.00  0.00     0.154 HD
HETATM    7  C4  UNL     1      24.515   0.686  53.266  1.00  0.00     0.292 C 
HETATM    8  N2  UNL     1      25.577   1.641  53.447  1.00  0.00     0.095 N 
HETATM    9  C5  UNL     1      26.687   0.868  54.032  1.00  0.00     0.273 C 
HETATM   10  C8  UNL     1      26.203   2.120  52.266  1.00  0.00     0.229 C 
HETATM   11  C6  UNL     1      27.145   0.062  52.817  1.00  0.00     0.032 C 
HETATM   12  C7  UNL     1      26.699   0.844  51.596  1.00  0.00     0.038 C 
BRANCH   3  13
HETATM   13  C1  UNL     1      23.699   3.987  52.816  1.00  0.00     0.256 C 
HETATM   14  O1  UNL     1      23.362   5.089  52.474  1.00  0.00    -0.305 OA
ENDBRANCH   3  13
ENDBRANCH   1   2
BRANCH   1  15
HETATM   15  C11 UNL     1      26.779   3.647  49.399  1.00  0.00    -0.008 C 
HETATM   16  C12 UNL     1      26.635   4.869  48.946  1.00  0.00     0.041 A 
HETATM   17  C13 UNL     1      25.443   5.691  48.807  1.00  0.00     0.256 A 
HETATM   18  C19 UNL     1      27.712   5.711  48.453  1.00  0.00     0.009 A 
HETATM   19  O2  UNL     1      24.275   5.352  49.117  1.00  0.00    -0.267 OA
HETATM   20  N3  UNL     1      25.767   6.962  48.263  1.00  0.00    -0.322 N 
HETATM   21  C14 UNL     1      27.167   6.929  48.062  1.00  0.00     0.046 A 
HETATM   22  H19 UNL     1      25.105   7.745  48.059  1.00  0.00     0.169 HD
HETATM   23  C15 UNL     1      27.958   7.941  47.548  1.00  0.00     0.033 A 
HETATM   24  C16 UNL     1      29.314   7.703  47.433  1.00  0.00     0.044 A 
HETATM   25  C17 UNL     1      29.920   6.502  47.808  1.00  0.00     0.117 A 
HETATM   26  F1  UNL     1      31.251   6.294  47.685  1.00  0.00    -0.206 F 
HETATM   27  C18 UNL     1      29.082   5.514  48.320  1.00  0.00     0.057 A 
ENDBRANCH   1  15
TORSDOF 3
ENDMDL
MODEL 7
REMARK VINA RESULT:      -8.2      7.919     11.217
REMARK  3 active torsions:
REMARK  status: ('A' for Active; 'I' for Inactive)
REMARK    1  A    between atoms: C1_2  and  C2_3 
REMARK    2  A    between atoms: C9_12  and  C10_13 
REMARK    3  A    between atoms: C10_13  and  C11_14 
ROOT
HETATM    1  C10 UNL     1      30.777   5.690  47.646  1.00  0.00     0.037 C 
ENDROOT
BRANCH   1   2
HETATM    2  C9  UNL     1      31.922   4.721  47.908  1.00  0.00     0.051 C 
HETATM    3  C2  UNL     1      32.099   3.786  46.768  1.00  0.00     0.144 C 
HETATM    4  N1  UNL     1      32.809   4.258  45.638  1.00  0.00    -0.409 N 
HETATM    5  C3  UNL     1      34.227   4.077  45.704  1.00  0.00     0.145 C 
HETATM    6  H3  UNL     1      32.376   4.162  44.717  1.00  0.00     0.154 HD
HETATM    7  C4  UNL     1      34.741   5.175  46.623  1.00  0.00     0.292 C 
HETATM    8  N2  UNL     1      34.397   4.921  47.997  1.00  0.00     0.095 N 
HETATM    9  C5  UNL     1      35.281   5.804  48.780  1.00  0.00     0.273 C 
HETATM   10  C8  UNL     1      33.130   5.394  48.428  1.00  0.00     0.229 C 
HETATM   11  C6  UNL     1      34.642   7.164  48.505  1.00  0.00     0.032 C 
HETATM   12  C7  UNL     1      33.198   6.888  48.130  1.00  0.00     0.038 C 
BRANCH   3  13
HETATM   13  C1  UNL     1      32.680   2.499  47.214  1.00  0.00     0.256 C 
HETATM   14  O1  UNL     1      32.115   1.574  46.694  1.00  0.00    -0.305 OA
ENDBRANCH   3  13
ENDBRANCH   1   2
BRANCH   1  15
HETATM   15  C11 UNL     1      29.496   5.171  48.173  1.00  0.00    -0.008 C 
HETATM   16  C12 UNL     1      28.350   5.807  48.200  1.00  0.00     0.041 A 
HETATM   17  C13 UNL     1      28.000   7.144  47.747  1.00  0.00     0.256 A 
HETATM   18  C19 UNL     1      27.107   5.268  48.726  1.00  0.00     0.009 A 
HETATM   19  O2  UNL     1      28.783   7.971  47.219  1.00  0.00    -0.267 OA
HETATM   20  N3  UNL     1      26.625   7.412  47.980  1.00  0.00    -0.322 N 
HETATM   21  C14 UNL     1      26.119   6.236  48.581  1.00  0.00     0.046 A 
HETATM   22  H19 UNL     1      26.109   8.293  47.752  1.00  0.00     0.169 HD
HETATM   23  C15 UNL     1      24.819   6.006  48.995  1.00  0.00     0.033 A 
HETATM   24  C16 UNL     1      24.530   4.780  49.562  1.00  0.00     0.044 A 
HETATM   25  C17 UNL     1      25.478   3.769  49.736  1.00  0.00     0.117 A 
HETATM   26  F1  UNL     1      25.171   2.576  50.294  1.00  0.00    -0.206 F 
HETATM   27  C18 UNL     1      26.773   4.048  49.303  1.00  0.00     0.057 A 
ENDBRANCH   1  15
TORSDOF 3
ENDMDL
MODEL 8
REMARK VINA RESULT:      -7.8      7.390     10.090
REMARK  3 active torsions:
REMARK  status: ('A' for Active; 'I' for Inactive)
REMARK    1  A    between atoms: C1_2  and  C2_3 
REMARK    2  A    between atoms: C9_12  and  C10_13 
REMARK    3  A    between atoms: C10_13  and  C11_14 
ROOT
HETATM    1  C10 UNL     1      28.768   6.202  47.764  1.00  0.00     0.037 C 
ENDROOT
BRANCH   1   2
HETATM    2  C9  UNL     1      29.991   6.726  48.507  1.00  0.00     0.051 C 
HETATM    3  C2  UNL     1      31.220   6.013  48.077  1.00  0.00     0.144 C 
HETATM    4  N1  UNL     1      31.828   6.427  46.867  1.00  0.00    -0.409 N 
HETATM    5  C3  UNL     1      32.773   7.492  47.005  1.00  0.00     0.145 C 
HETATM    6  H3  UNL     1      32.034   5.718  46.160  1.00  0.00     0.154 HD
HETATM    7  C4  UNL     1      31.947   8.761  47.152  1.00  0.00     0.292 C 
HETATM    8  N2  UNL     1      31.308   8.832  48.440  1.00  0.00     0.095 N 
HETATM    9  C5  UNL     1      30.908  10.242  48.589  1.00  0.00     0.273 C 
HETATM   10  C8  UNL     1      30.040   8.202  48.550  1.00  0.00     0.229 C 
HETATM   11  C6  UNL     1      29.735  10.312  47.612  1.00  0.00     0.032 C 
HETATM   12  C7  UNL     1      29.215   8.894  47.471  1.00  0.00     0.038 C 
BRANCH   3  13
HETATM   13  C1  UNL     1      32.234   5.993  49.156  1.00  0.00     0.256 C 
HETATM   14  O1  UNL     1      31.757   5.583  50.181  1.00  0.00    -0.305 OA
ENDBRANCH   3  13
ENDBRANCH   1   2
BRANCH   1  15
HETATM   15  C11 UNL     1      28.039   5.194  48.564  1.00  0.00    -0.008 C 
HETATM   16  C12 UNL     1      26.771   5.229  48.893  1.00  0.00     0.041 A 
HETATM   17  C13 UNL     1      25.744   6.216  48.592  1.00  0.00     0.256 A 
HETATM   18  C19 UNL     1      26.082   4.222  49.682  1.00  0.00     0.009 A 
HETATM   19  O2  UNL     1      25.905   7.266  47.925  1.00  0.00    -0.267 OA
HETATM   20  N3  UNL     1      24.499   5.837  49.161  1.00  0.00    -0.322 N 
HETATM   21  C14 UNL     1      24.754   4.610  49.819  1.00  0.00     0.046 A 
HETATM   22  H19 UNL     1      23.595   6.360  49.101  1.00  0.00     0.169 HD
HETATM   23  C15 UNL     1      23.847   3.841  50.526  1.00  0.00     0.033 A 
HETATM   24  C16 UNL     1      24.304   2.668  51.095  1.00  0.00     0.044 A 
HETATM   25  C17 UNL     1      25.624   2.225  50.993  1.00  0.00     0.117 A 
HETATM   26  F1  UNL     1      26.047   1.072  51.561  1.00  0.00    -0.206 F 
HETATM   27  C18 UNL     1      26.499   3.034  50.272  1.00  0.00     0.057 A 
ENDBRANCH   1  15
TORSDOF 3
ENDMDL
MODEL 9
REMARK VINA RESULT:      -7.7      5.505      6.952
REMARK  3 active torsions:
REMARK  status: ('A' for Active; 'I' for Inactive)
REMARK    1  A    between atoms: C1_2  and  C2_3 
REMARK    2  A    between atoms: C9_12  and  C10_13 
REMARK    3  A    between atoms: C10_13  and  C11_14 
ROOT
HETATM    1  C10 UNL     1      24.037   4.831  49.178  1.00  0.00     0.037 C 
ENDROOT
BRANCH   1   2
HETATM    2  C9  UNL     1      24.340   3.469  49.789  1.00  0.00     0.051 C 
HETATM    3  C2  UNL     1      25.091   3.613  51.061  1.00  0.00     0.144 C 
HETATM    4  N1  UNL     1      24.352   3.926  52.227  1.00  0.00    -0.409 N 
HETATM    5  C3  UNL     1      23.835   2.793  52.931  1.00  0.00     0.145 C 
HETATM    6  H3  UNL     1      24.654   4.721  52.795  1.00  0.00     0.154 HD
HETATM    7  C4  UNL     1      22.613   2.341  52.145  1.00  0.00     0.292 C 
HETATM    8  N2  UNL     1      22.984   1.711  50.905  1.00  0.00     0.095 N 
HETATM    9  C5  UNL     1      21.777   0.984  50.473  1.00  0.00     0.273 C 
HETATM   10  C8  UNL     1      23.167   2.572  49.790  1.00  0.00     0.229 C 
HETATM   11  C6  UNL     1      20.889   2.143  50.025  1.00  0.00     0.032 C 
HETATM   12  C7  UNL     1      21.824   3.287  49.682  1.00  0.00     0.038 C 
BRANCH   3  13
HETATM   13  C1  UNL     1      25.941   2.427  51.320  1.00  0.00     0.256 C 
HETATM   14  O1  UNL     1      27.020   2.555  50.804  1.00  0.00    -0.305 OA
ENDBRANCH   3  13
ENDBRANCH   1   2
BRANCH   1  15
HETATM   15  C11 UNL     1      25.274   5.527  48.764  1.00  0.00    -0.008 C 
HETATM   16  C12 UNL     1      25.781   6.607  49.309  1.00  0.00     0.041 A 
HETATM   17  C13 UNL     1      25.310   7.411  50.426  1.00  0.00     0.256 A 
HETATM   18  C19 UNL     1      27.001   7.268  48.878  1.00  0.00     0.009 A 
HETATM   19  O2  UNL     1      24.275   7.197  51.103  1.00  0.00    -0.267 OA
HETATM   20  N3  UNL     1      26.188   8.501  50.668  1.00  0.00    -0.322 N 
HETATM   21  C14 UNL     1      27.208   8.373  49.696  1.00  0.00     0.046 A 
HETATM   22  H19 UNL     1      26.091   9.234  51.408  1.00  0.00     0.169 HD
HETATM   23  C15 UNL     1      28.302   9.203  49.523  1.00  0.00     0.033 A 
HETATM   24  C16 UNL     1      29.187   8.899  48.507  1.00  0.00     0.044 A 
HETATM   25  C17 UNL     1      29.033   7.805  47.653  1.00  0.00     0.117 A 
HETATM   26  F1  UNL     1      29.914   7.528  46.665  1.00  0.00    -0.206 F 
HETATM   27  C18 UNL     1      27.916   6.999  47.867  1.00  0.00     0.057 A 
ENDBRANCH   1  15
TORSDOF 3
ENDMDL
