MODEL 1
REMARK VINA RESULT:      -7.9      0.000      0.000
REMARK  7 active torsions:
REMARK  status: ('A' for Active; 'I' for Inactive)
REMARK    1  A    between atoms: N1_1  and  C1_2 
REMARK    2  A    between atoms: C8_9  and  N2_10 
REMARK    3  A    between atoms: C11_13  and  C12_14 
REMARK    4  A    between atoms: C12_14  and  C13_16 
REMARK    5  A    between atoms: C14_17  and  C15_18 
REMARK    6  A    between atoms: C15_18  and  C16_19 
REMARK    7  A    between atoms: C17_20  and  O2_21 
ROOT
HETATM    1  N2  UNL     1      25.399   1.042  53.607  1.00  0.00    -0.380 N 
HETATM    2  C9  UNL     1      25.263   2.441  53.603  1.00  0.00     0.087 A 
HETATM    3  C10 UNL     1      24.248   3.026  52.988  1.00  0.00     0.032 A 
HETATM    4  C11 UNL     1      23.194   2.320  52.270  1.00  0.00     0.013 A 
HETATM    5  C18 UNL     1      23.346   1.005  52.289  1.00  0.00     0.008 A 
HETATM    6  C19 UNL     1      24.408   0.221  52.921  1.00  0.00     0.151 A 
ENDROOT
BRANCH   1   7
HETATM    7  C8  UNL     1      26.436   0.375  54.226  1.00  0.00     0.110 A 
HETATM    8  C2  UNL     1      27.348  -0.505  53.392  1.00  0.00     0.038 A 
HETATM    9  C1  UNL     1      28.099  -1.569  53.141  1.00  0.00     0.014 C 
HETATM   10  C3  UNL     1      27.270   0.863  52.643  1.00  0.00     0.021 A 
HETATM   11  C4  UNL     1      27.876   0.925  53.902  1.00  0.00     0.005 A 
HETATM   12  C7  UNL     1      29.603  -1.191  53.208  1.00  0.00     0.021 C 
HETATM   13  C6  UNL     1      30.114  -0.014  53.761  1.00  0.00    -0.024 C 
HETATM   14  C5  UNL     1      29.296   1.233  54.266  1.00  0.00     0.040 C 
BRANCH   9  15
HETATM   15  N1  UNL     1      27.489  -2.780  52.910  1.00  0.00    -0.402 N 
HETATM   16  H1  UNL     1      26.934  -2.994  52.044  1.00  0.00     0.156 HD
HETATM   17  H2  UNL     1      27.850  -3.126  53.831  1.00  0.00     0.156 HD
ENDBRANCH   9  15
ENDBRANCH   1   7
BRANCH   4  18
HETATM   18  C12 UNL     1      22.089   2.974  51.602  1.00  0.00     0.181 C 
HETATM   19  O1  UNL     1      21.334   3.693  52.329  1.00  0.00    -0.288 OA
BRANCH  18  20
HETATM   20  C13 UNL     1      21.870   2.809  50.189  1.00  0.00     0.052 C 
HETATM   21  C14 UNL     1      22.640   3.365  49.271  1.00  0.00    -0.019 C 
BRANCH  21  22
HETATM   22  C15 UNL     1      23.825   4.226  49.240  1.00  0.00     0.056 C 
BRANCH  22  23
HETATM   23  C16 UNL     1      25.070   3.380  49.317  1.00  0.00     0.001 C 
HETATM   24  C17 UNL     1      26.212   3.766  49.899  1.00  0.00     0.127 C 
BRANCH  24  25
HETATM   25  O2  UNL     1      26.062   5.036  50.404  1.00  0.00    -0.373 OA
HETATM   26  H17 UNL     1      25.839   5.172  51.395  1.00  0.00     0.216 HD
ENDBRANCH  24  25
ENDBRANCH  22  23
ENDBRANCH  21  22
ENDBRANCH  18  20
ENDBRANCH   4  18
TORSDOF 7
ENDMDL
MODEL 2
REMARK VINA RESULT:      -7.8      2.594      4.154
REMARK  7 active torsions:
REMARK  status: ('A' for Active; 'I' for Inactive)
REMARK    1  A    between atoms: N1_1  and  C1_2 
REMARK    2  A    between atoms: C8_9  and  N2_10 
REMARK    3  A    between atoms: C11_13  and  C12_14 
REMARK    4  A    between atoms: C12_14  and  C13_16 
REMARK    5  A    between atoms: C14_17  and  C15_18 
REMARK    6  A    between atoms: C15_18  and  C16_19 
REMARK    7  A    between atoms: C17_20  and  O2_21 
ROOT
HETATM    1  N2  UNL     1      25.318   0.570  53.774  1.00  0.00    -0.380 N 
HETATM    2  C9  UNL     1      25.115   1.932  53.490  1.00  0.00     0.087 A 
HETATM    3  C10 UNL     1      23.991   2.352  52.934  1.00  0.00     0.032 A 
HETATM    4  C11 UNL     1      22.875   1.491  52.563  1.00  0.00     0.013 A 
HETATM    5  C18 UNL     1      23.092   0.214  52.840  1.00  0.00     0.008 A 
HETATM    6  C19 UNL     1      24.276  -0.396  53.448  1.00  0.00     0.151 A 
ENDROOT
BRANCH   1   7
HETATM    7  C8  UNL     1      26.469   0.070  54.347  1.00  0.00     0.110 A 
HETATM    8  C2  UNL     1      27.436  -0.724  53.490  1.00  0.00     0.038 A 
HETATM    9  C1  UNL     1      28.304  -1.693  53.229  1.00  0.00     0.014 C 
HETATM   10  C3  UNL     1      27.135   0.587  52.696  1.00  0.00     0.021 A 
HETATM   11  C4  UNL     1      27.802   0.784  53.909  1.00  0.00     0.005 A 
HETATM   12  C7  UNL     1      29.746  -1.122  53.183  1.00  0.00     0.021 C 
HETATM   13  C6  UNL     1      30.131   0.134  53.657  1.00  0.00    -0.024 C 
HETATM   14  C5  UNL     1      29.190   1.288  54.168  1.00  0.00     0.040 C 
BRANCH   9  15
HETATM   15  N1  UNL     1      27.844  -2.981  53.085  1.00  0.00    -0.402 N 
HETATM   16  H1  UNL     1      27.209  -3.451  53.777  1.00  0.00     0.156 HD
HETATM   17  H2  UNL     1      28.376  -3.059  52.185  1.00  0.00     0.156 HD
ENDBRANCH   9  15
ENDBRANCH   1   7
BRANCH   4  18
HETATM   18  C12 UNL     1      21.650   1.965  51.955  1.00  0.00     0.181 C 
HETATM   19  O1  UNL     1      21.218   3.091  52.358  1.00  0.00    -0.288 OA
BRANCH  18  20
HETATM   20  C13 UNL     1      20.970   1.194  50.948  1.00  0.00     0.052 C 
HETATM   21  C14 UNL     1      19.976   0.368  51.222  1.00  0.00    -0.019 C 
BRANCH  21  22
HETATM   22  C15 UNL     1      19.242  -0.072  52.411  1.00  0.00     0.056 C 
BRANCH  22  23
HETATM   23  C16 UNL     1      17.852  -0.502  52.020  1.00  0.00     0.001 C 
HETATM   24  C17 UNL     1      16.994  -1.123  52.839  1.00  0.00     0.127 C 
BRANCH  24  25
HETATM   25  O2  UNL     1      17.581  -1.298  54.070  1.00  0.00    -0.373 OA
HETATM   26  H17 UNL     1      17.602  -2.228  54.502  1.00  0.00     0.216 HD
ENDBRANCH  24  25
ENDBRANCH  22  23
ENDBRANCH  21  22
ENDBRANCH  18  20
ENDBRANCH   4  18
TORSDOF 7
ENDMDL
MODEL 3
REMARK VINA RESULT:      -7.8      2.934      4.719
REMARK  7 active torsions:
REMARK  status: ('A' for Active; 'I' for Inactive)
REMARK    1  A    between atoms: N1_1  and  C1_2 
REMARK    2  A    between atoms: C8_9  and  N2_10 
REMARK    3  A    between atoms: C11_13  and  C12_14 
REMARK    4  A    between atoms: C12_14  and  C13_16 
REMARK    5  A    between atoms: C14_17  and  C15_18 
REMARK    6  A    between atoms: C15_18  and  C16_19 
REMARK    7  A    between atoms: C17_20  and  O2_21 
ROOT
HETATM    1  N2  UNL     1      25.302   0.360  52.537  1.00  0.00    -0.380 N 
HETATM    2  C9  UNL     1      24.529  -0.709  53.022  1.00  0.00     0.087 A 
HETATM    3  C10 UNL     1      23.263  -0.534  53.364  1.00  0.00     0.032 A 
HETATM    4  C11 UNL     1      22.548   0.734  53.284  1.00  0.00     0.013 A 
HETATM    5  C18 UNL     1      23.299   1.723  52.825  1.00  0.00     0.008 A 
HETATM    6  C19 UNL     1      24.703   1.684  52.411  1.00  0.00     0.151 A 
ENDROOT
BRANCH   1   7
HETATM    7  C8  UNL     1      26.627   0.243  52.169  1.00  0.00     0.110 A 
HETATM    8  C2  UNL     1      27.704   0.686  53.139  1.00  0.00     0.038 A 
HETATM    9  C1  UNL     1      28.859   1.236  53.494  1.00  0.00     0.014 C 
HETATM   10  C3  UNL     1      26.748  -0.242  53.955  1.00  0.00     0.021 A 
HETATM   11  C4  UNL     1      27.434  -0.883  52.919  1.00  0.00     0.005 A 
HETATM   12  C7  UNL     1      29.884   0.133  53.871  1.00  0.00     0.021 C 
HETATM   13  C6  UNL     1      29.748  -1.226  53.581  1.00  0.00    -0.024 C 
HETATM   14  C5  UNL     1      28.484  -1.950  52.982  1.00  0.00     0.040 C 
BRANCH   9  15
HETATM   15  N1  UNL     1      28.991   2.604  53.444  1.00  0.00    -0.402 N 
HETATM   16  H1  UNL     1      28.384   3.224  52.853  1.00  0.00     0.156 HD
HETATM   17  H2  UNL     1      29.783   2.541  54.127  1.00  0.00     0.156 HD
ENDBRANCH   9  15
ENDBRANCH   1   7
BRANCH   4  18
HETATM   18  C12 UNL     1      21.163   0.910  53.662  1.00  0.00     0.181 C 
HETATM   19  O1  UNL     1      20.787   0.322  54.725  1.00  0.00    -0.288 OA
BRANCH  18  20
HETATM   20  C13 UNL     1      20.269   1.712  52.868  1.00  0.00     0.052 C 
HETATM   21  C14 UNL     1      19.383   1.195  52.035  1.00  0.00    -0.019 C 
BRANCH  21  22
HETATM   22  C15 UNL     1      18.966  -0.142  51.606  1.00  0.00     0.056 C 
BRANCH  22  23
HETATM   23  C16 UNL     1      17.667  -0.510  52.276  1.00  0.00     0.001 C 
HETATM   24  C17 UNL     1      17.570  -1.292  53.358  1.00  0.00     0.127 C 
BRANCH  24  25
HETATM   25  O2  UNL     1      18.826  -1.695  53.747  1.00  0.00    -0.373 OA
HETATM   26  H17 UNL     1      19.113  -1.607  54.727  1.00  0.00     0.216 HD
ENDBRANCH  24  25
ENDBRANCH  22  23
ENDBRANCH  21  22
ENDBRANCH  18  20
ENDBRANCH   4  18
TORSDOF 7
ENDMDL
MODEL 4
REMARK VINA RESULT:      -7.6      2.850      6.962
REMARK  7 active torsions:
REMARK  status: ('A' for Active; 'I' for Inactive)
REMARK    1  A    between atoms: N1_1  and  C1_2 
REMARK    2  A    between atoms: C8_9  and  N2_10 
REMARK    3  A    between atoms: C11_13  and  C12_14 
REMARK    4  A    between atoms: C12_14  and  C13_16 
REMARK    5  A    between atoms: C14_17  and  C15_18 
REMARK    6  A    between atoms: C15_18  and  C16_19 
REMARK    7  A    between atoms: C17_20  and  O2_21 
ROOT
HETATM    1  N2  UNL     1      23.454   2.774  52.665  1.00  0.00    -0.380 N 
HETATM    2  C9  UNL     1      22.977   1.460  52.516  1.00  0.00     0.087 A 
HETATM    3  C10 UNL     1      23.725   0.421  52.848  1.00  0.00     0.032 A 
HETATM    4  C11 UNL     1      25.078   0.509  53.383  1.00  0.00     0.013 A 
HETATM    5  C18 UNL     1      25.504   1.756  53.512  1.00  0.00     0.008 A 
HETATM    6  C19 UNL     1      24.797   2.996  53.189  1.00  0.00     0.151 A 
ENDROOT
BRANCH   1   7
HETATM    7  C8  UNL     1      22.725   3.897  52.332  1.00  0.00     0.110 A 
HETATM    8  C2  UNL     1      23.387   4.993  51.519  1.00  0.00     0.038 A 
HETATM    9  C1  UNL     1      23.647   6.245  51.166  1.00  0.00     0.014 C 
HETATM   10  C3  UNL     1      23.679   3.660  50.760  1.00  0.00     0.021 A 
HETATM   11  C4  UNL     1      22.327   4.013  50.813  1.00  0.00     0.005 A 
HETATM   12  C7  UNL     1      22.929   6.585  49.832  1.00  0.00     0.021 C 
HETATM   13  C6  UNL     1      21.910   5.828  49.250  1.00  0.00    -0.024 C 
HETATM   14  C5  UNL     1      21.397   4.412  49.707  1.00  0.00     0.040 C 
BRANCH   9  15
HETATM   15  N1  UNL     1      24.427   7.024  51.988  1.00  0.00    -0.402 N 
HETATM   16  H1  UNL     1      25.389   6.748  52.307  1.00  0.00     0.156 HD
HETATM   17  H2  UNL     1      23.664   7.741  52.015  1.00  0.00     0.156 HD
ENDBRANCH   9  15
ENDBRANCH   1   7
BRANCH   4  18
HETATM   18  C12 UNL     1      25.885  -0.638  53.742  1.00  0.00     0.181 C 
HETATM   19  O1  UNL     1      25.904  -0.953  54.974  1.00  0.00    -0.288 OA
BRANCH  18  20
HETATM   20  C13 UNL     1      26.619  -1.373  52.746  1.00  0.00     0.052 C 
HETATM   21  C14 UNL     1      27.929  -1.538  52.793  1.00  0.00    -0.019 C 
BRANCH  21  22
HETATM   22  C15 UNL     1      29.031  -1.146  53.675  1.00  0.00     0.056 C 
BRANCH  22  23
HETATM   23  C16 UNL     1      29.425   0.281  53.394  1.00  0.00     0.001 C 
HETATM   24  C17 UNL     1      29.165   1.311  54.209  1.00  0.00     0.127 C 
BRANCH  24  25
HETATM   25  O2  UNL     1      28.494   0.859  55.319  1.00  0.00    -0.373 OA
HETATM   26  H17 UNL     1      28.583   1.357  56.212  1.00  0.00     0.216 HD
ENDBRANCH  24  25
ENDBRANCH  22  23
ENDBRANCH  21  22
ENDBRANCH  18  20
ENDBRANCH   4  18
TORSDOF 7
ENDMDL
MODEL 5
REMARK VINA RESULT:      -7.4      1.627      2.786
REMARK  7 active torsions:
REMARK  status: ('A' for Active; 'I' for Inactive)
REMARK    1  A    between atoms: N1_1  and  C1_2 
REMARK    2  A    between atoms: C8_9  and  N2_10 
REMARK    3  A    between atoms: C11_13  and  C12_14 
REMARK    4  A    between atoms: C12_14  and  C13_16 
REMARK    5  A    between atoms: C14_17  and  C15_18 
REMARK    6  A    between atoms: C15_18  and  C16_19 
REMARK    7  A    between atoms: C17_20  and  O2_21 
ROOT
HETATM    1  N2  UNL     1      25.429   1.031  53.625  1.00  0.00    -0.380 N 
HETATM    2  C9  UNL     1      25.305   2.431  53.624  1.00  0.00     0.087 A 
HETATM    3  C10 UNL     1      24.291   3.026  53.018  1.00  0.00     0.032 A 
HETATM    4  C11 UNL     1      23.225   2.329  52.307  1.00  0.00     0.013 A 
HETATM    5  C18 UNL     1      23.366   1.013  52.323  1.00  0.00     0.008 A 
HETATM    6  C19 UNL     1      24.427   0.219  52.945  1.00  0.00     0.151 A 
ENDROOT
BRANCH   1   7
HETATM    7  C8  UNL     1      26.465   0.354  54.234  1.00  0.00     0.110 A 
HETATM    8  C2  UNL     1      27.361  -0.535  53.393  1.00  0.00     0.038 A 
HETATM    9  C1  UNL     1      28.101  -1.606  53.135  1.00  0.00     0.014 C 
HETATM   10  C3  UNL     1      27.290   0.833  52.644  1.00  0.00     0.021 A 
HETATM   11  C4  UNL     1      27.908   0.890  53.897  1.00  0.00     0.005 A 
HETATM   12  C7  UNL     1      29.609  -1.242  53.189  1.00  0.00     0.021 C 
HETATM   13  C6  UNL     1      30.135  -0.070  53.737  1.00  0.00    -0.024 C 
HETATM   14  C5  UNL     1      29.334   1.184  54.250  1.00  0.00     0.040 C 
BRANCH   9  15
HETATM   15  N1  UNL     1      27.477  -2.811  52.910  1.00  0.00    -0.402 N 
HETATM   16  H1  UNL     1      27.774  -3.487  52.164  1.00  0.00     0.156 HD
HETATM   17  H2  UNL     1      26.811  -2.600  53.691  1.00  0.00     0.156 HD
ENDBRANCH   9  15
ENDBRANCH   1   7
BRANCH   4  18
HETATM   18  C12 UNL     1      22.121   2.994  51.649  1.00  0.00     0.181 C 
HETATM   19  O1  UNL     1      21.144   3.337  52.388  1.00  0.00    -0.288 OA
BRANCH  18  20
HETATM   20  C13 UNL     1      22.141   3.247  50.232  1.00  0.00     0.052 C 
HETATM   21  C14 UNL     1      21.673   2.392  49.340  1.00  0.00    -0.019 C 
BRANCH  21  22
HETATM   22  C15 UNL     1      21.046   1.068  49.347  1.00  0.00     0.056 C 
BRANCH  22  23
HETATM   23  C16 UNL     1      19.592   1.196  49.723  1.00  0.00     0.001 C 
HETATM   24  C17 UNL     1      19.058   0.715  50.852  1.00  0.00     0.127 C 
BRANCH  24  25
HETATM   25  O2  UNL     1      20.037   0.099  51.595  1.00  0.00    -0.373 OA
HETATM   26  H17 UNL     1      20.024  -0.918  51.721  1.00  0.00     0.216 HD
ENDBRANCH  24  25
ENDBRANCH  22  23
ENDBRANCH  21  22
ENDBRANCH  18  20
ENDBRANCH   4  18
TORSDOF 7
ENDMDL
MODEL 6
REMARK VINA RESULT:      -7.0      1.915      2.909
REMARK  7 active torsions:
REMARK  status: ('A' for Active; 'I' for Inactive)
REMARK    1  A    between atoms: N1_1  and  C1_2 
REMARK    2  A    between atoms: C8_9  and  N2_10 
REMARK    3  A    between atoms: C11_13  and  C12_14 
REMARK    4  A    between atoms: C12_14  and  C13_16 
REMARK    5  A    between atoms: C14_17  and  C15_18 
REMARK    6  A    between atoms: C15_18  and  C16_19 
REMARK    7  A    between atoms: C17_20  and  O2_21 
ROOT
HETATM    1  N2  UNL     1      24.898   2.362  52.202  1.00  0.00    -0.380 N 
HETATM    2  C9  UNL     1      25.212   3.185  51.106  1.00  0.00     0.087 A 
HETATM    3  C10 UNL     1      24.460   3.186  50.017  1.00  0.00     0.032 A 
HETATM    4  C11 UNL     1      23.267   2.369  49.830  1.00  0.00     0.013 A 
HETATM    5  C18 UNL     1      22.995   1.604  50.876  1.00  0.00     0.008 A 
HETATM    6  C19 UNL     1      23.728   1.493  52.138  1.00  0.00     0.151 A 
ENDROOT
BRANCH   1   7
HETATM    7  C8  UNL     1      25.644   2.312  53.361  1.00  0.00     0.110 A 
HETATM    8  C2  UNL     1      26.277   0.997  53.776  1.00  0.00     0.038 A 
HETATM    9  C1  UNL     1      26.671   0.064  54.632  1.00  0.00     0.014 C 
HETATM   10  C3  UNL     1      26.665   1.206  52.277  1.00  0.00     0.021 A 
HETATM   11  C4  UNL     1      27.198   2.157  53.153  1.00  0.00     0.005 A 
HETATM   12  C7  UNL     1      28.213   0.112  54.805  1.00  0.00     0.021 C 
HETATM   13  C6  UNL     1      29.037   1.163  54.394  1.00  0.00    -0.024 C 
HETATM   14  C5  UNL     1      28.624   2.415  53.534  1.00  0.00     0.040 C 
BRANCH   9  15
HETATM   15  N1  UNL     1      25.726  -0.735  55.234  1.00  0.00    -0.402 N 
HETATM   16  H1  UNL     1      25.126  -1.418  54.710  1.00  0.00     0.156 HD
HETATM   17  H2  UNL     1      25.976  -0.313  56.160  1.00  0.00     0.156 HD
ENDBRANCH   9  15
ENDBRANCH   1   7
BRANCH   4  18
HETATM   18  C12 UNL     1      22.455   2.382  48.633  1.00  0.00     0.181 C 
HETATM   19  O1  UNL     1      21.858   1.297  48.342  1.00  0.00    -0.288 OA
BRANCH  18  20
HETATM   20  C13 UNL     1      22.337   3.567  47.825  1.00  0.00     0.052 C 
HETATM   21  C14 UNL     1      21.654   4.632  48.204  1.00  0.00    -0.019 C 
BRANCH  21  22
HETATM   22  C15 UNL     1      20.861   5.043  49.365  1.00  0.00     0.056 C 
BRANCH  22  23
HETATM   23  C16 UNL     1      21.747   5.736  50.367  1.00  0.00     0.001 C 
HETATM   24  C17 UNL     1      21.864   5.373  51.651  1.00  0.00     0.127 C 
BRANCH  24  25
HETATM   25  O2  UNL     1      21.058   4.287  51.895  1.00  0.00    -0.373 OA
HETATM   26  H17 UNL     1      20.424   4.288  52.701  1.00  0.00     0.216 HD
ENDBRANCH  24  25
ENDBRANCH  22  23
ENDBRANCH  21  22
ENDBRANCH  18  20
ENDBRANCH   4  18
TORSDOF 7
ENDMDL
MODEL 7
REMARK VINA RESULT:      -7.0      1.443      2.133
REMARK  7 active torsions:
REMARK  status: ('A' for Active; 'I' for Inactive)
REMARK    1  A    between atoms: N1_1  and  C1_2 
REMARK    2  A    between atoms: C8_9  and  N2_10 
REMARK    3  A    between atoms: C11_13  and  C12_14 
REMARK    4  A    between atoms: C12_14  and  C13_16 
REMARK    5  A    between atoms: C14_17  and  C15_18 
REMARK    6  A    between atoms: C15_18  and  C16_19 
REMARK    7  A    between atoms: C17_20  and  O2_21 
ROOT
HETATM    1  N2  UNL     1      25.391   0.897  53.649  1.00  0.00    -0.380 N 
HETATM    2  C9  UNL     1      24.334   0.219  53.016  1.00  0.00     0.087 A 
HETATM    3  C10 UNL     1      23.332   0.883  52.463  1.00  0.00     0.032 A 
HETATM    4  C11 UNL     1      23.208   2.336  52.445  1.00  0.00     0.013 A 
HETATM    5  C18 UNL     1      24.216   2.949  53.047  1.00  0.00     0.008 A 
HETATM    6  C19 UNL     1      25.383   2.354  53.700  1.00  0.00     0.151 A 
ENDROOT
BRANCH   1   7
HETATM    7  C8  UNL     1      26.459   0.261  54.247  1.00  0.00     0.110 A 
HETATM    8  C2  UNL     1      27.373  -0.603  53.400  1.00  0.00     0.038 A 
HETATM    9  C1  UNL     1      28.146  -1.649  53.138  1.00  0.00     0.014 C 
HETATM   10  C3  UNL     1      27.242   0.757  52.641  1.00  0.00     0.021 A 
HETATM   11  C4  UNL     1      27.876   0.845  53.884  1.00  0.00     0.005 A 
HETATM   12  C7  UNL     1      29.641  -1.232  53.167  1.00  0.00     0.021 C 
HETATM   13  C6  UNL     1      30.134  -0.038  53.698  1.00  0.00    -0.024 C 
HETATM   14  C5  UNL     1      29.297   1.192  54.213  1.00  0.00     0.040 C 
BRANCH   9  15
HETATM   15  N1  UNL     1      27.562  -2.877  52.932  1.00  0.00    -0.402 N 
HETATM   16  H1  UNL     1      27.020  -3.123  52.067  1.00  0.00     0.156 HD
HETATM   17  H2  UNL     1      27.919  -3.192  53.865  1.00  0.00     0.156 HD
ENDBRANCH   9  15
ENDBRANCH   1   7
BRANCH   4  18
HETATM   18  C12 UNL     1      22.107   3.049  51.836  1.00  0.00     0.181 C 
HETATM   19  O1  UNL     1      21.929   4.249  52.216  1.00  0.00    -0.288 OA
BRANCH  18  20
HETATM   20  C13 UNL     1      21.265   2.420  50.852  1.00  0.00     0.052 C 
HETATM   21  C14 UNL     1      21.523   2.451  49.557  1.00  0.00    -0.019 C 
BRANCH  21  22
HETATM   22  C15 UNL     1      22.555   3.011  48.680  1.00  0.00     0.056 C 
BRANCH  22  23
HETATM   23  C16 UNL     1      22.263   2.640  47.249  1.00  0.00     0.001 C 
HETATM   24  C17 UNL     1      21.932   3.518  46.294  1.00  0.00     0.127 C 
BRANCH  24  25
HETATM   25  O2  UNL     1      21.905   4.785  46.825  1.00  0.00    -0.373 OA
HETATM   26  H17 UNL     1      22.687   5.119  47.398  1.00  0.00     0.216 HD
ENDBRANCH  24  25
ENDBRANCH  22  23
ENDBRANCH  21  22
ENDBRANCH  18  20
ENDBRANCH   4  18
TORSDOF 7
ENDMDL
MODEL 8
REMARK VINA RESULT:      -6.9      2.771      6.766
REMARK  7 active torsions:
REMARK  status: ('A' for Active; 'I' for Inactive)
REMARK    1  A    between atoms: N1_1  and  C1_2 
REMARK    2  A    between atoms: C8_9  and  N2_10 
REMARK    3  A    between atoms: C11_13  and  C12_14 
REMARK    4  A    between atoms: C12_14  and  C13_16 
REMARK    5  A    between atoms: C14_17  and  C15_18 
REMARK    6  A    between atoms: C15_18  and  C16_19 
REMARK    7  A    between atoms: C17_20  and  O2_21 
ROOT
HETATM    1  N2  UNL     1      24.601   3.874  51.386  1.00  0.00    -0.380 N 
HETATM    2  C9  UNL     1      23.646   3.218  52.182  1.00  0.00     0.087 A 
HETATM    3  C10 UNL     1      23.849   1.983  52.611  1.00  0.00     0.032 A 
HETATM    4  C11 UNL     1      25.035   1.187  52.321  1.00  0.00     0.013 A 
HETATM    5  C18 UNL     1      25.917   1.827  51.569  1.00  0.00     0.008 A 
HETATM    6  C19 UNL     1      25.833   3.183  51.023  1.00  0.00     0.151 A 
ENDROOT
BRANCH   1   7
HETATM    7  C8  UNL     1      24.445   5.157  50.904  1.00  0.00     0.110 A 
HETATM    8  C2  UNL     1      25.210   5.577  49.663  1.00  0.00     0.038 A 
HETATM    9  C1  UNL     1      25.897   6.410  48.892  1.00  0.00     0.014 C 
HETATM   10  C3  UNL     1      24.520   4.223  49.303  1.00  0.00     0.021 A 
HETATM   11  C4  UNL     1      23.635   5.275  49.558  1.00  0.00     0.005 A 
HETATM   12  C7  UNL     1      25.009   6.915  47.724  1.00  0.00     0.021 C 
HETATM   13  C6  UNL     1      23.620   6.788  47.655  1.00  0.00    -0.024 C 
HETATM   14  C5  UNL     1      22.689   5.976  48.631  1.00  0.00     0.040 C 
BRANCH   9  15
HETATM   15  N1  UNL     1      27.194   6.720  49.231  1.00  0.00    -0.402 N 
HETATM   16  H1  UNL     1      27.907   7.062  48.541  1.00  0.00     0.156 HD
HETATM   17  H2  UNL     1      26.984   6.464  50.226  1.00  0.00     0.156 HD
ENDBRANCH   9  15
ENDBRANCH   1   7
BRANCH   4  18
HETATM   18  C12 UNL     1      25.243  -0.163  52.798  1.00  0.00     0.181 C 
HETATM   19  O1  UNL     1      24.293  -0.680  53.467  1.00  0.00    -0.288 OA
BRANCH  18  20
HETATM   20  C13 UNL     1      26.465  -0.872  52.521  1.00  0.00     0.052 C 
HETATM   21  C14 UNL     1      27.578  -0.684  53.207  1.00  0.00    -0.019 C 
BRANCH  21  22
HETATM   22  C15 UNL     1      28.022   0.146  54.329  1.00  0.00     0.056 C 
BRANCH  22  23
HETATM   23  C16 UNL     1      29.101   1.091  53.868  1.00  0.00     0.001 C 
HETATM   24  C17 UNL     1      28.960   2.421  53.794  1.00  0.00     0.127 C 
BRANCH  24  25
HETATM   25  O2  UNL     1      27.694   2.770  54.200  1.00  0.00    -0.373 OA
HETATM   26  H17 UNL     1      27.274   2.320  55.020  1.00  0.00     0.216 HD
ENDBRANCH  24  25
ENDBRANCH  22  23
ENDBRANCH  21  22
ENDBRANCH  18  20
ENDBRANCH   4  18
TORSDOF 7
ENDMDL
MODEL 9
REMARK VINA RESULT:      -6.7      2.966      4.554
REMARK  7 active torsions:
REMARK  status: ('A' for Active; 'I' for Inactive)
REMARK    1  A    between atoms: N1_1  and  C1_2 
REMARK    2  A    between atoms: C8_9  and  N2_10 
REMARK    3  A    between atoms: C11_13  and  C12_14 
REMARK    4  A    between atoms: C12_14  and  C13_16 
REMARK    5  A    between atoms: C14_17  and  C15_18 
REMARK    6  A    between atoms: C15_18  and  C16_19 
REMARK    7  A    between atoms: C17_20  and  O2_21 
ROOT
HETATM    1  N2  UNL     1      24.365   2.002  52.405  1.00  0.00    -0.380 N 
HETATM    2  C9  UNL     1      24.449   2.766  51.228  1.00  0.00     0.087 A 
HETATM    3  C10 UNL     1      23.560   2.624  50.258  1.00  0.00     0.032 A 
HETATM    4  C11 UNL     1      22.436   1.695  50.291  1.00  0.00     0.013 A 
HETATM    5  C18 UNL     1      22.382   0.988  51.409  1.00  0.00     0.008 A 
HETATM    6  C19 UNL     1      23.286   1.035  52.560  1.00  0.00     0.151 A 
ENDROOT
BRANCH   1   7
HETATM    7  C8  UNL     1      25.263   2.102  53.448  1.00  0.00     0.110 A 
HETATM    8  C2  UNL     1      26.010   0.861  53.899  1.00  0.00     0.038 A 
HETATM    9  C1  UNL     1      26.563   0.038  54.781  1.00  0.00     0.014 C 
HETATM   10  C3  UNL     1      26.182   0.925  52.348  1.00  0.00     0.021 A 
HETATM   11  C4  UNL     1      26.780   1.981  53.042  1.00  0.00     0.005 A 
HETATM   12  C7  UNL     1      28.109   0.160  54.732  1.00  0.00     0.021 C 
HETATM   13  C6  UNL     1      28.817   1.190  54.107  1.00  0.00    -0.024 C 
HETATM   14  C5  UNL     1      28.230   2.329  53.192  1.00  0.00     0.040 C 
BRANCH   9  15
HETATM   15  N1  UNL     1      25.749  -0.725  55.585  1.00  0.00    -0.402 N 
HETATM   16  H1  UNL     1      24.704  -0.628  55.611  1.00  0.00     0.156 HD
HETATM   17  H2  UNL     1      26.596  -1.220  55.955  1.00  0.00     0.156 HD
ENDBRANCH   9  15
ENDBRANCH   1   7
BRANCH   4  18
HETATM   18  C12 UNL     1      21.472   1.550  49.222  1.00  0.00     0.181 C 
HETATM   19  O1  UNL     1      21.795   0.773  48.270  1.00  0.00    -0.288 OA
BRANCH  18  20
HETATM   20  C13 UNL     1      20.217   2.255  49.250  1.00  0.00     0.052 C 
HETATM   21  C14 UNL     1      19.103   1.725  49.724  1.00  0.00    -0.019 C 
BRANCH  21  22
HETATM   22  C15 UNL     1      18.687   0.452  50.318  1.00  0.00     0.056 C 
BRANCH  22  23
HETATM   23  C16 UNL     1      17.250   0.542  50.760  1.00  0.00     0.001 C 
HETATM   24  C17 UNL     1      16.221  -0.006  50.102  1.00  0.00     0.127 C 
BRANCH  24  25
HETATM   25  O2  UNL     1      16.685  -0.651  48.981  1.00  0.00    -0.373 OA
HETATM   26  H17 UNL     1      17.548  -0.335  48.526  1.00  0.00     0.216 HD
ENDBRANCH  24  25
ENDBRANCH  22  23
ENDBRANCH  21  22
ENDBRANCH  18  20
ENDBRANCH   4  18
TORSDOF 7
ENDMDL
