MODEL 1
REMARK VINA RESULT:      -8.0      0.000      0.000
REMARK  6 active torsions:
REMARK  status: ('A' for Active; 'I' for Inactive)
REMARK    1  A    between atoms: C3_5  and  C4_6 
REMARK    2  A    between atoms: C7_9  and  O1_10 
REMARK    3  A    between atoms: O1_10  and  C8_11 
REMARK    4  A    between atoms: C8_11  and  C9_12 
REMARK    5  A    between atoms: C9_12  and  O3_14 
REMARK    6  A    between atoms: C10_15  and  O4_16 
ROOT
HETATM    1  C1  UNL     1      23.518   4.639  52.167  1.00  0.00     0.056 C 
HETATM    2  S1  UNL     1      24.103   3.352  51.258  1.00  0.00    -0.143 SA
HETATM    3  C2  UNL     1      23.925   3.898  49.805  1.00  0.00     0.128 C 
HETATM    4  N1  UNL     1      24.902   4.792  49.216  1.00  0.00    -0.217 NA
HETATM    5  C3  UNL     1      26.169   4.629  49.520  1.00  0.00     0.136 C 
HETATM    6  N2  UNL     1      26.548   3.572  50.429  1.00  0.00    -0.366 N 
HETATM    7  C13 UNL     1      25.776   3.067  51.576  1.00  0.00     0.191 C 
HETATM    8  S2  UNL     1      22.289   3.135  49.165  1.00  0.00    -0.063 SA
HETATM    9  C14 UNL     1      22.153   1.826  50.402  1.00  0.00     0.023 A 
HETATM   10  C15 UNL     1      21.268   0.768  50.403  1.00  0.00     0.021 A 
HETATM   11  C16 UNL     1      21.255  -0.179  51.406  1.00  0.00     0.008 A 
HETATM   12  C17 UNL     1      22.172  -0.036  52.428  1.00  0.00    -0.061 A 
HETATM   13  C18 UNL     1      22.192  -1.045  53.538  1.00  0.00     0.048 C 
HETATM   14  C19 UNL     1      23.047   1.029  52.404  1.00  0.00     0.026 A 
HETATM   15  C20 UNL     1      23.079   1.988  51.412  1.00  0.00     0.011 A 
HETATM   16  H12 UNL     1      27.489   3.147  50.204  1.00  0.00     0.162 HD
ENDROOT
BRANCH   5  17
HETATM   17  C4  UNL     1      27.112   5.551  48.903  1.00  0.00     0.012 A 
HETATM   18  C5  UNL     1      28.376   5.142  48.502  1.00  0.00     0.018 A 
HETATM   19  C6  UNL     1      29.263   6.023  47.918  1.00  0.00     0.040 A 
HETATM   20  C7  UNL     1      28.939   7.347  47.704  1.00  0.00     0.102 A 
HETATM   21  C10 UNL     1      27.680   7.728  48.110  1.00  0.00     0.102 A 
HETATM   22  C12 UNL     1      26.779   6.863  48.696  1.00  0.00     0.055 A 
BRANCH  20  23
HETATM   23  O1  UNL     1      29.761   8.305  47.126  1.00  0.00    -0.338 OA
BRANCH  23  24
HETATM   24  C8  UNL     1      31.048   8.609  47.609  1.00  0.00     0.285 C 
BRANCH  24  25
HETATM   25  C9  UNL     1      30.920   9.030  49.026  1.00  0.00     0.164 C 
HETATM   26  O2  UNL     1      31.718   8.343  49.727  1.00  0.00    -0.648 OA
BRANCH  25  27
HETATM   27  O3  UNL     1      30.437   9.751  50.094  1.00  0.00    -0.775 OA
HETATM   28  H7  UNL     1      30.078  10.694  50.024  1.00  0.00     0.167 HD
ENDBRANCH  25  27
ENDBRANCH  24  25
ENDBRANCH  23  24
ENDBRANCH  20  23
BRANCH  21  29
HETATM   29  O4  UNL     1      27.284   9.044  47.928  1.00  0.00    -0.353 OA
HETATM   30  C11 UNL     1      27.128   9.934  49.014  1.00  0.00     0.210 C 
ENDBRANCH  21  29
ENDBRANCH   5  17
TORSDOF 6
ENDMDL
MODEL 2
REMARK VINA RESULT:      -7.4      1.517      2.847
REMARK  6 active torsions:
REMARK  status: ('A' for Active; 'I' for Inactive)
REMARK    1  A    between atoms: C3_5  and  C4_6 
REMARK    2  A    between atoms: C7_9  and  O1_10 
REMARK    3  A    between atoms: O1_10  and  C8_11 
REMARK    4  A    between atoms: C8_11  and  C9_12 
REMARK    5  A    between atoms: C9_12  and  O3_14 
REMARK    6  A    between atoms: C10_15  and  O4_16 
ROOT
HETATM    1  C1  UNL     1      23.152   2.368  49.577  1.00  0.00     0.056 C 
HETATM    2  S1  UNL     1      23.720   2.845  51.085  1.00  0.00    -0.143 SA
HETATM    3  C2  UNL     1      25.249   2.999  50.801  1.00  0.00     0.128 C 
HETATM    4  N1  UNL     1      25.780   4.203  50.192  1.00  0.00    -0.217 NA
HETATM    5  C3  UNL     1      25.222   5.355  50.485  1.00  0.00     0.136 C 
HETATM    6  N2  UNL     1      24.102   5.388  51.397  1.00  0.00    -0.366 N 
HETATM    7  C13 UNL     1      23.055   4.367  51.554  1.00  0.00     0.191 C 
HETATM    8  S2  UNL     1      26.053   1.373  51.414  1.00  0.00    -0.063 SA
HETATM    9  C14 UNL     1      24.672   0.809  52.432  1.00  0.00     0.023 A 
HETATM   10  C15 UNL     1      24.668  -0.242  53.325  1.00  0.00     0.021 A 
HETATM   11  C16 UNL     1      23.548  -0.584  54.054  1.00  0.00     0.008 A 
HETATM   12  C17 UNL     1      22.408   0.172  53.862  1.00  0.00    -0.061 A 
HETATM   13  C18 UNL     1      21.169  -0.167  54.635  1.00  0.00     0.048 C 
HETATM   14  C19 UNL     1      22.438   1.218  52.965  1.00  0.00     0.026 A 
HETATM   15  C20 UNL     1      23.545   1.578  52.225  1.00  0.00     0.011 A 
HETATM   16  H12 UNL     1      24.078   6.260  51.994  1.00  0.00     0.162 HD
ENDROOT
BRANCH   5  17
HETATM   17  C4  UNL     1      25.791   6.534  49.848  1.00  0.00     0.012 A 
HETATM   18  C5  UNL     1      25.409   7.817  50.215  1.00  0.00     0.018 A 
HETATM   19  C6  UNL     1      25.953   8.930  49.607  1.00  0.00     0.040 A 
HETATM   20  C7  UNL     1      26.900   8.822  48.607  1.00  0.00     0.102 A 
HETATM   21  C10 UNL     1      27.262   7.540  48.262  1.00  0.00     0.102 A 
HETATM   22  C12 UNL     1      26.729   6.415  48.858  1.00  0.00     0.055 A 
BRANCH  20  23
HETATM   23  O1  UNL     1      27.503   9.879  47.939  1.00  0.00    -0.338 OA
BRANCH  23  24
HETATM   24  C8  UNL     1      28.108  10.964  48.601  1.00  0.00     0.285 C 
BRANCH  24  25
HETATM   25  C9  UNL     1      29.365  10.482  49.225  1.00  0.00     0.164 C 
HETATM   26  O2  UNL     1      30.338  11.103  48.708  1.00  0.00    -0.648 OA
BRANCH  25  27
HETATM   27  O3  UNL     1      30.153   9.732  50.066  1.00  0.00    -0.775 OA
HETATM   28  H7  UNL     1      30.926   9.158  49.756  1.00  0.00     0.167 HD
ENDBRANCH  25  27
ENDBRANCH  24  25
ENDBRANCH  23  24
ENDBRANCH  20  23
BRANCH  21  29
HETATM   29  O4  UNL     1      28.208   7.354  47.266  1.00  0.00    -0.353 OA
HETATM   30  C11 UNL     1      29.454   6.740  47.525  1.00  0.00     0.210 C 
ENDBRANCH  21  29
ENDBRANCH   5  17
TORSDOF 6
ENDMDL
MODEL 3
REMARK VINA RESULT:      -7.2      4.638      9.706
REMARK  6 active torsions:
REMARK  status: ('A' for Active; 'I' for Inactive)
REMARK    1  A    between atoms: C3_5  and  C4_6 
REMARK    2  A    between atoms: C7_9  and  O1_10 
REMARK    3  A    between atoms: O1_10  and  C8_11 
REMARK    4  A    between atoms: C8_11  and  C9_12 
REMARK    5  A    between atoms: C9_12  and  O3_14 
REMARK    6  A    between atoms: C10_15  and  O4_16 
ROOT
HETATM    1  C1  UNL     1      31.602   7.245  49.355  1.00  0.00     0.056 C 
HETATM    2  S1  UNL     1      30.984   7.146  47.795  1.00  0.00    -0.143 SA
HETATM    3  C2  UNL     1      30.615   5.630  47.707  1.00  0.00     0.128 C 
HETATM    4  N1  UNL     1      29.373   5.128  48.260  1.00  0.00    -0.217 NA
HETATM    5  C3  UNL     1      28.305   5.890  48.203  1.00  0.00     0.136 C 
HETATM    6  N2  UNL     1      28.401   7.199  47.598  1.00  0.00    -0.366 N 
HETATM    7  C13 UNL     1      29.558   8.106  47.623  1.00  0.00     0.191 C 
HETATM    8  S2  UNL     1      32.077   4.798  46.792  1.00  0.00    -0.063 SA
HETATM    9  C14 UNL     1      32.796   6.304  46.102  1.00  0.00     0.023 A 
HETATM   10  C15 UNL     1      33.799   6.394  45.159  1.00  0.00     0.021 A 
HETATM   11  C16 UNL     1      34.273   7.606  44.702  1.00  0.00     0.008 A 
HETATM   12  C17 UNL     1      33.703   8.750  45.225  1.00  0.00    -0.061 A 
HETATM   13  C18 UNL     1      34.190  10.088  44.755  1.00  0.00     0.048 C 
HETATM   14  C19 UNL     1      32.703   8.634  46.166  1.00  0.00     0.026 A 
HETATM   15  C20 UNL     1      32.213   7.434  46.638  1.00  0.00     0.011 A 
HETATM   16  H12 UNL     1      27.518   7.490  47.095  1.00  0.00     0.162 HD
ENDROOT
BRANCH   5  17
HETATM   17  C4  UNL     1      27.082   5.341  48.770  1.00  0.00     0.012 A 
HETATM   18  C5  UNL     1      25.863   5.993  48.645  1.00  0.00     0.018 A 
HETATM   19  C6  UNL     1      24.708   5.465  49.186  1.00  0.00     0.040 A 
HETATM   20  C7  UNL     1      24.708   4.270  49.876  1.00  0.00     0.102 A 
HETATM   21  C10 UNL     1      25.928   3.643  49.986  1.00  0.00     0.102 A 
HETATM   22  C12 UNL     1      27.094   4.154  49.453  1.00  0.00     0.055 A 
BRANCH  20  23
HETATM   23  O1  UNL     1      23.602   3.662  50.453  1.00  0.00    -0.338 OA
BRANCH  23  24
HETATM   24  C8  UNL     1      22.719   4.332  51.320  1.00  0.00     0.285 C 
BRANCH  24  25
HETATM   25  C9  UNL     1      23.438   4.607  52.588  1.00  0.00     0.164 C 
HETATM   26  O2  UNL     1      23.826   3.510  53.082  1.00  0.00    -0.648 OA
BRANCH  25  27
HETATM   27  O3  UNL     1      23.965   5.371  53.604  1.00  0.00    -0.775 OA
HETATM   28  H7  UNL     1      23.711   6.335  53.778  1.00  0.00     0.167 HD
ENDBRANCH  25  27
ENDBRANCH  24  25
ENDBRANCH  23  24
ENDBRANCH  20  23
BRANCH  21  29
HETATM   29  O4  UNL     1      26.007   2.437  50.666  1.00  0.00    -0.353 OA
HETATM   30  C11 UNL     1      26.842   2.268  51.793  1.00  0.00     0.210 C 
ENDBRANCH  21  29
ENDBRANCH   5  17
TORSDOF 6
ENDMDL
MODEL 4
REMARK VINA RESULT:      -7.2      5.253      9.569
REMARK  6 active torsions:
REMARK  status: ('A' for Active; 'I' for Inactive)
REMARK    1  A    between atoms: C3_5  and  C4_6 
REMARK    2  A    between atoms: C7_9  and  O1_10 
REMARK    3  A    between atoms: O1_10  and  C8_11 
REMARK    4  A    between atoms: C8_11  and  C9_12 
REMARK    5  A    between atoms: C9_12  and  O3_14 
REMARK    6  A    between atoms: C10_15  and  O4_16 
ROOT
HETATM    1  C1  UNL     1      25.408   7.728  50.107  1.00  0.00     0.056 C 
HETATM    2  S1  UNL     1      25.428   6.790  48.711  1.00  0.00    -0.143 SA
HETATM    3  C2  UNL     1      26.347   5.606  49.152  1.00  0.00     0.128 C 
HETATM    4  N1  UNL     1      25.821   4.496  49.922  1.00  0.00    -0.217 NA
HETATM    5  C3  UNL     1      24.592   4.095  49.691  1.00  0.00     0.136 C 
HETATM    6  N2  UNL     1      23.806   4.770  48.684  1.00  0.00    -0.366 N 
HETATM    7  C13 UNL     1      23.852   6.197  48.331  1.00  0.00     0.191 C 
HETATM    8  S2  UNL     1      28.086   6.020  48.464  1.00  0.00    -0.063 SA
HETATM    9  C14 UNL     1      27.562   7.269  47.270  1.00  0.00     0.023 A 
HETATM   10  C15 UNL     1      28.329   7.854  46.284  1.00  0.00     0.021 A 
HETATM   11  C16 UNL     1      27.821   8.805  45.423  1.00  0.00     0.008 A 
HETATM   12  C17 UNL     1      26.496   9.160  45.578  1.00  0.00    -0.061 A 
HETATM   13  C18 UNL     1      25.904  10.190  44.662  1.00  0.00     0.048 C 
HETATM   14  C19 UNL     1      25.750   8.561  46.571  1.00  0.00     0.026 A 
HETATM   15  C20 UNL     1      26.236   7.609  47.443  1.00  0.00     0.011 A 
HETATM   16  H12 UNL     1      23.141   4.125  48.174  1.00  0.00     0.162 HD
ENDROOT
BRANCH   5  17
HETATM   17  C4  UNL     1      24.110   2.977  50.489  1.00  0.00     0.012 A 
HETATM   18  C5  UNL     1      22.816   2.492  50.359  1.00  0.00     0.018 A 
HETATM   19  C6  UNL     1      22.367   1.432  51.119  1.00  0.00     0.040 A 
HETATM   20  C7  UNL     1      23.178   0.805  52.043  1.00  0.00     0.102 A 
HETATM   21  C10 UNL     1      24.456   1.304  52.154  1.00  0.00     0.102 A 
HETATM   22  C12 UNL     1      24.924   2.363  51.403  1.00  0.00     0.055 A 
BRANCH  20  23
HETATM   23  O1  UNL     1      22.818  -0.266  52.851  1.00  0.00    -0.338 OA
BRANCH  23  24
HETATM   24  C8  UNL     1      22.047  -0.123  54.020  1.00  0.00     0.285 C 
BRANCH  24  25
HETATM   25  C9  UNL     1      22.472  -1.168  54.984  1.00  0.00     0.164 C 
HETATM   26  O2  UNL     1      21.640  -2.120  54.944  1.00  0.00    -0.648 OA
BRANCH  25  27
HETATM   27  O3  UNL     1      23.262  -1.759  55.942  1.00  0.00    -0.775 OA
HETATM   28  H7  UNL     1      23.342  -1.425  56.894  1.00  0.00     0.167 HD
ENDBRANCH  25  27
ENDBRANCH  24  25
ENDBRANCH  23  24
ENDBRANCH  20  23
BRANCH  21  29
HETATM   29  O4  UNL     1      25.328   0.724  53.062  1.00  0.00    -0.353 OA
HETATM   30  C11 UNL     1      26.450  -0.027  52.645  1.00  0.00     0.210 C 
ENDBRANCH  21  29
ENDBRANCH   5  17
TORSDOF 6
ENDMDL
MODEL 5
REMARK VINA RESULT:      -7.1      4.273      9.631
REMARK  6 active torsions:
REMARK  status: ('A' for Active; 'I' for Inactive)
REMARK    1  A    between atoms: C3_5  and  C4_6 
REMARK    2  A    between atoms: C7_9  and  O1_10 
REMARK    3  A    between atoms: O1_10  and  C8_11 
REMARK    4  A    between atoms: C8_11  and  C9_12 
REMARK    5  A    between atoms: C9_12  and  O3_14 
REMARK    6  A    between atoms: C10_15  and  O4_16 
ROOT
HETATM    1  C1  UNL     1      31.317   7.837  49.342  1.00  0.00     0.056 C 
HETATM    2  S1  UNL     1      30.794   7.547  47.771  1.00  0.00    -0.143 SA
HETATM    3  C2  UNL     1      30.593   5.998  47.796  1.00  0.00     0.128 C 
HETATM    4  N1  UNL     1      29.384   5.408  48.335  1.00  0.00    -0.217 NA
HETATM    5  C3  UNL     1      28.246   6.041  48.168  1.00  0.00     0.136 C 
HETATM    6  N2  UNL     1      28.234   7.300  47.459  1.00  0.00    -0.366 N 
HETATM    7  C13 UNL     1      29.286   8.328  47.457  1.00  0.00     0.191 C 
HETATM    8  S2  UNL     1      32.180   5.261  47.018  1.00  0.00    -0.063 SA
HETATM    9  C14 UNL     1      32.771   6.777  46.235  1.00  0.00     0.023 A 
HETATM   10  C15 UNL     1      33.806   6.900  45.331  1.00  0.00     0.021 A 
HETATM   11  C16 UNL     1      34.172   8.117  44.794  1.00  0.00     0.008 A 
HETATM   12  C17 UNL     1      33.459   9.230  45.194  1.00  0.00    -0.061 A 
HETATM   13  C18 UNL     1      33.825  10.572  44.633  1.00  0.00     0.048 C 
HETATM   14  C19 UNL     1      32.428   9.080  46.097  1.00  0.00     0.026 A 
HETATM   15  C20 UNL     1      32.044   7.875  46.648  1.00  0.00     0.011 A 
HETATM   16  H12 UNL     1      27.353   7.451  46.895  1.00  0.00     0.162 HD
ENDROOT
BRANCH   5  17
HETATM   17  C4  UNL     1      27.060   5.408  48.727  1.00  0.00     0.012 A 
HETATM   18  C5  UNL     1      27.074   4.094  49.170  1.00  0.00     0.018 A 
HETATM   19  C6  UNL     1      25.946   3.502  49.699  1.00  0.00     0.040 A 
HETATM   20  C7  UNL     1      24.751   4.184  49.812  1.00  0.00     0.102 A 
HETATM   21  C10 UNL     1      24.762   5.486  49.366  1.00  0.00     0.102 A 
HETATM   22  C12 UNL     1      25.881   6.096  48.834  1.00  0.00     0.055 A 
BRANCH  20  23
HETATM   23  O1  UNL     1      23.568   3.676  50.329  1.00  0.00    -0.338 OA
BRANCH  23  24
HETATM   24  C8  UNL     1      23.433   3.241  51.661  1.00  0.00     0.285 C 
BRANCH  24  25
HETATM   25  C9  UNL     1      23.400   4.438  52.537  1.00  0.00     0.164 C 
HETATM   26  O2  UNL     1      22.267   4.990  52.430  1.00  0.00    -0.648 OA
BRANCH  25  27
HETATM   27  O3  UNL     1      23.880   5.358  53.440  1.00  0.00    -0.775 OA
HETATM   28  H7  UNL     1      24.588   6.048  53.224  1.00  0.00     0.167 HD
ENDBRANCH  25  27
ENDBRANCH  24  25
ENDBRANCH  23  24
ENDBRANCH  20  23
BRANCH  21  29
HETATM   29  O4  UNL     1      23.599   6.236  49.448  1.00  0.00    -0.353 OA
HETATM   30  C11 UNL     1      22.806   6.511  48.311  1.00  0.00     0.210 C 
ENDBRANCH  21  29
ENDBRANCH   5  17
TORSDOF 6
ENDMDL
MODEL 6
REMARK VINA RESULT:      -7.0      2.509      4.130
REMARK  6 active torsions:
REMARK  status: ('A' for Active; 'I' for Inactive)
REMARK    1  A    between atoms: C3_5  and  C4_6 
REMARK    2  A    between atoms: C7_9  and  O1_10 
REMARK    3  A    between atoms: O1_10  and  C8_11 
REMARK    4  A    between atoms: C8_11  and  C9_12 
REMARK    5  A    between atoms: C9_12  and  O3_14 
REMARK    6  A    between atoms: C10_15  and  O4_16 
ROOT
HETATM    1  C1  UNL     1      22.924   2.816  49.575  1.00  0.00     0.056 C 
HETATM    2  S1  UNL     1      23.485   3.242  51.101  1.00  0.00    -0.143 SA
HETATM    3  C2  UNL     1      24.950   3.677  50.778  1.00  0.00     0.128 C 
HETATM    4  N1  UNL     1      25.243   5.004  50.271  1.00  0.00    -0.217 NA
HETATM    5  C3  UNL     1      24.520   6.014  50.696  1.00  0.00     0.136 C 
HETATM    6  N2  UNL     1      23.460   5.775  51.648  1.00  0.00    -0.366 N 
HETATM    7  C13 UNL     1      22.604   4.582  51.742  1.00  0.00     0.191 C 
HETATM    8  S2  UNL     1      26.041   2.161  51.198  1.00  0.00    -0.063 SA
HETATM    9  C14 UNL     1      24.827   1.283  52.206  1.00  0.00     0.023 A 
HETATM   10  C15 UNL     1      25.043   0.169  52.990  1.00  0.00     0.021 A 
HETATM   11  C16 UNL     1      24.034  -0.422  53.722  1.00  0.00     0.008 A 
HETATM   12  C17 UNL     1      22.778   0.145  53.647  1.00  0.00    -0.061 A 
HETATM   13  C18 UNL     1      21.653  -0.467  54.429  1.00  0.00     0.048 C 
HETATM   14  C19 UNL     1      22.587   1.259  52.857  1.00  0.00     0.026 A 
HETATM   15  C20 UNL     1      23.580   1.866  52.116  1.00  0.00     0.011 A 
HETATM   16  H12 UNL     1      23.324   6.572  52.328  1.00  0.00     0.162 HD
ENDROOT
BRANCH   5  17
HETATM   17  C4  UNL     1      24.853   7.325  50.158  1.00  0.00     0.012 A 
HETATM   18  C5  UNL     1      23.981   8.017  49.330  1.00  0.00     0.018 A 
HETATM   19  C6  UNL     1      24.304   9.260  48.825  1.00  0.00     0.040 A 
HETATM   20  C7  UNL     1      25.506   9.873  49.116  1.00  0.00     0.102 A 
HETATM   21  C10 UNL     1      26.353   9.168  49.940  1.00  0.00     0.102 A 
HETATM   22  C12 UNL     1      26.048   7.924  50.455  1.00  0.00     0.055 A 
BRANCH  20  23
HETATM   23  O1  UNL     1      25.918  11.117  48.658  1.00  0.00    -0.338 OA
BRANCH  23  24
HETATM   24  C8  UNL     1      25.319  11.774  47.567  1.00  0.00     0.285 C 
BRANCH  24  25
HETATM   25  C9  UNL     1      25.370  13.235  47.822  1.00  0.00     0.164 C 
HETATM   26  O2  UNL     1      25.540  13.833  46.721  1.00  0.00    -0.648 OA
BRANCH  25  27
HETATM   27  O3  UNL     1      25.344  14.390  48.567  1.00  0.00    -0.775 OA
HETATM   28  H7  UNL     1      24.780  14.516  49.397  1.00  0.00     0.167 HD
ENDBRANCH  25  27
ENDBRANCH  24  25
ENDBRANCH  23  24
ENDBRANCH  20  23
BRANCH  21  29
HETATM   29  O4  UNL     1      27.579   9.721  50.277  1.00  0.00    -0.353 OA
HETATM   30  C11 UNL     1      28.760   9.410  49.566  1.00  0.00     0.210 C 
ENDBRANCH  21  29
ENDBRANCH   5  17
TORSDOF 6
ENDMDL
MODEL 7
REMARK VINA RESULT:      -7.0      4.865      9.546
REMARK  6 active torsions:
REMARK  status: ('A' for Active; 'I' for Inactive)
REMARK    1  A    between atoms: C3_5  and  C4_6 
REMARK    2  A    between atoms: C7_9  and  O1_10 
REMARK    3  A    between atoms: O1_10  and  C8_11 
REMARK    4  A    between atoms: C8_11  and  C9_12 
REMARK    5  A    between atoms: C9_12  and  O3_14 
REMARK    6  A    between atoms: C10_15  and  O4_16 
ROOT
HETATM    1  C1  UNL     1      25.587   7.135  47.474  1.00  0.00     0.056 C 
HETATM    2  S1  UNL     1      26.762   6.807  48.630  1.00  0.00    -0.143 SA
HETATM    3  C2  UNL     1      25.988   7.118  49.951  1.00  0.00     0.128 C 
HETATM    4  N1  UNL     1      25.094   6.142  50.544  1.00  0.00    -0.217 NA
HETATM    5  C3  UNL     1      25.403   4.869  50.452  1.00  0.00     0.136 C 
HETATM    6  N2  UNL     1      26.613   4.482  49.765  1.00  0.00    -0.366 N 
HETATM    7  C13 UNL     1      27.224   5.143  48.601  1.00  0.00     0.191 C 
HETATM    8  S2  UNL     1      26.510   8.892  50.447  1.00  0.00    -0.063 SA
HETATM    9  C14 UNL     1      27.979   8.995  49.401  1.00  0.00     0.023 A 
HETATM   10  C15 UNL     1      28.950   9.973  49.420  1.00  0.00     0.021 A 
HETATM   11  C16 UNL     1      30.036   9.949  48.569  1.00  0.00     0.008 A 
HETATM   12  C17 UNL     1      30.125   8.896  47.680  1.00  0.00    -0.061 A 
HETATM   13  C18 UNL     1      31.290   8.832  46.738  1.00  0.00     0.048 C 
HETATM   14  C19 UNL     1      29.141   7.930  47.681  1.00  0.00     0.026 A 
HETATM   15  C20 UNL     1      28.048   7.933  48.522  1.00  0.00     0.011 A 
HETATM   16  H12 UNL     1      27.072   3.626  50.181  1.00  0.00     0.162 HD
ENDROOT
BRANCH   5  17
HETATM   17  C4  UNL     1      24.475   3.928  51.063  1.00  0.00     0.012 A 
HETATM   18  C5  UNL     1      24.835   2.614  51.324  1.00  0.00     0.018 A 
HETATM   19  C6  UNL     1      23.950   1.729  51.905  1.00  0.00     0.040 A 
HETATM   20  C7  UNL     1      22.668   2.105  52.251  1.00  0.00     0.102 A 
HETATM   21  C10 UNL     1      22.335   3.413  51.982  1.00  0.00     0.102 A 
HETATM   22  C12 UNL     1      23.206   4.313  51.403  1.00  0.00     0.055 A 
BRANCH  20  23
HETATM   23  O1  UNL     1      21.710   1.289  52.837  1.00  0.00    -0.338 OA
BRANCH  23  24
HETATM   24  C8  UNL     1      21.614  -0.092  52.583  1.00  0.00     0.285 C 
BRANCH  24  25
HETATM   25  C9  UNL     1      21.606  -0.802  53.887  1.00  0.00     0.164 C 
HETATM   26  O2  UNL     1      22.791  -0.863  54.323  1.00  0.00    -0.648 OA
BRANCH  25  27
HETATM   27  O3  UNL     1      21.064  -1.466  54.962  1.00  0.00    -0.775 OA
HETATM   28  H7  UNL     1      21.552  -2.173  55.496  1.00  0.00     0.167 HD
ENDBRANCH  25  27
ENDBRANCH  24  25
ENDBRANCH  23  24
ENDBRANCH  20  23
BRANCH  21  29
HETATM   29  O4  UNL     1      21.063   3.863  52.303  1.00  0.00    -0.353 OA
HETATM   30  C11 UNL     1      20.117   4.198  51.308  1.00  0.00     0.210 C 
ENDBRANCH  21  29
ENDBRANCH   5  17
TORSDOF 6
ENDMDL
MODEL 8
REMARK VINA RESULT:      -6.9      4.493      9.652
REMARK  6 active torsions:
REMARK  status: ('A' for Active; 'I' for Inactive)
REMARK    1  A    between atoms: C3_5  and  C4_6 
REMARK    2  A    between atoms: C7_9  and  O1_10 
REMARK    3  A    between atoms: O1_10  and  C8_11 
REMARK    4  A    between atoms: C8_11  and  C9_12 
REMARK    5  A    between atoms: C9_12  and  O3_14 
REMARK    6  A    between atoms: C10_15  and  O4_16 
ROOT
HETATM    1  C1  UNL     1      27.613   8.351  46.130  1.00  0.00     0.056 C 
HETATM    2  S1  UNL     1      28.441   8.181  47.583  1.00  0.00    -0.143 SA
HETATM    3  C2  UNL     1      27.290   8.394  48.618  1.00  0.00     0.128 C 
HETATM    4  N1  UNL     1      26.391   7.312  48.972  1.00  0.00    -0.217 NA
HETATM    5  C3  UNL     1      26.867   6.089  49.022  1.00  0.00     0.136 C 
HETATM    6  N2  UNL     1      28.261   5.860  48.721  1.00  0.00    -0.366 N 
HETATM    7  C13 UNL     1      29.093   6.591  47.752  1.00  0.00     0.191 C 
HETATM    8  S2  UNL     1      27.427  10.222  49.171  1.00  0.00    -0.063 SA
HETATM    9  C14 UNL     1      29.108  10.510  48.579  1.00  0.00     0.023 A 
HETATM   10  C15 UNL     1      29.906  11.606  48.833  1.00  0.00     0.021 A 
HETATM   11  C16 UNL     1      31.184  11.719  48.325  1.00  0.00     0.008 A 
HETATM   12  C17 UNL     1      31.651  10.684  47.540  1.00  0.00    -0.061 A 
HETATM   13  C18 UNL     1      33.035  10.768  46.968  1.00  0.00     0.048 C 
HETATM   14  C19 UNL     1      30.835   9.599  47.301  1.00  0.00     0.026 A 
HETATM   15  C20 UNL     1      29.555   9.463  47.798  1.00  0.00     0.011 A 
HETATM   16  H12 UNL     1      28.684   5.071  49.284  1.00  0.00     0.162 HD
ENDROOT
BRANCH   5  17
HETATM   17  C4  UNL     1      25.927   5.039  49.383  1.00  0.00     0.012 A 
HETATM   18  C5  UNL     1      24.590   5.097  49.014  1.00  0.00     0.018 A 
HETATM   19  C6  UNL     1      23.705   4.096  49.360  1.00  0.00     0.040 A 
HETATM   20  C7  UNL     1      24.104   2.993  50.088  1.00  0.00     0.102 A 
HETATM   21  C10 UNL     1      25.434   2.958  50.442  1.00  0.00     0.102 A 
HETATM   22  C12 UNL     1      26.334   3.948  50.105  1.00  0.00     0.055 A 
BRANCH  20  23
HETATM   23  O1  UNL     1      23.291   1.939  50.482  1.00  0.00    -0.338 OA
BRANCH  23  24
HETATM   24  C8  UNL     1      22.437   2.000  51.599  1.00  0.00     0.285 C 
BRANCH  24  25
HETATM   25  C9  UNL     1      23.041   1.191  52.687  1.00  0.00     0.164 C 
HETATM   26  O2  UNL     1      22.119   0.781  53.448  1.00  0.00    -0.648 OA
BRANCH  25  27
HETATM   27  O3  UNL     1      24.047   0.587  53.404  1.00  0.00    -0.775 OA
HETATM   28  H7  UNL     1      23.907   0.119  54.290  1.00  0.00     0.167 HD
ENDBRANCH  25  27
ENDBRANCH  24  25
ENDBRANCH  23  24
ENDBRANCH  20  23
BRANCH  21  29
HETATM   29  O4  UNL     1      25.907   1.880  51.173  1.00  0.00    -0.353 OA
HETATM   30  C11 UNL     1      27.006   2.000  52.054  1.00  0.00     0.210 C 
ENDBRANCH  21  29
ENDBRANCH   5  17
TORSDOF 6
ENDMDL
MODEL 9
REMARK VINA RESULT:      -6.9      4.238      9.419
REMARK  6 active torsions:
REMARK  status: ('A' for Active; 'I' for Inactive)
REMARK    1  A    between atoms: C3_5  and  C4_6 
REMARK    2  A    between atoms: C7_9  and  O1_10 
REMARK    3  A    between atoms: O1_10  and  C8_11 
REMARK    4  A    between atoms: C8_11  and  C9_12 
REMARK    5  A    between atoms: C9_12  and  O3_14 
REMARK    6  A    between atoms: C10_15  and  O4_16 
ROOT
HETATM    1  C1  UNL     1      27.957   8.550  46.028  1.00  0.00     0.056 C 
HETATM    2  S1  UNL     1      28.805   8.373  47.469  1.00  0.00    -0.143 SA
HETATM    3  C2  UNL     1      27.672   8.595  48.521  1.00  0.00     0.128 C 
HETATM    4  N1  UNL     1      26.771   7.521  48.889  1.00  0.00    -0.217 NA
HETATM    5  C3  UNL     1      27.237   6.294  48.931  1.00  0.00     0.136 C 
HETATM    6  N2  UNL     1      28.625   6.054  48.609  1.00  0.00    -0.366 N 
HETATM    7  C13 UNL     1      29.447   6.778  47.627  1.00  0.00     0.191 C 
HETATM    8  S2  UNL     1      27.832  10.422  49.072  1.00  0.00    -0.063 SA
HETATM    9  C14 UNL     1      29.506  10.697  48.454  1.00  0.00     0.023 A 
HETATM   10  C15 UNL     1      30.317  11.787  48.696  1.00  0.00     0.021 A 
HETATM   11  C16 UNL     1      31.587  11.890  48.168  1.00  0.00     0.008 A 
HETATM   12  C17 UNL     1      32.034  10.851  47.376  1.00  0.00    -0.061 A 
HETATM   13  C18 UNL     1      33.410  10.924  46.784  1.00  0.00     0.048 C 
HETATM   14  C19 UNL     1      31.206   9.772  47.150  1.00  0.00     0.026 A 
HETATM   15  C20 UNL     1      29.933   9.647  47.667  1.00  0.00     0.011 A 
HETATM   16  H12 UNL     1      29.050   5.262  49.165  1.00  0.00     0.162 HD
ENDROOT
BRANCH   5  17
HETATM   17  C4  UNL     1      26.294   5.251  49.307  1.00  0.00     0.012 A 
HETATM   18  C5  UNL     1      26.680   3.922  49.412  1.00  0.00     0.018 A 
HETATM   19  C6  UNL     1      25.780   2.939  49.769  1.00  0.00     0.040 A 
HETATM   20  C7  UNL     1      24.457   3.227  50.037  1.00  0.00     0.102 A 
HETATM   21  C10 UNL     1      24.099   4.552  49.926  1.00  0.00     0.102 A 
HETATM   22  C12 UNL     1      24.984   5.549  49.570  1.00  0.00     0.055 A 
BRANCH  20  23
HETATM   23  O1  UNL     1      23.481   2.311  50.402  1.00  0.00    -0.338 OA
BRANCH  23  24
HETATM   24  C8  UNL     1      23.595   1.470  51.526  1.00  0.00     0.285 C 
BRANCH  24  25
HETATM   25  C9  UNL     1      24.145   2.271  52.647  1.00  0.00     0.164 C 
HETATM   26  O2  UNL     1      24.802   1.505  53.410  1.00  0.00    -0.648 OA
BRANCH  25  27
HETATM   27  O3  UNL     1      24.386   3.398  53.398  1.00  0.00    -0.775 OA
HETATM   28  H7  UNL     1      23.663   3.941  53.852  1.00  0.00     0.167 HD
ENDBRANCH  25  27
ENDBRANCH  24  25
ENDBRANCH  23  24
ENDBRANCH  20  23
BRANCH  21  29
HETATM   29  O4  UNL     1      22.786   4.918  50.180  1.00  0.00    -0.353 OA
HETATM   30  C11 UNL     1      22.404   5.533  51.393  1.00  0.00     0.210 C 
ENDBRANCH  21  29
ENDBRANCH   5  17
TORSDOF 6
ENDMDL
