MODEL 1
REMARK VINA RESULT:      -7.8      0.000      0.000
REMARK  6 active torsions:
REMARK  status: ('A' for Active; 'I' for Inactive)
REMARK    1  A    between atoms: C2_2  and  C3_3 
REMARK    2  A    between atoms: C4_4  and  O1_5 
REMARK    3  A    between atoms: O1_5  and  C5_6 
REMARK    4  A    between atoms: C5_6  and  N1_7 
REMARK    5  A    between atoms: C8_10  and  O2_11 
REMARK    6  A    between atoms: O2_11  and  C9_12 
ROOT
HETATM    1  C1  UNL     1      22.346  -1.098  54.951  1.00  0.00     0.060 C 
HETATM    2  C2  UNL     1      21.879  -0.365  53.744  1.00  0.00     0.019 C 
HETATM    3  C6  UNL     1      22.736   0.333  53.016  1.00  0.00     0.058 A 
HETATM    4  C7  UNL     1      24.162   0.365  53.428  1.00  0.00     0.147 A 
HETATM    5  C8  UNL     1      24.963   1.190  52.494  1.00  0.00     0.152 A 
HETATM    6  N2  UNL     1      24.500   1.794  51.473  1.00  0.00    -0.221 NA
HETATM    7  C16 UNL     1      23.124   1.727  51.129  1.00  0.00     0.235 A 
HETATM    8  N3  UNL     1      22.304   1.036  51.865  1.00  0.00    -0.245 NA
ENDROOT
BRANCH   2   9
HETATM    9  C3  UNL     1      20.487  -0.436  53.398  1.00  0.00    -0.039 C 
HETATM   10  C4  UNL     1      19.307  -0.478  53.114  1.00  0.00     0.061 C 
BRANCH  10  11
HETATM   11  O1  UNL     1      17.971  -0.546  52.796  1.00  0.00    -0.274 OA
BRANCH  11  12
HETATM   12  C5  UNL     1      17.353  -1.803  52.940  1.00  0.00     0.453 C 
BRANCH  12  13
HETATM   13  N1  UNL     1      17.871  -2.524  54.109  1.00  0.00     0.102 N 
HETATM   14  H6  UNL     1      18.813  -2.101  54.321  1.00  0.00     0.315 HD
HETATM   15  H7  UNL     1      17.243  -2.223  54.898  1.00  0.00     0.315 HD
ENDBRANCH  12  13
ENDBRANCH  11  12
ENDBRANCH  10  11
ENDBRANCH   2   9
BRANCH   5  16
HETATM   16  O2  UNL     1      26.321   1.398  52.625  1.00  0.00    -0.295 OA
BRANCH  16  17
HETATM   17  C9  UNL     1      27.225   0.377  52.845  1.00  0.00     0.083 A 
HETATM   18  C10 UNL     1      27.179  -0.983  52.656  1.00  0.00     0.038 A 
HETATM   19  C11 UNL     1      28.263  -1.767  52.975  1.00  0.00     0.003 A 
HETATM   20  C12 UNL     1      29.442  -1.239  53.495  1.00  0.00     0.001 A 
HETATM   21  C13 UNL     1      29.499   0.141  53.690  1.00  0.00     0.009 A 
HETATM   22  C14 UNL     1      28.404   0.920  53.367  1.00  0.00    -0.028 A 
HETATM   23  C15 UNL     1      28.681   2.365  53.654  1.00  0.00     0.051 C 
ENDBRANCH  16  17
ENDBRANCH   5  16
TORSDOF 6
ENDMDL
MODEL 2
REMARK VINA RESULT:      -7.7      2.509      8.126
REMARK  6 active torsions:
REMARK  status: ('A' for Active; 'I' for Inactive)
REMARK    1  A    between atoms: C2_2  and  C3_3 
REMARK    2  A    between atoms: C4_4  and  O1_5 
REMARK    3  A    between atoms: O1_5  and  C5_6 
REMARK    4  A    between atoms: C5_6  and  N1_7 
REMARK    5  A    between atoms: C8_10  and  O2_11 
REMARK    6  A    between atoms: O2_11  and  C9_12 
ROOT
HETATM    1  C1  UNL     1      24.758   1.316  51.937  1.00  0.00     0.060 C 
HETATM    2  C2  UNL     1      24.859   0.321  53.038  1.00  0.00     0.019 C 
HETATM    3  C6  UNL     1      23.767  -0.117  53.643  1.00  0.00     0.058 A 
HETATM    4  C7  UNL     1      22.448   0.405  53.202  1.00  0.00     0.147 A 
HETATM    5  C8  UNL     1      21.351  -0.201  53.991  1.00  0.00     0.152 A 
HETATM    6  N2  UNL     1      21.506  -1.053  54.924  1.00  0.00    -0.221 NA
HETATM    7  C16 UNL     1      22.794  -1.514  55.304  1.00  0.00     0.235 A 
HETATM    8  N3  UNL     1      23.851  -1.064  54.693  1.00  0.00    -0.245 NA
ENDROOT
BRANCH   2   9
HETATM    9  C3  UNL     1      26.163  -0.145  53.419  1.00  0.00    -0.039 C 
HETATM   10  C4  UNL     1      27.274  -0.528  53.726  1.00  0.00     0.061 C 
BRANCH  10  11
HETATM   11  O1  UNL     1      28.524  -0.979  54.078  1.00  0.00    -0.274 OA
BRANCH  11  12
HETATM   12  C5  UNL     1      29.161  -1.843  53.166  1.00  0.00     0.453 C 
BRANCH  12  13
HETATM   13  N1  UNL     1      28.605  -3.199  53.233  1.00  0.00     0.102 N 
HETATM   14  H6  UNL     1      27.590  -3.087  53.497  1.00  0.00     0.315 HD
HETATM   15  H7  UNL     1      28.602  -3.528  52.234  1.00  0.00     0.315 HD
ENDBRANCH  12  13
ENDBRANCH  11  12
ENDBRANCH  10  11
ENDBRANCH   2   9
BRANCH   5  16
HETATM   16  O2  UNL     1      20.016   0.093  53.799  1.00  0.00    -0.295 OA
BRANCH  16  17
HETATM   17  C9  UNL     1      19.456   0.292  52.552  1.00  0.00     0.083 A 
HETATM   18  C10 UNL     1      19.781   1.099  51.488  1.00  0.00     0.038 A 
HETATM   19  C11 UNL     1      19.018   1.084  50.344  1.00  0.00     0.003 A 
HETATM   20  C12 UNL     1      17.899   0.267  50.201  1.00  0.00     0.001 A 
HETATM   21  C13 UNL     1      17.562  -0.558  51.275  1.00  0.00     0.009 A 
HETATM   22  C14 UNL     1      18.334  -0.534  52.420  1.00  0.00    -0.028 A 
HETATM   23  C15 UNL     1      17.795  -1.491  53.440  1.00  0.00     0.051 C 
ENDBRANCH  16  17
ENDBRANCH   5  16
TORSDOF 6
ENDMDL
MODEL 3
REMARK VINA RESULT:      -7.2      1.253      1.977
REMARK  6 active torsions:
REMARK  status: ('A' for Active; 'I' for Inactive)
REMARK    1  A    between atoms: C2_2  and  C3_3 
REMARK    2  A    between atoms: C4_4  and  O1_5 
REMARK    3  A    between atoms: O1_5  and  C5_6 
REMARK    4  A    between atoms: C5_6  and  N1_7 
REMARK    5  A    between atoms: C8_10  and  O2_11 
REMARK    6  A    between atoms: O2_11  and  C9_12 
ROOT
HETATM    1  C1  UNL     1      21.788   1.591  49.864  1.00  0.00     0.060 C 
HETATM    2  C2  UNL     1      21.544   0.840  51.124  1.00  0.00     0.019 C 
HETATM    3  C6  UNL     1      22.538   0.610  51.966  1.00  0.00     0.058 A 
HETATM    4  C7  UNL     1      23.893   1.116  51.626  1.00  0.00     0.147 A 
HETATM    5  C8  UNL     1      24.868   0.766  52.685  1.00  0.00     0.152 A 
HETATM    6  N2  UNL     1      24.593   0.118  53.746  1.00  0.00    -0.221 NA
HETATM    7  C16 UNL     1      23.277  -0.342  54.017  1.00  0.00     0.235 A 
HETATM    8  N3  UNL     1      22.319  -0.104  53.170  1.00  0.00    -0.245 NA
ENDROOT
BRANCH   2   9
HETATM    9  C3  UNL     1      20.212   0.377  51.397  1.00  0.00    -0.039 C 
HETATM   10  C4  UNL     1      19.087  -0.027  51.612  1.00  0.00     0.061 C 
BRANCH  10  11
HETATM   11  O1  UNL     1      17.808  -0.467  51.859  1.00  0.00    -0.274 OA
BRANCH  11  12
HETATM   12  C5  UNL     1      17.647  -1.361  52.935  1.00  0.00     0.453 C 
BRANCH  12  13
HETATM   13  N1  UNL     1      18.780  -1.289  53.865  1.00  0.00     0.102 N 
HETATM   14  H6  UNL     1      18.721  -0.344  54.327  1.00  0.00     0.315 HD
HETATM   15  H7  UNL     1      18.542  -1.986  54.618  1.00  0.00     0.315 HD
ENDBRANCH  12  13
ENDBRANCH  11  12
ENDBRANCH  10  11
ENDBRANCH   2   9
BRANCH   5  16
HETATM   16  O2  UNL     1      26.204   1.109  52.641  1.00  0.00    -0.295 OA
BRANCH  16  17
HETATM   17  C9  UNL     1      27.225   0.210  52.881  1.00  0.00     0.083 A 
HETATM   18  C10 UNL     1      27.337  -1.152  52.738  1.00  0.00     0.038 A 
HETATM   19  C11 UNL     1      28.510  -1.792  53.066  1.00  0.00     0.003 A 
HETATM   20  C12 UNL     1      29.625  -1.112  53.550  1.00  0.00     0.001 A 
HETATM   21  C13 UNL     1      29.521   0.272  53.697  1.00  0.00     0.009 A 
HETATM   22  C14 UNL     1      28.338   0.905  53.365  1.00  0.00    -0.028 A 
HETATM   23  C15 UNL     1      28.446   2.382  53.600  1.00  0.00     0.051 C 
ENDBRANCH  16  17
ENDBRANCH   5  16
TORSDOF 6
ENDMDL
MODEL 4
REMARK VINA RESULT:      -7.1      3.366      5.570
REMARK  6 active torsions:
REMARK  status: ('A' for Active; 'I' for Inactive)
REMARK    1  A    between atoms: C2_2  and  C3_3 
REMARK    2  A    between atoms: C4_4  and  O1_5 
REMARK    3  A    between atoms: O1_5  and  C5_6 
REMARK    4  A    between atoms: C5_6  and  N1_7 
REMARK    5  A    between atoms: C8_10  and  O2_11 
REMARK    6  A    between atoms: O2_11  and  C9_12 
ROOT
HETATM    1  C1  UNL     1      26.429   3.585  49.658  1.00  0.00     0.060 C 
HETATM    2  C2  UNL     1      25.062   3.702  50.231  1.00  0.00     0.019 C 
HETATM    3  C6  UNL     1      24.654   2.855  51.162  1.00  0.00     0.058 A 
HETATM    4  C7  UNL     1      25.587   1.794  51.619  1.00  0.00     0.147 A 
HETATM    5  C8  UNL     1      24.957   0.950  52.661  1.00  0.00     0.152 A 
HETATM    6  N2  UNL     1      23.776   1.105  53.110  1.00  0.00    -0.221 NA
HETATM    7  C16 UNL     1      22.927   2.139  52.633  1.00  0.00     0.235 A 
HETATM    8  N3  UNL     1      23.354   2.956  51.715  1.00  0.00    -0.245 NA
ENDROOT
BRANCH   2   9
HETATM    9  C3  UNL     1      24.206   4.750  49.747  1.00  0.00    -0.039 C 
HETATM   10  C4  UNL     1      23.487   5.646  49.356  1.00  0.00     0.061 C 
BRANCH  10  11
HETATM   11  O1  UNL     1      22.660   6.647  48.904  1.00  0.00    -0.274 OA
BRANCH  11  12
HETATM   12  C5  UNL     1      22.415   7.711  49.794  1.00  0.00     0.453 C 
BRANCH  12  13
HETATM   13  N1  UNL     1      22.057   7.219  51.130  1.00  0.00     0.102 N 
HETATM   14  H6  UNL     1      22.847   7.503  51.768  1.00  0.00     0.315 HD
HETATM   15  H7  UNL     1      21.237   7.814  51.414  1.00  0.00     0.315 HD
ENDBRANCH  12  13
ENDBRANCH  11  12
ENDBRANCH  10  11
ENDBRANCH   2   9
BRANCH   5  16
HETATM   16  O2  UNL     1      25.589  -0.113  53.274  1.00  0.00    -0.295 OA
BRANCH  16  17
HETATM   17  C9  UNL     1      26.934  -0.113  53.591  1.00  0.00     0.083 A 
HETATM   18  C10 UNL     1      27.732   0.731  54.325  1.00  0.00     0.038 A 
HETATM   19  C11 UNL     1      29.074   0.468  54.472  1.00  0.00     0.003 A 
HETATM   20  C12 UNL     1      29.686  -0.644  53.899  1.00  0.00     0.001 A 
HETATM   21  C13 UNL     1      28.884  -1.508  53.152  1.00  0.00     0.009 A 
HETATM   22  C14 UNL     1      27.537  -1.234  53.010  1.00  0.00    -0.028 A 
HETATM   23  C15 UNL     1      26.870  -2.285  52.175  1.00  0.00     0.051 C 
ENDBRANCH  16  17
ENDBRANCH   5  16
TORSDOF 6
ENDMDL
MODEL 5
REMARK VINA RESULT:      -7.0      2.225      8.652
REMARK  6 active torsions:
REMARK  status: ('A' for Active; 'I' for Inactive)
REMARK    1  A    between atoms: C2_2  and  C3_3 
REMARK    2  A    between atoms: C4_4  and  O1_5 
REMARK    3  A    between atoms: O1_5  and  C5_6 
REMARK    4  A    between atoms: C5_6  and  N1_7 
REMARK    5  A    between atoms: C8_10  and  O2_11 
REMARK    6  A    between atoms: O2_11  and  C9_12 
ROOT
HETATM    1  C1  UNL     1      22.759  -1.244  55.219  1.00  0.00     0.060 C 
HETATM    2  C2  UNL     1      22.767  -0.558  53.900  1.00  0.00     0.019 C 
HETATM    3  C6  UNL     1      21.633  -0.333  53.258  1.00  0.00     0.058 A 
HETATM    4  C7  UNL     1      20.360  -0.778  53.881  1.00  0.00     0.147 A 
HETATM    5  C8  UNL     1      19.204  -0.438  53.020  1.00  0.00     0.152 A 
HETATM    6  N2  UNL     1      19.280   0.154  51.895  1.00  0.00    -0.221 NA
HETATM    7  C16 UNL     1      20.527   0.556  51.348  1.00  0.00     0.235 A 
HETATM    8  N3  UNL     1      21.628   0.320  52.001  1.00  0.00    -0.245 NA
ENDROOT
BRANCH   2   9
HETATM    9  C3  UNL     1      24.031  -0.151  53.350  1.00  0.00    -0.039 C 
HETATM   10  C4  UNL     1      25.093   0.184  52.868  1.00  0.00     0.061 C 
BRANCH  10  11
HETATM   11  O1  UNL     1      26.305   0.560  52.339  1.00  0.00    -0.274 OA
BRANCH  11  12
HETATM   12  C5  UNL     1      26.650   1.920  52.458  1.00  0.00     0.453 C 
BRANCH  12  13
HETATM   13  N1  UNL     1      26.705   2.337  53.865  1.00  0.00     0.102 N 
HETATM   14  H6  UNL     1      27.595   1.930  54.256  1.00  0.00     0.315 HD
HETATM   15  H7  UNL     1      26.865   3.376  53.821  1.00  0.00     0.315 HD
ENDBRANCH  12  13
ENDBRANCH  11  12
ENDBRANCH  10  11
ENDBRANCH   2   9
BRANCH   5  16
HETATM   16  O2  UNL     1      17.894  -0.727  53.345  1.00  0.00    -0.295 OA
BRANCH  16  17
HETATM   17  C9  UNL     1      17.358  -1.998  53.269  1.00  0.00     0.083 A 
HETATM   18  C10 UNL     1      17.749  -3.219  53.762  1.00  0.00     0.038 A 
HETATM   19  C11 UNL     1      16.994  -4.342  53.519  1.00  0.00     0.003 A 
HETATM   20  C12 UNL     1      15.815  -4.307  52.778  1.00  0.00     0.001 A 
HETATM   21  C13 UNL     1      15.408  -3.070  52.274  1.00  0.00     0.009 A 
HETATM   22  C14 UNL     1      16.175  -1.948  52.523  1.00  0.00    -0.028 A 
HETATM   23  C15 UNL     1      15.558  -0.737  51.893  1.00  0.00     0.051 C 
ENDBRANCH  16  17
ENDBRANCH   5  16
TORSDOF 6
ENDMDL
MODEL 6
REMARK VINA RESULT:      -6.9      4.664      8.495
REMARK  6 active torsions:
REMARK  status: ('A' for Active; 'I' for Inactive)
REMARK    1  A    between atoms: C2_2  and  C3_3 
REMARK    2  A    between atoms: C4_4  and  O1_5 
REMARK    3  A    between atoms: O1_5  and  C5_6 
REMARK    4  A    between atoms: C5_6  and  N1_7 
REMARK    5  A    between atoms: C8_10  and  O2_11 
REMARK    6  A    between atoms: O2_11  and  C9_12 
ROOT
HETATM    1  C1  UNL     1      26.806   4.754  48.954  1.00  0.00     0.060 C 
HETATM    2  C2  UNL     1      25.836   5.569  49.733  1.00  0.00     0.019 C 
HETATM    3  C6  UNL     1      24.774   5.000  50.279  1.00  0.00     0.058 A 
HETATM    4  C7  UNL     1      24.575   3.539  50.096  1.00  0.00     0.147 A 
HETATM    5  C8  UNL     1      23.340   3.086  50.778  1.00  0.00     0.152 A 
HETATM    6  N2  UNL     1      22.549   3.839  51.433  1.00  0.00    -0.221 NA
HETATM    7  C16 UNL     1      22.791   5.232  51.572  1.00  0.00     0.235 A 
HETATM    8  N3  UNL     1      23.843   5.765  51.023  1.00  0.00    -0.245 NA
ENDROOT
BRANCH   2   9
HETATM    9  C3  UNL     1      26.085   6.977  49.874  1.00  0.00    -0.039 C 
HETATM   10  C4  UNL     1      26.289   8.166  50.012  1.00  0.00     0.061 C 
BRANCH  10  11
HETATM   11  O1  UNL     1      26.514   9.515  50.150  1.00  0.00    -0.274 OA
BRANCH  11  12
HETATM   12  C5  UNL     1      27.659  10.031  49.512  1.00  0.00     0.453 C 
BRANCH  12  13
HETATM   13  N1  UNL     1      28.889   9.470  50.083  1.00  0.00     0.102 N 
HETATM   14  H6  UNL     1      28.960   9.855  51.061  1.00  0.00     0.315 HD
HETATM   15  H7  UNL     1      28.678   8.445  50.198  1.00  0.00     0.315 HD
ENDBRANCH  12  13
ENDBRANCH  11  12
ENDBRANCH  10  11
ENDBRANCH   2   9
BRANCH   5  16
HETATM   16  O2  UNL     1      22.902   1.777  50.781  1.00  0.00    -0.295 OA
BRANCH  16  17
HETATM   17  C9  UNL     1      23.043   0.935  51.867  1.00  0.00     0.083 A 
HETATM   18  C10 UNL     1      24.088   0.651  52.713  1.00  0.00     0.038 A 
HETATM   19  C11 UNL     1      23.930  -0.257  53.733  1.00  0.00     0.003 A 
HETATM   20  C12 UNL     1      22.730  -0.925  53.963  1.00  0.00     0.001 A 
HETATM   21  C13 UNL     1      21.663  -0.643  53.109  1.00  0.00     0.009 A 
HETATM   22  C14 UNL     1      21.832   0.270  52.087  1.00  0.00    -0.028 A 
HETATM   23  C15 UNL     1      20.566   0.420  51.298  1.00  0.00     0.051 C 
ENDBRANCH  16  17
ENDBRANCH   5  16
TORSDOF 6
ENDMDL
MODEL 7
REMARK VINA RESULT:      -6.8      4.864      8.323
REMARK  6 active torsions:
REMARK  status: ('A' for Active; 'I' for Inactive)
REMARK    1  A    between atoms: C2_2  and  C3_3 
REMARK    2  A    between atoms: C4_4  and  O1_5 
REMARK    3  A    between atoms: O1_5  and  C5_6 
REMARK    4  A    between atoms: C5_6  and  N1_7 
REMARK    5  A    between atoms: C8_10  and  O2_11 
REMARK    6  A    between atoms: O2_11  and  C9_12 
ROOT
HETATM    1  C1  UNL     1      27.519   4.739  48.601  1.00  0.00     0.060 C 
HETATM    2  C2  UNL     1      26.527   5.607  49.291  1.00  0.00     0.019 C 
HETATM    3  C6  UNL     1      25.536   5.068  49.981  1.00  0.00     0.058 A 
HETATM    4  C7  UNL     1      25.437   3.588  50.051  1.00  0.00     0.147 A 
HETATM    5  C8  UNL     1      24.271   3.175  50.866  1.00  0.00     0.152 A 
HETATM    6  N2  UNL     1      23.457   3.973  51.434  1.00  0.00    -0.221 NA
HETATM    7  C16 UNL     1      23.602   5.382  51.330  1.00  0.00     0.235 A 
HETATM    8  N3  UNL     1      24.586   5.884  50.642  1.00  0.00    -0.245 NA
ENDROOT
BRANCH   2   9
HETATM    9  C3  UNL     1      26.678   7.032  49.186  1.00  0.00    -0.039 C 
HETATM   10  C4  UNL     1      26.793   8.238  49.113  1.00  0.00     0.061 C 
BRANCH  10  11
HETATM   11  O1  UNL     1      26.923   9.603  49.011  1.00  0.00    -0.274 OA
BRANCH  11  12
HETATM   12  C5  UNL     1      28.237  10.110  48.987  1.00  0.00     0.453 C 
BRANCH  12  13
HETATM   13  N1  UNL     1      29.020   9.624  50.129  1.00  0.00     0.102 N 
HETATM   14  H6  UNL     1      29.073  10.425  50.811  1.00  0.00     0.315 HD
HETATM   15  H7  UNL     1      28.397   8.907  50.584  1.00  0.00     0.315 HD
ENDBRANCH  12  13
ENDBRANCH  11  12
ENDBRANCH  10  11
ENDBRANCH   2   9
BRANCH   5  16
HETATM   16  O2  UNL     1      23.932   1.859  51.109  1.00  0.00    -0.295 OA
BRANCH  16  17
HETATM   17  C9  UNL     1      24.651   1.035  51.952  1.00  0.00     0.083 A 
HETATM   18  C10 UNL     1      25.975   0.676  52.020  1.00  0.00     0.038 A 
HETATM   19  C11 UNL     1      26.413  -0.187  52.997  1.00  0.00     0.003 A 
HETATM   20  C12 UNL     1      25.560  -0.733  53.952  1.00  0.00     0.001 A 
HETATM   21  C13 UNL     1      24.213  -0.373  53.893  1.00  0.00     0.009 A 
HETATM   22  C14 UNL     1      23.783   0.494  52.907  1.00  0.00    -0.028 A 
HETATM   23  C15 UNL     1      22.309   0.742  53.028  1.00  0.00     0.051 C 
ENDBRANCH  16  17
ENDBRANCH   5  16
TORSDOF 6
ENDMDL
MODEL 8
REMARK VINA RESULT:      -6.5      3.604      7.459
REMARK  6 active torsions:
REMARK  status: ('A' for Active; 'I' for Inactive)
REMARK    1  A    between atoms: C2_2  and  C3_3 
REMARK    2  A    between atoms: C4_4  and  O1_5 
REMARK    3  A    between atoms: O1_5  and  C5_6 
REMARK    4  A    between atoms: C5_6  and  N1_7 
REMARK    5  A    between atoms: C8_10  and  O2_11 
REMARK    6  A    between atoms: O2_11  and  C9_12 
ROOT
HETATM    1  C1  UNL     1      24.304  -0.446  53.436  1.00  0.00     0.060 C 
HETATM    2  C2  UNL     1      25.512   0.220  52.880  1.00  0.00     0.019 C 
HETATM    3  C6  UNL     1      25.387   1.191  51.990  1.00  0.00     0.058 A 
HETATM    4  C7  UNL     1      24.023   1.596  51.562  1.00  0.00     0.147 A 
HETATM    5  C8  UNL     1      24.086   2.692  50.568  1.00  0.00     0.152 A 
HETATM    6  N2  UNL     1      25.159   3.222  50.132  1.00  0.00    -0.221 NA
HETATM    7  C16 UNL     1      26.437   2.792  50.578  1.00  0.00     0.235 A 
HETATM    8  N3  UNL     1      26.529   1.833  51.453  1.00  0.00    -0.245 NA
ENDROOT
BRANCH   2   9
HETATM    9  C3  UNL     1      26.802  -0.216  53.335  1.00  0.00    -0.039 C 
HETATM   10  C4  UNL     1      27.902  -0.569  53.710  1.00  0.00     0.061 C 
BRANCH  10  11
HETATM   11  O1  UNL     1      29.142  -0.988  54.132  1.00  0.00    -0.274 OA
BRANCH  11  12
HETATM   12  C5  UNL     1      29.701  -2.085  53.449  1.00  0.00     0.453 C 
BRANCH  12  13
HETATM   13  N1  UNL     1      28.704  -3.137  53.218  1.00  0.00     0.102 N 
HETATM   14  H6  UNL     1      29.065  -3.712  52.412  1.00  0.00     0.315 HD
HETATM   15  H7  UNL     1      28.782  -3.759  54.064  1.00  0.00     0.315 HD
ENDBRANCH  12  13
ENDBRANCH  11  12
ENDBRANCH  10  11
ENDBRANCH   2   9
BRANCH   5  16
HETATM   16  O2  UNL     1      22.973   3.274  49.996  1.00  0.00    -0.295 OA
BRANCH  16  17
HETATM   17  C9  UNL     1      21.693   2.783  50.162  1.00  0.00     0.083 A 
HETATM   18  C10 UNL     1      21.019   1.704  49.642  1.00  0.00     0.038 A 
HETATM   19  C11 UNL     1      19.714   1.459  50.001  1.00  0.00     0.003 A 
HETATM   20  C12 UNL     1      19.017   2.271  50.893  1.00  0.00     0.001 A 
HETATM   21  C13 UNL     1      19.693   3.368  51.428  1.00  0.00     0.009 A 
HETATM   22  C14 UNL     1      21.004   3.606  51.060  1.00  0.00    -0.028 A 
HETATM   23  C15 UNL     1      21.532   4.828  51.749  1.00  0.00     0.051 C 
ENDBRANCH  16  17
ENDBRANCH   5  16
TORSDOF 6
ENDMDL
MODEL 9
REMARK VINA RESULT:      -6.5      4.255      5.557
REMARK  6 active torsions:
REMARK  status: ('A' for Active; 'I' for Inactive)
REMARK    1  A    between atoms: C2_2  and  C3_3 
REMARK    2  A    between atoms: C4_4  and  O1_5 
REMARK    3  A    between atoms: O1_5  and  C5_6 
REMARK    4  A    between atoms: C5_6  and  N1_7 
REMARK    5  A    between atoms: C8_10  and  O2_11 
REMARK    6  A    between atoms: O2_11  and  C9_12 
ROOT
HETATM    1  C1  UNL     1      26.123   1.012  51.987  1.00  0.00     0.060 C 
HETATM    2  C2  UNL     1      24.719   1.322  52.367  1.00  0.00     0.019 C 
HETATM    3  C6  UNL     1      24.161   2.459  51.985  1.00  0.00     0.058 A 
HETATM    4  C7  UNL     1      24.963   3.411  51.174  1.00  0.00     0.147 A 
HETATM    5  C8  UNL     1      24.172   4.618  50.843  1.00  0.00     0.152 A 
HETATM    6  N2  UNL     1      22.967   4.823  51.200  1.00  0.00    -0.221 NA
HETATM    7  C16 UNL     1      22.250   3.875  51.977  1.00  0.00     0.235 A 
HETATM    8  N3  UNL     1      22.825   2.766  52.340  1.00  0.00    -0.245 NA
ENDROOT
BRANCH   2   9
HETATM    9  C3  UNL     1      23.995   0.361  53.151  1.00  0.00    -0.039 C 
HETATM   10  C4  UNL     1      23.391  -0.467  53.803  1.00  0.00     0.061 C 
BRANCH  10  11
HETATM   11  O1  UNL     1      22.691  -1.391  54.542  1.00  0.00    -0.274 OA
BRANCH  11  12
HETATM   12  C5  UNL     1      21.287  -1.346  54.440  1.00  0.00     0.453 C 
BRANCH  12  13
HETATM   13  N1  UNL     1      20.758  -0.056  54.897  1.00  0.00     0.102 N 
HETATM   14  H6  UNL     1      21.304   0.195  55.763  1.00  0.00     0.315 HD
HETATM   15  H7  UNL     1      21.069   0.628  54.160  1.00  0.00     0.315 HD
ENDBRANCH  12  13
ENDBRANCH  11  12
ENDBRANCH  10  11
ENDBRANCH   2   9
BRANCH   5  16
HETATM   16  O2  UNL     1      24.659   5.673  50.096  1.00  0.00    -0.295 OA
BRANCH  16  17
HETATM   17  C9  UNL     1      25.900   5.662  49.491  1.00  0.00     0.083 A 
HETATM   18  C10 UNL     1      26.734   4.659  49.062  1.00  0.00     0.038 A 
HETATM   19  C11 UNL     1      27.943   4.959  48.480  1.00  0.00     0.003 A 
HETATM   20  C12 UNL     1      28.381   6.268  48.295  1.00  0.00     0.001 A 
HETATM   21  C13 UNL     1      27.541   7.295  48.726  1.00  0.00     0.009 A 
HETATM   22  C14 UNL     1      26.328   6.982  49.311  1.00  0.00    -0.028 A 
HETATM   23  C15 UNL     1      25.591   8.229  49.697  1.00  0.00     0.051 C 
ENDBRANCH  16  17
ENDBRANCH   5  16
TORSDOF 6
ENDMDL
