MODEL 1
REMARK VINA RESULT:      -8.9      0.000      0.000
REMARK  0 active torsions:
REMARK  status: ('A' for Active; 'I' for Inactive)
ROOT
HETATM    1  F1  UNL     1      21.321   1.157  48.495  1.00  0.00    -0.204 F 
HETATM    2  C1  UNL     1      21.916   1.345  49.697  1.00  0.00     0.138 A 
HETATM    3  C2  UNL     1      21.770   0.541  50.841  1.00  0.00     0.053 A 
HETATM    4  C3  UNL     1      22.327   0.630  52.134  1.00  0.00    -0.025 A 
HETATM    5  C4  UNL     1      23.181   1.738  52.259  1.00  0.00     0.036 A 
HETATM    6  C5  UNL     1      23.353   2.556  51.159  1.00  0.00     0.056 A 
HETATM    7  C6  UNL     1      22.779   2.439  49.880  1.00  0.00     0.074 A 
HETATM    8 CL1  UNL     1      23.000   3.480  48.491  1.00  0.00    -0.081 Cl
HETATM    9  N1  UNL     1      24.063   2.435  53.203  1.00  0.00    -0.382 N 
HETATM   10  C7  UNL     1      25.133   1.643  53.427  1.00  0.00     0.117 C 
HETATM   11  C8  UNL     1      26.476   2.144  54.063  1.00  0.00     0.086 C 
HETATM   12  C9  UNL     1      27.152   0.701  53.964  1.00  0.00     0.033 C 
HETATM   13  C10 UNL     1      28.037   0.571  52.976  1.00  0.00     0.160 C 
HETATM   14  O1  UNL     1      26.970   0.719  52.097  1.00  0.00    -0.353 OA
HETATM   15  C11 UNL     1      25.576   0.634  52.360  1.00  0.00     0.156 C 
HETATM   16  C12 UNL     1      25.240  -0.776  52.752  1.00  0.00     0.091 C 
HETATM   17  C13 UNL     1      25.324  -0.888  54.269  1.00  0.00     0.011 C 
HETATM   18  C14 UNL     1      24.448  -0.986  55.323  1.00  0.00     0.025 C 
HETATM   19  C15 UNL     1      22.996  -0.961  55.239  1.00  0.00    -0.002 C 
HETATM   20  C16 UNL     1      22.320  -0.767  54.124  1.00  0.00    -0.022 C 
HETATM   21  C17 UNL     1      21.723  -0.540  52.828  1.00  0.00     0.068 C 
HETATM   22  N2  UNL     1      26.688  -0.491  54.812  1.00  0.00    -0.361 N 
HETATM   23  H3  UNL     1      23.802   3.367  53.564  1.00  0.00     0.160 HD
HETATM   24  H16 UNL     1      27.149  -0.994  55.648  1.00  0.00     0.165 HD
ENDROOT
TORSDOF 0
ENDMDL
MODEL 2
REMARK VINA RESULT:      -8.3      3.443      6.177
REMARK  0 active torsions:
REMARK  status: ('A' for Active; 'I' for Inactive)
ROOT
HETATM    1  F1  UNL     1      26.617  -1.500  52.625  1.00  0.00    -0.204 F 
HETATM    2  C1  UNL     1      26.174  -0.221  52.578  1.00  0.00     0.138 A 
HETATM    3  C2  UNL     1      26.477   0.738  51.595  1.00  0.00     0.053 A 
HETATM    4  C3  UNL     1      26.084   2.083  51.436  1.00  0.00    -0.025 A 
HETATM    5  C4  UNL     1      25.233   2.503  52.472  1.00  0.00     0.036 A 
HETATM    6  C5  UNL     1      24.909   1.594  53.459  1.00  0.00     0.056 A 
HETATM    7  C6  UNL     1      25.320   0.254  53.588  1.00  0.00     0.074 A 
HETATM    8 CL1  UNL     1      24.907  -0.893  54.843  1.00  0.00    -0.081 Cl
HETATM    9  N1  UNL     1      24.463   3.655  52.959  1.00  0.00    -0.382 N 
HETATM   10  C7  UNL     1      23.445   3.862  52.097  1.00  0.00     0.117 C 
HETATM   11  C8  UNL     1      22.183   4.733  52.427  1.00  0.00     0.086 C 
HETATM   12  C9  UNL     1      21.526   4.463  50.997  1.00  0.00     0.033 C 
HETATM   13  C10 UNL     1      20.527   3.581  51.004  1.00  0.00     0.160 C 
HETATM   14  O1  UNL     1      21.472   2.620  51.344  1.00  0.00    -0.353 OA
HETATM   15  C11 UNL     1      22.890   2.695  51.271  1.00  0.00     0.156 C 
HETATM   16  C12 UNL     1      23.299   2.789  49.830  1.00  0.00     0.091 C 
HETATM   17  C13 UNL     1      23.407   4.261  49.454  1.00  0.00     0.011 C 
HETATM   18  C14 UNL     1      24.411   5.168  49.211  1.00  0.00     0.025 C 
HETATM   19  C15 UNL     1      25.839   4.917  49.308  1.00  0.00    -0.002 C 
HETATM   20  C16 UNL     1      26.366   3.781  49.719  1.00  0.00    -0.022 C 
HETATM   21  C17 UNL     1      26.793   2.483  50.190  1.00  0.00     0.068 C 
HETATM   22  N2  UNL     1      22.115   5.026  49.696  1.00  0.00    -0.361 N 
HETATM   23  H3  UNL     1      24.750   4.140  53.824  1.00  0.00     0.160 HD
HETATM   24  H16 UNL     1      21.772   5.808  49.038  1.00  0.00     0.165 HD
ENDROOT
TORSDOF 0
ENDMDL
MODEL 3
REMARK VINA RESULT:      -7.8      3.471      5.680
REMARK  0 active torsions:
REMARK  status: ('A' for Active; 'I' for Inactive)
ROOT
HETATM    1  F1  UNL     1      27.034   0.776  55.090  1.00  0.00    -0.204 F 
HETATM    2  C1  UNL     1      26.432   1.156  53.938  1.00  0.00     0.138 A 
HETATM    3  C2  UNL     1      25.145   0.793  53.503  1.00  0.00     0.053 A 
HETATM    4  C3  UNL     1      24.416   1.119  52.340  1.00  0.00    -0.025 A 
HETATM    5  C4  UNL     1      25.145   1.964  51.487  1.00  0.00     0.036 A 
HETATM    6  C5  UNL     1      26.414   2.345  51.875  1.00  0.00     0.056 A 
HETATM    7  C6  UNL     1      27.115   2.001  53.046  1.00  0.00     0.074 A 
HETATM    8 CL1  UNL     1      28.724   2.486  53.531  1.00  0.00    -0.081 Cl
HETATM    9  N1  UNL     1      25.069   2.685  50.210  1.00  0.00    -0.382 N 
HETATM   10  C7  UNL     1      24.168   3.679  50.352  1.00  0.00     0.117 C 
HETATM   11  C8  UNL     1      24.053   4.902  49.377  1.00  0.00     0.086 C 
HETATM   12  C9  UNL     1      22.853   5.551  50.207  1.00  0.00     0.033 C 
HETATM   13  C10 UNL     1      23.202   6.591  50.964  1.00  0.00     0.160 C 
HETATM   14  O1  UNL     1      23.950   5.698  51.722  1.00  0.00    -0.353 OA
HETATM   15  C11 UNL     1      23.899   4.277  51.739  1.00  0.00     0.156 C 
HETATM   16  C12 UNL     1      22.569   3.844  52.284  1.00  0.00     0.091 C 
HETATM   17  C13 UNL     1      21.606   3.660  51.118  1.00  0.00     0.011 C 
HETATM   18  C14 UNL     1      21.034   2.610  50.440  1.00  0.00     0.025 C 
HETATM   19  C15 UNL     1      21.276   1.197  50.680  1.00  0.00    -0.002 C 
HETATM   20  C16 UNL     1      22.149   0.731  51.550  1.00  0.00    -0.022 C 
HETATM   21  C17 UNL     1      23.142   0.374  52.538  1.00  0.00     0.068 C 
HETATM   22  N2  UNL     1      21.456   4.917  50.276  1.00  0.00    -0.361 N 
HETATM   23  H3  UNL     1      25.654   2.387  49.413  1.00  0.00     0.160 HD
HETATM   24  H16 UNL     1      20.517   5.212  49.837  1.00  0.00     0.165 HD
ENDROOT
TORSDOF 0
ENDMDL
MODEL 4
REMARK VINA RESULT:      -7.6      3.031      5.076
REMARK  0 active torsions:
REMARK  status: ('A' for Active; 'I' for Inactive)
ROOT
HETATM    1  F1  UNL     1      24.265   7.250  48.013  1.00  0.00    -0.204 F 
HETATM    2  C1  UNL     1      24.071   5.959  48.372  1.00  0.00     0.138 A 
HETATM    3  C2  UNL     1      24.939   5.160  49.137  1.00  0.00     0.053 A 
HETATM    4  C3  UNL     1      24.851   3.821  49.572  1.00  0.00    -0.025 A 
HETATM    5  C4  UNL     1      23.662   3.209  49.141  1.00  0.00     0.036 A 
HETATM    6  C5  UNL     1      22.781   3.958  48.386  1.00  0.00     0.056 A 
HETATM    7  C6  UNL     1      22.900   5.297  47.968  1.00  0.00     0.074 A 
HETATM    8 CL1  UNL     1      21.779   6.238  47.010  1.00  0.00    -0.081 Cl
HETATM    9  N1  UNL     1      22.907   1.952  49.196  1.00  0.00    -0.382 N 
HETATM   10  C7  UNL     1      22.482   1.783  50.466  1.00  0.00     0.117 C 
HETATM   11  C8  UNL     1      21.345   0.786  50.883  1.00  0.00     0.086 C 
HETATM   12  C9  UNL     1      21.449   1.189  52.424  1.00  0.00     0.033 C 
HETATM   13  C10 UNL     1      20.473   1.988  52.855  1.00  0.00     0.160 C 
HETATM   14  O1  UNL     1      20.996   2.963  52.014  1.00  0.00    -0.353 OA
HETATM   15  C11 UNL     1      22.262   3.003  51.369  1.00  0.00     0.156 C 
HETATM   16  C12 UNL     1      23.335   3.126  52.411  1.00  0.00     0.091 C 
HETATM   17  C13 UNL     1      23.803   1.726  52.790  1.00  0.00     0.011 C 
HETATM   18  C14 UNL     1      24.902   0.934  52.562  1.00  0.00     0.025 C 
HETATM   19  C15 UNL     1      26.052   1.276  51.740  1.00  0.00    -0.002 C 
HETATM   20  C16 UNL     1      26.158   2.384  51.035  1.00  0.00    -0.022 C 
HETATM   21  C17 UNL     1      26.127   3.639  50.318  1.00  0.00     0.068 C 
HETATM   22  N2  UNL     1      22.669   0.844  53.290  1.00  0.00    -0.361 N 
HETATM   23  H3  UNL     1      22.790   1.381  48.343  1.00  0.00     0.160 HD
HETATM   24  H16 UNL     1      22.798   0.130  54.087  1.00  0.00     0.165 HD
ENDROOT
TORSDOF 0
ENDMDL
MODEL 5
REMARK VINA RESULT:      -7.5      7.122      9.042
REMARK  0 active torsions:
REMARK  status: ('A' for Active; 'I' for Inactive)
ROOT
HETATM    1  F1  UNL     1      22.656   4.418  49.571  1.00  0.00    -0.204 F 
HETATM    2  C1  UNL     1      23.743   5.215  49.696  1.00  0.00     0.138 A 
HETATM    3  C2  UNL     1      25.047   4.931  49.253  1.00  0.00     0.053 A 
HETATM    4  C3  UNL     1      26.248   5.668  49.322  1.00  0.00    -0.025 A 
HETATM    5  C4  UNL     1      26.064   6.908  49.956  1.00  0.00     0.036 A 
HETATM    6  C5  UNL     1      24.798   7.227  50.408  1.00  0.00     0.056 A 
HETATM    7  C6  UNL     1      23.617   6.465  50.323  1.00  0.00     0.074 A 
HETATM    8 CL1  UNL     1      22.017   6.875  50.900  1.00  0.00    -0.081 Cl
HETATM    9  N1  UNL     1      26.767   8.132  50.361  1.00  0.00    -0.382 N 
HETATM   10  C7  UNL     1      27.097   8.805  49.239  1.00  0.00     0.117 C 
HETATM   11  C8  UNL     1      27.516  10.316  49.217  1.00  0.00     0.086 C 
HETATM   12  C9  UNL     1      27.705  10.322  47.631  1.00  0.00     0.033 C 
HETATM   13  C10 UNL     1      26.718  10.912  46.958  1.00  0.00     0.160 C 
HETATM   14  O1  UNL     1      25.898   9.878  47.392  1.00  0.00    -0.353 OA
HETATM   15  C11 UNL     1      26.261   8.628  47.965  1.00  0.00     0.156 C 
HETATM   16  C12 UNL     1      26.984   7.811  46.933  1.00  0.00     0.091 C 
HETATM   17  C13 UNL     1      28.479   8.075  47.069  1.00  0.00     0.011 C 
HETATM   18  C14 UNL     1      29.580   7.408  47.549  1.00  0.00     0.025 C 
HETATM   19  C15 UNL     1      29.585   6.100  48.182  1.00  0.00    -0.002 C 
HETATM   20  C16 UNL     1      28.500   5.399  48.446  1.00  0.00    -0.022 C 
HETATM   21  C17 UNL     1      27.227   4.754  48.672  1.00  0.00     0.068 C 
HETATM   22  N2  UNL     1      28.830   9.548  46.929  1.00  0.00    -0.361 N 
HETATM   23  H3  UNL     1      26.922   8.332  51.362  1.00  0.00     0.160 HD
HETATM   24  H16 UNL     1      29.727   9.886  46.435  1.00  0.00     0.165 HD
ENDROOT
TORSDOF 0
ENDMDL
MODEL 6
REMARK VINA RESULT:      -7.4      4.480      6.936
REMARK  0 active torsions:
REMARK  status: ('A' for Active; 'I' for Inactive)
ROOT
HETATM    1  F1  UNL     1      21.819   0.701  51.050  1.00  0.00    -0.204 F 
HETATM    2  C1  UNL     1      22.517   1.859  51.136  1.00  0.00     0.138 A 
HETATM    3  C2  UNL     1      23.729   2.158  50.490  1.00  0.00     0.053 A 
HETATM    4  C3  UNL     1      24.543   3.310  50.498  1.00  0.00    -0.025 A 
HETATM    5  C4  UNL     1      24.007   4.322  51.312  1.00  0.00     0.036 A 
HETATM    6  C5  UNL     1      22.817   4.070  51.967  1.00  0.00     0.056 A 
HETATM    7  C6  UNL     1      22.028   2.904  51.937  1.00  0.00     0.074 A 
HETATM    8 CL1  UNL     1      20.522   2.591  52.771  1.00  0.00    -0.081 Cl
HETATM    9  N1  UNL     1      24.241   5.693  51.781  1.00  0.00    -0.382 N 
HETATM   10  C7  UNL     1      24.082   6.520  50.726  1.00  0.00     0.117 C 
HETATM   11  C8  UNL     1      23.872   8.069  50.853  1.00  0.00     0.086 C 
HETATM   12  C9  UNL     1      23.764   8.263  49.271  1.00  0.00     0.033 C 
HETATM   13  C10 UNL     1      22.524   8.450  48.820  1.00  0.00     0.160 C 
HETATM   14  O1  UNL     1      22.258   7.145  49.215  1.00  0.00    -0.353 OA
HETATM   15  C11 UNL     1      23.171   6.111  49.562  1.00  0.00     0.156 C 
HETATM   16  C12 UNL     1      23.961   5.731  48.344  1.00  0.00     0.091 C 
HETATM   17  C13 UNL     1      25.235   6.565  48.314  1.00  0.00     0.011 C 
HETATM   18  C14 UNL     1      26.575   6.368  48.550  1.00  0.00     0.025 C 
HETATM   19  C15 UNL     1      27.197   5.132  48.995  1.00  0.00    -0.002 C 
HETATM   20  C16 UNL     1      26.533   4.036  49.304  1.00  0.00    -0.022 C 
HETATM   21  C17 UNL     1      25.669   2.917  49.608  1.00  0.00     0.068 C 
HETATM   22  N2  UNL     1      24.958   8.061  48.328  1.00  0.00    -0.361 N 
HETATM   23  H3  UNL     1      24.479   5.868  52.771  1.00  0.00     0.160 HD
HETATM   24  H16 UNL     1      25.553   8.766  47.770  1.00  0.00     0.165 HD
ENDROOT
TORSDOF 0
ENDMDL
MODEL 7
REMARK VINA RESULT:      -7.3      3.552      6.219
REMARK  0 active torsions:
REMARK  status: ('A' for Active; 'I' for Inactive)
ROOT
HETATM    1  F1  UNL     1      27.909   1.387  52.098  1.00  0.00    -0.204 F 
HETATM    2  C1  UNL     1      26.689   1.974  52.049  1.00  0.00     0.138 A 
HETATM    3  C2  UNL     1      26.129   2.657  50.955  1.00  0.00     0.053 A 
HETATM    4  C3  UNL     1      24.887   3.302  50.781  1.00  0.00    -0.025 A 
HETATM    5  C4  UNL     1      24.092   3.224  51.937  1.00  0.00     0.036 A 
HETATM    6  C5  UNL     1      24.604   2.562  53.036  1.00  0.00     0.056 A 
HETATM    7  C6  UNL     1      25.852   1.928  53.176  1.00  0.00     0.074 A 
HETATM    8 CL1  UNL     1      26.495   1.093  54.573  1.00  0.00    -0.081 Cl
HETATM    9  N1  UNL     1      22.785   3.605  52.486  1.00  0.00    -0.382 N 
HETATM   10  C7  UNL     1      21.843   2.883  51.844  1.00  0.00     0.117 C 
HETATM   11  C8  UNL     1      20.375   2.700  52.364  1.00  0.00     0.086 C 
HETATM   12  C9  UNL     1      19.969   1.774  51.128  1.00  0.00     0.033 C 
HETATM   13  C10 UNL     1      19.896   0.473  51.410  1.00  0.00     0.160 C 
HETATM   14  O1  UNL     1      21.269   0.512  51.617  1.00  0.00    -0.353 OA
HETATM   15  C11 UNL     1      22.202   1.518  51.243  1.00  0.00     0.156 C 
HETATM   16  C12 UNL     1      22.284   1.573  49.745  1.00  0.00     0.091 C 
HETATM   17  C13 UNL     1      21.281   2.606  49.244  1.00  0.00     0.011 C 
HETATM   18  C14 UNL     1      21.319   3.879  48.729  1.00  0.00     0.025 C 
HETATM   19  C15 UNL     1      22.506   4.697  48.543  1.00  0.00    -0.002 C 
HETATM   20  C16 UNL     1      23.719   4.342  48.919  1.00  0.00    -0.022 C 
HETATM   21  C17 UNL     1      24.981   3.815  49.387  1.00  0.00     0.068 C 
HETATM   22  N2  UNL     1      19.859   2.309  49.693  1.00  0.00    -0.361 N 
HETATM   23  H3  UNL     1      22.726   4.316  53.233  1.00  0.00     0.160 HD
HETATM   24  H16 UNL     1      19.002   2.493  49.065  1.00  0.00     0.165 HD
ENDROOT
TORSDOF 0
ENDMDL
MODEL 8
REMARK VINA RESULT:      -7.3     11.378     13.254
REMARK  0 active torsions:
REMARK  status: ('A' for Active; 'I' for Inactive)
ROOT
HETATM    1  F1  UNL     1      31.653   6.052  40.475  1.00  0.00    -0.204 F 
HETATM    2  C1  UNL     1      32.480   5.869  41.531  1.00  0.00     0.138 A 
HETATM    3  C2  UNL     1      32.712   6.774  42.582  1.00  0.00     0.053 A 
HETATM    4  C3  UNL     1      33.538   6.702  43.724  1.00  0.00    -0.025 A 
HETATM    5  C4  UNL     1      34.239   5.487  43.785  1.00  0.00     0.036 A 
HETATM    6  C5  UNL     1      34.042   4.569  42.772  1.00  0.00     0.056 A 
HETATM    7  C6  UNL     1      33.208   4.673  41.643  1.00  0.00     0.074 A 
HETATM    8 CL1  UNL     1      32.965   3.506  40.362  1.00  0.00    -0.081 Cl
HETATM    9  N1  UNL     1      35.196   4.728  44.599  1.00  0.00    -0.382 N 
HETATM   10  C7  UNL     1      34.572   4.374  45.743  1.00  0.00     0.117 C 
HETATM   11  C8  UNL     1      35.091   3.255  46.712  1.00  0.00     0.086 C 
HETATM   12  C9  UNL     1      33.865   3.449  47.717  1.00  0.00     0.033 C 
HETATM   13  C10 UNL     1      32.929   2.504  47.637  1.00  0.00     0.160 C 
HETATM   14  O1  UNL     1      32.652   2.985  46.363  1.00  0.00    -0.353 OA
HETATM   15  C11 UNL     1      33.047   4.213  45.765  1.00  0.00     0.156 C 
HETATM   16  C12 UNL     1      32.378   5.345  46.490  1.00  0.00     0.091 C 
HETATM   17  C13 UNL     1      33.307   5.823  47.599  1.00  0.00     0.011 C 
HETATM   18  C14 UNL     1      34.124   6.903  47.834  1.00  0.00     0.025 C 
HETATM   19  C15 UNL     1      34.374   8.007  46.921  1.00  0.00    -0.002 C 
HETATM   20  C16 UNL     1      33.893   8.080  45.696  1.00  0.00    -0.022 C 
HETATM   21  C17 UNL     1      33.297   8.016  44.381  1.00  0.00     0.068 C 
HETATM   22  N2  UNL     1      33.684   4.714  48.569  1.00  0.00    -0.361 N 
HETATM   23  H3  UNL     1      36.153   4.559  44.250  1.00  0.00     0.160 HD
HETATM   24  H16 UNL     1      33.800   4.883  49.627  1.00  0.00     0.165 HD
ENDROOT
TORSDOF 0
ENDMDL
MODEL 9
REMARK VINA RESULT:      -7.2      3.002      4.324
REMARK  0 active torsions:
REMARK  status: ('A' for Active; 'I' for Inactive)
ROOT
HETATM    1  F1  UNL     1      18.413   0.156  50.451  1.00  0.00    -0.204 F 
HETATM    2  C1  UNL     1      19.352   0.981  50.973  1.00  0.00     0.138 A 
HETATM    3  C2  UNL     1      20.582   0.603  51.538  1.00  0.00     0.053 A 
HETATM    4  C3  UNL     1      21.630   1.356  52.107  1.00  0.00    -0.025 A 
HETATM    5  C4  UNL     1      21.355   2.733  52.085  1.00  0.00     0.036 A 
HETATM    6  C5  UNL     1      20.156   3.149  51.539  1.00  0.00     0.056 A 
HETATM    7  C6  UNL     1      19.129   2.368  50.978  1.00  0.00     0.074 A 
HETATM    8 CL1  UNL     1      17.611   2.903  50.290  1.00  0.00    -0.081 Cl
HETATM    9  N1  UNL     1      21.910   4.043  52.446  1.00  0.00    -0.382 N 
HETATM   10  C7  UNL     1      22.958   4.285  51.630  1.00  0.00     0.117 C 
HETATM   11  C8  UNL     1      23.595   5.702  51.420  1.00  0.00     0.086 C 
HETATM   12  C9  UNL     1      24.673   5.150  50.379  1.00  0.00     0.033 C 
HETATM   13  C10 UNL     1      24.405   5.429  49.104  1.00  0.00     0.160 C 
HETATM   14  O1  UNL     1      23.304   4.589  49.224  1.00  0.00    -0.353 OA
HETATM   15  C11 UNL     1      23.011   3.639  50.240  1.00  0.00     0.156 C 
HETATM   16  C12 UNL     1      24.025   2.533  50.178  1.00  0.00     0.091 C 
HETATM   17  C13 UNL     1      25.173   2.877  51.119  1.00  0.00     0.011 C 
HETATM   18  C14 UNL     1      25.629   2.462  52.347  1.00  0.00     0.025 C 
HETATM   19  C15 UNL     1      25.008   1.465  53.202  1.00  0.00    -0.002 C 
HETATM   20  C16 UNL     1      23.863   0.868  52.937  1.00  0.00    -0.022 C 
HETATM   21  C17 UNL     1      22.603   0.303  52.510  1.00  0.00     0.068 C 
HETATM   22  N2  UNL     1      25.818   4.215  50.792  1.00  0.00    -0.361 N 
HETATM   23  H3  UNL     1      21.485   4.592  53.211  1.00  0.00     0.160 HD
HETATM   24  H16 UNL     1      26.879   4.385  50.883  1.00  0.00     0.165 HD
ENDROOT
TORSDOF 0
ENDMDL
