MODEL 1
REMARK VINA RESULT:      -8.7      0.000      0.000
REMARK  6 active torsions:
REMARK  status: ('A' for Active; 'I' for Inactive)
REMARK    1  A    between atoms: C2_2  and  C3_3 
REMARK       I    between atoms: C3_3  and  N1_5 
REMARK    2  A    between atoms: N1_5  and  C4_6 
REMARK    3  A    between atoms: C7_9  and  N2_10 
REMARK    4  A    between atoms: N2_10  and  S1_11 
REMARK    5  A    between atoms: S1_11  and  C8_12 
REMARK    6  A    between atoms: C12_16  and  O2_17 
ROOT
HETATM    1  C4  UNL     1      22.532   2.649  50.833  1.00  0.00     0.138 C 
HETATM    2  C5  UNL     1      23.927   2.615  51.247  1.00  0.00     0.005 C 
HETATM    3  C6  UNL     1      24.410   1.804  52.199  1.00  0.00     0.030 C 
HETATM    4  C7  UNL     1      23.839   0.801  53.081  1.00  0.00     0.060 C 
HETATM    5  C14 UNL     1      22.652   0.315  53.355  1.00  0.00     0.089 C 
HETATM    6  C15 UNL     1      22.463  -0.763  54.329  1.00  0.00     0.103 C 
HETATM    7  N3  UNL     1      22.332  -1.638  55.117  1.00  0.00    -0.191 NA
HETATM    8  C16 UNL     1      21.282   0.832  53.121  1.00  0.00     0.141 C 
HETATM    9  N4  UNL     1      20.408   1.753  52.749  1.00  0.00    -0.271 NA
HETATM   10  C17 UNL     1      20.890   3.007  52.310  1.00  0.00     0.121 C 
HETATM   11  C18 UNL     1      21.744   3.633  51.540  1.00  0.00    -0.040 C 
HETATM   12  C19 UNL     1      21.785   5.096  51.551  1.00  0.00     0.047 C 
ENDROOT
BRANCH   4  13
HETATM   13  N2  UNL     1      24.865   0.161  53.879  1.00  0.00    -0.325 N 
HETATM   14  H10 UNL     1      24.676  -0.809  54.251  1.00  0.00     0.174 HD
BRANCH  13  15
HETATM   15  S1  UNL     1      26.292   1.175  54.082  1.00  0.00    -0.015 SA
BRANCH  15  16
HETATM   16  C8  UNL     1      27.723   0.143  53.775  1.00  0.00     0.024 A 
HETATM   17  C9  UNL     1      29.021   0.615  53.876  1.00  0.00     0.020 A 
HETATM   18  C10 UNL     1      30.093  -0.237  53.625  1.00  0.00     0.004 A 
HETATM   19  C11 UNL     1      29.817  -1.552  53.277  1.00  0.00     0.036 A 
HETATM   20  C12 UNL     1      28.521  -2.029  53.173  1.00  0.00     0.067 A 
HETATM   21  C13 UNL     1      27.474  -1.172  53.426  1.00  0.00     0.056 A 
BRANCH  20  22
HETATM   22  O2  UNL     1      28.355  -3.365  52.816  1.00  0.00    -0.361 OA
HETATM   23  H14 UNL     1      28.678  -3.584  51.875  1.00  0.00     0.217 HD
ENDBRANCH  20  22
ENDBRANCH  15  16
ENDBRANCH  13  15
ENDBRANCH   4  13
BRANCH   1  24
HETATM   24  N1  UNL     1      22.431   2.975  49.391  1.00  0.00    -0.349 N 
HETATM   25  C3  UNL     1      21.933   2.122  48.365  1.00  0.00     0.217 C 
HETATM   26  O1  UNL     1      21.519   0.957  48.638  1.00  0.00    -0.274 OA
HETATM   27  H6  UNL     1      22.795   3.950  49.272  1.00  0.00     0.163 HD
BRANCH  25  28
HETATM   28  C2  UNL     1      21.981   2.785  47.028  1.00  0.00     0.098 C 
HETATM   29  C1  UNL     1      22.110   4.273  47.283  1.00  0.00     0.014 C 
ENDBRANCH  25  28
ENDBRANCH   1  24
TORSDOF 6
ENDMDL
MODEL 2
REMARK VINA RESULT:      -7.9      3.653      6.510
REMARK  6 active torsions:
REMARK  status: ('A' for Active; 'I' for Inactive)
REMARK    1  A    between atoms: C2_2  and  C3_3 
REMARK       I    between atoms: C3_3  and  N1_5 
REMARK    2  A    between atoms: N1_5  and  C4_6 
REMARK    3  A    between atoms: C7_9  and  N2_10 
REMARK    4  A    between atoms: N2_10  and  S1_11 
REMARK    5  A    between atoms: S1_11  and  C8_12 
REMARK    6  A    between atoms: C12_16  and  O2_17 
ROOT
HETATM    1  C4  UNL     1      24.945   3.258  51.469  1.00  0.00     0.138 C 
HETATM    2  C5  UNL     1      23.787   2.489  51.041  1.00  0.00     0.005 C 
HETATM    3  C6  UNL     1      23.375   1.357  51.631  1.00  0.00     0.030 C 
HETATM    4  C7  UNL     1      23.842   0.551  52.744  1.00  0.00     0.060 C 
HETATM    5  C14 UNL     1      24.852   0.547  53.582  1.00  0.00     0.089 C 
HETATM    6  C15 UNL     1      24.976  -0.458  54.642  1.00  0.00     0.103 C 
HETATM    7  N3  UNL     1      25.056  -1.276  55.494  1.00  0.00    -0.191 NA
HETATM    8  C16 UNL     1      26.187   1.193  53.541  1.00  0.00     0.141 C 
HETATM    9  N4  UNL     1      27.153   1.884  52.960  1.00  0.00    -0.271 NA
HETATM   10  C17 UNL     1      26.970   2.319  51.627  1.00  0.00     0.121 C 
HETATM   11  C18 UNL     1      26.163   2.901  50.777  1.00  0.00    -0.040 C 
HETATM   12  C19 UNL     1      26.573   3.044  49.379  1.00  0.00     0.047 C 
ENDROOT
BRANCH   4  13
HETATM   13  N2  UNL     1      22.945  -0.558  53.001  1.00  0.00    -0.325 N 
HETATM   14  H10 UNL     1      23.168  -1.493  52.562  1.00  0.00     0.174 HD
BRANCH  13  15
HETATM   15  S1  UNL     1      21.597  -0.107  54.042  1.00  0.00    -0.015 SA
BRANCH  15  16
HETATM   16  C8  UNL     1      20.104  -0.233  53.060  1.00  0.00     0.024 A 
HETATM   17  C9  UNL     1      19.952   0.411  51.844  1.00  0.00     0.020 A 
HETATM   18  C10 UNL     1      18.767   0.274  51.127  1.00  0.00     0.004 A 
HETATM   19  C11 UNL     1      17.762  -0.517  51.666  1.00  0.00     0.036 A 
HETATM   20  C12 UNL     1      17.908  -1.163  52.883  1.00  0.00     0.067 A 
HETATM   21  C13 UNL     1      19.088  -1.016  53.577  1.00  0.00     0.056 A 
BRANCH  20  22
HETATM   22  O2  UNL     1      16.839  -1.932  53.334  1.00  0.00    -0.361 OA
HETATM   23  H14 UNL     1      16.985  -2.937  53.241  1.00  0.00     0.217 HD
ENDBRANCH  20  22
ENDBRANCH  15  16
ENDBRANCH  13  15
ENDBRANCH   4  13
BRANCH   1  24
HETATM   24  N1  UNL     1      24.722   4.703  51.225  1.00  0.00    -0.349 N 
HETATM   25  C3  UNL     1      23.691   5.505  51.792  1.00  0.00     0.217 C 
HETATM   26  O1  UNL     1      22.846   5.002  52.590  1.00  0.00    -0.274 OA
HETATM   27  H6  UNL     1      25.466   5.018  50.559  1.00  0.00     0.163 HD
BRANCH  25  28
HETATM   28  C2  UNL     1      23.774   6.919  51.320  1.00  0.00     0.098 C 
HETATM   29  C1  UNL     1      25.081   7.052  50.565  1.00  0.00     0.014 C 
ENDBRANCH  25  28
ENDBRANCH   1  24
TORSDOF 6
ENDMDL
MODEL 3
REMARK VINA RESULT:      -7.5      9.311     10.928
REMARK  6 active torsions:
REMARK  status: ('A' for Active; 'I' for Inactive)
REMARK    1  A    between atoms: C2_2  and  C3_3 
REMARK       I    between atoms: C3_3  and  N1_5 
REMARK    2  A    between atoms: N1_5  and  C4_6 
REMARK    3  A    between atoms: C7_9  and  N2_10 
REMARK    4  A    between atoms: N2_10  and  S1_11 
REMARK    5  A    between atoms: S1_11  and  C8_12 
REMARK    6  A    between atoms: C12_16  and  O2_17 
ROOT
HETATM    1  C4  UNL     1      29.498   7.714  48.012  1.00  0.00     0.138 C 
HETATM    2  C5  UNL     1      29.841   7.574  46.605  1.00  0.00     0.005 C 
HETATM    3  C6  UNL     1      31.097   7.534  46.138  1.00  0.00     0.030 C 
HETATM    4  C7  UNL     1      32.418   7.616  46.735  1.00  0.00     0.060 C 
HETATM    5  C14 UNL     1      32.933   7.811  47.926  1.00  0.00     0.089 C 
HETATM    6  C15 UNL     1      34.381   7.796  48.155  1.00  0.00     0.103 C 
HETATM    7  N3  UNL     1      35.553   7.775  48.321  1.00  0.00    -0.191 NA
HETATM    8  C16 UNL     1      32.378   8.392  49.172  1.00  0.00     0.141 C 
HETATM    9  N4  UNL     1      31.449   9.013  49.881  1.00  0.00    -0.271 NA
HETATM   10  C17 UNL     1      30.263   9.427  49.231  1.00  0.00     0.121 C 
HETATM   11  C18 UNL     1      29.292   9.084  48.423  1.00  0.00    -0.040 C 
HETATM   12  C19 UNL     1      28.271  10.071  48.067  1.00  0.00     0.047 C 
ENDROOT
BRANCH   4  13
HETATM   13  N2  UNL     1      33.455   7.432  45.739  1.00  0.00    -0.325 N 
HETATM   14  H10 UNL     1      34.223   8.155  45.678  1.00  0.00     0.174 HD
BRANCH  13  15
HETATM   15  S1  UNL     1      33.220   5.970  44.783  1.00  0.00    -0.015 SA
BRANCH  15  16
HETATM   16  C8  UNL     1      33.216   4.588  45.922  1.00  0.00     0.024 A 
HETATM   17  C9  UNL     1      32.263   3.585  45.877  1.00  0.00     0.020 A 
HETATM   18  C10 UNL     1      32.313   2.535  46.790  1.00  0.00     0.004 A 
HETATM   19  C11 UNL     1      33.335   2.532  47.729  1.00  0.00     0.036 A 
HETATM   20  C12 UNL     1      34.291   3.533  47.780  1.00  0.00     0.067 A 
HETATM   21  C13 UNL     1      34.225   4.563  46.868  1.00  0.00     0.056 A 
BRANCH  20  22
HETATM   22  O2  UNL     1      35.273   3.435  48.762  1.00  0.00    -0.361 OA
HETATM   23  H14 UNL     1      34.993   2.884  49.572  1.00  0.00     0.217 HD
ENDBRANCH  20  22
ENDBRANCH  15  16
ENDBRANCH  13  15
ENDBRANCH   4  13
BRANCH   1  24
HETATM   24  N1  UNL     1      28.242   6.985  48.310  1.00  0.00    -0.349 N 
HETATM   25  C3  UNL     1      28.099   5.576  48.461  1.00  0.00     0.217 C 
HETATM   26  O1  UNL     1      29.100   4.809  48.342  1.00  0.00    -0.274 OA
HETATM   27  H6  UNL     1      27.483   7.702  48.387  1.00  0.00     0.163 HD
BRANCH  25  28
HETATM   28  C2  UNL     1      26.686   5.196  48.757  1.00  0.00     0.098 C 
HETATM   29  C1  UNL     1      26.726   3.811  49.370  1.00  0.00     0.014 C 
ENDBRANCH  25  28
ENDBRANCH   1  24
TORSDOF 6
ENDMDL
MODEL 4
REMARK VINA RESULT:      -7.4      6.532      8.405
REMARK  6 active torsions:
REMARK  status: ('A' for Active; 'I' for Inactive)
REMARK    1  A    between atoms: C2_2  and  C3_3 
REMARK       I    between atoms: C3_3  and  N1_5 
REMARK    2  A    between atoms: N1_5  and  C4_6 
REMARK    3  A    between atoms: C7_9  and  N2_10 
REMARK    4  A    between atoms: N2_10  and  S1_11 
REMARK    5  A    between atoms: S1_11  and  C8_12 
REMARK    6  A    between atoms: C12_16  and  O2_17 
ROOT
HETATM    1  C4  UNL     1      25.216   3.541  50.623  1.00  0.00     0.138 C 
HETATM    2  C5  UNL     1      26.127   3.573  49.488  1.00  0.00     0.005 C 
HETATM    3  C6  UNL     1      26.629   4.698  48.958  1.00  0.00     0.030 C 
HETATM    4  C7  UNL     1      26.487   6.116  49.234  1.00  0.00     0.060 C 
HETATM    5  C14 UNL     1      25.797   6.881  50.047  1.00  0.00     0.089 C 
HETATM    6  C15 UNL     1      25.949   8.338  50.056  1.00  0.00     0.103 C 
HETATM    7  N3  UNL     1      26.091   9.514  50.050  1.00  0.00    -0.191 NA
HETATM    8  C16 UNL     1      24.563   6.644  50.835  1.00  0.00     0.141 C 
HETATM    9  N4  UNL     1      23.510   5.936  51.207  1.00  0.00    -0.271 NA
HETATM   10  C17 UNL     1      23.289   4.678  50.599  1.00  0.00     0.121 C 
HETATM   11  C18 UNL     1      23.821   3.536  50.243  1.00  0.00    -0.040 C 
HETATM   12  C19 UNL     1      23.000   2.546  49.545  1.00  0.00     0.047 C 
ENDROOT
BRANCH   4  13
HETATM   13  N2  UNL     1      27.345   6.906  48.374  1.00  0.00    -0.325 N 
HETATM   14  H10 UNL     1      26.965   7.812  47.986  1.00  0.00     0.174 HD
BRANCH  13  15
HETATM   15  S1  UNL     1      28.925   6.164  48.133  1.00  0.00    -0.015 SA
BRANCH  15  16
HETATM   16  C8  UNL     1      30.136   7.484  48.139  1.00  0.00     0.024 A 
HETATM   17  C9  UNL     1      31.292   7.441  47.378  1.00  0.00     0.020 A 
HETATM   18  C10 UNL     1      32.195   8.499  47.425  1.00  0.00     0.004 A 
HETATM   19  C11 UNL     1      31.900   9.578  48.246  1.00  0.00     0.036 A 
HETATM   20  C12 UNL     1      30.745   9.626  49.010  1.00  0.00     0.067 A 
HETATM   21  C13 UNL     1      29.864   8.570  48.950  1.00  0.00     0.056 A 
BRANCH  20  22
HETATM   22  O2  UNL     1      30.545  10.754  49.801  1.00  0.00    -0.361 OA
HETATM   23  H14 UNL     1      31.149  10.796  50.620  1.00  0.00     0.217 HD
ENDBRANCH  20  22
ENDBRANCH  15  16
ENDBRANCH  13  15
ENDBRANCH   4  13
BRANCH   1  24
HETATM   24  N1  UNL     1      25.445   2.320  51.431  1.00  0.00    -0.349 N 
HETATM   25  C3  UNL     1      25.141   2.153  52.812  1.00  0.00     0.217 C 
HETATM   26  O1  UNL     1      24.624   3.097  53.479  1.00  0.00    -0.274 OA
HETATM   27  H6  UNL     1      25.871   1.607  50.793  1.00  0.00     0.163 HD
BRANCH  25  28
HETATM   28  C2  UNL     1      25.508   0.788  53.293  1.00  0.00     0.098 C 
HETATM   29  C1  UNL     1      26.371   0.162  52.216  1.00  0.00     0.014 C 
ENDBRANCH  25  28
ENDBRANCH   1  24
TORSDOF 6
ENDMDL
MODEL 5
REMARK VINA RESULT:      -7.4      6.069      7.772
REMARK  6 active torsions:
REMARK  status: ('A' for Active; 'I' for Inactive)
REMARK    1  A    between atoms: C2_2  and  C3_3 
REMARK       I    between atoms: C3_3  and  N1_5 
REMARK    2  A    between atoms: N1_5  and  C4_6 
REMARK    3  A    between atoms: C7_9  and  N2_10 
REMARK    4  A    between atoms: N2_10  and  S1_11 
REMARK    5  A    between atoms: S1_11  and  C8_12 
REMARK    6  A    between atoms: C12_16  and  O2_17 
ROOT
HETATM    1  C4  UNL     1      24.776   3.872  50.262  1.00  0.00     0.138 C 
HETATM    2  C5  UNL     1      25.931   3.741  49.387  1.00  0.00     0.005 C 
HETATM    3  C6  UNL     1      26.732   4.759  49.041  1.00  0.00     0.030 C 
HETATM    4  C7  UNL     1      26.769   6.182  49.330  1.00  0.00     0.060 C 
HETATM    5  C14 UNL     1      26.038   7.058  49.979  1.00  0.00     0.089 C 
HETATM    6  C15 UNL     1      26.428   8.466  50.082  1.00  0.00     0.103 C 
HETATM    7  N3  UNL     1      26.764   9.600  50.158  1.00  0.00    -0.191 NA
HETATM    8  C16 UNL     1      24.626   7.042  50.431  1.00  0.00     0.141 C 
HETATM    9  N4  UNL     1      23.409   6.529  50.504  1.00  0.00    -0.271 NA
HETATM   10  C17 UNL     1      23.136   5.327  49.812  1.00  0.00     0.121 C 
HETATM   11  C18 UNL     1      23.538   4.109  49.552  1.00  0.00    -0.040 C 
HETATM   12  C19 UNL     1      22.761   3.274  48.636  1.00  0.00     0.047 C 
ENDROOT
BRANCH   4  13
HETATM   13  N2  UNL     1      27.934   6.807  48.738  1.00  0.00    -0.325 N 
HETATM   14  H10 UNL     1      27.960   7.861  48.680  1.00  0.00     0.174 HD
BRANCH  13  15
HETATM   15  S1  UNL     1      29.133   5.630  48.207  1.00  0.00    -0.015 SA
BRANCH  15  16
HETATM   16  C8  UNL     1      30.745   6.375  48.438  1.00  0.00     0.024 A 
HETATM   17  C9  UNL     1      30.940   7.746  48.457  1.00  0.00     0.020 A 
HETATM   18  C10 UNL     1      32.218   8.265  48.641  1.00  0.00     0.004 A 
HETATM   19  C11 UNL     1      33.271   7.374  48.803  1.00  0.00     0.036 A 
HETATM   20  C12 UNL     1      33.082   6.002  48.784  1.00  0.00     0.067 A 
HETATM   21  C13 UNL     1      31.810   5.508  48.601  1.00  0.00     0.056 A 
BRANCH  20  22
HETATM   22  O2  UNL     1      34.205   5.197  48.954  1.00  0.00    -0.361 OA
HETATM   23  H14 UNL     1      34.528   5.138  49.919  1.00  0.00     0.217 HD
ENDBRANCH  20  22
ENDBRANCH  15  16
ENDBRANCH  13  15
ENDBRANCH   4  13
BRANCH   1  24
HETATM   24  N1  UNL     1      24.586   2.633  51.052  1.00  0.00    -0.349 N 
HETATM   25  C3  UNL     1      24.285   2.556  52.442  1.00  0.00     0.217 C 
HETATM   26  O1  UNL     1      24.153   3.608  53.134  1.00  0.00    -0.274 OA
HETATM   27  H6  UNL     1      24.715   1.828  50.394  1.00  0.00     0.163 HD
BRANCH  25  28
HETATM   28  C2  UNL     1      24.165   1.140  52.900  1.00  0.00     0.098 C 
HETATM   29  C1  UNL     1      25.510   0.485  52.655  1.00  0.00     0.014 C 
ENDBRANCH  25  28
ENDBRANCH   1  24
TORSDOF 6
ENDMDL
MODEL 6
REMARK VINA RESULT:      -7.4      4.044      7.092
REMARK  6 active torsions:
REMARK  status: ('A' for Active; 'I' for Inactive)
REMARK    1  A    between atoms: C2_2  and  C3_3 
REMARK       I    between atoms: C3_3  and  N1_5 
REMARK    2  A    between atoms: N1_5  and  C4_6 
REMARK    3  A    between atoms: C7_9  and  N2_10 
REMARK    4  A    between atoms: N2_10  and  S1_11 
REMARK    5  A    between atoms: S1_11  and  C8_12 
REMARK    6  A    between atoms: C12_16  and  O2_17 
ROOT
HETATM    1  C4  UNL     1      24.315   3.746  50.637  1.00  0.00     0.138 C 
HETATM    2  C5  UNL     1      23.362   3.274  49.643  1.00  0.00     0.005 C 
HETATM    3  C6  UNL     1      22.563   2.210  49.813  1.00  0.00     0.030 C 
HETATM    4  C7  UNL     1      22.359   1.237  50.872  1.00  0.00     0.060 C 
HETATM    5  C14 UNL     1      22.880   0.956  52.043  1.00  0.00     0.089 C 
HETATM    6  C15 UNL     1      22.367  -0.134  52.877  1.00  0.00     0.103 C 
HETATM    7  N3  UNL     1      21.934  -1.016  53.539  1.00  0.00    -0.191 NA
HETATM    8  C16 UNL     1      24.177   1.308  52.671  1.00  0.00     0.141 C 
HETATM    9  N4  UNL     1      25.394   1.826  52.670  1.00  0.00    -0.271 NA
HETATM   10  C17 UNL     1      25.889   2.394  51.474  1.00  0.00     0.121 C 
HETATM   11  C18 UNL     1      25.642   3.198  50.470  1.00  0.00    -0.040 C 
HETATM   12  C19 UNL     1      26.644   3.364  49.417  1.00  0.00     0.047 C 
ENDROOT
BRANCH   4  13
HETATM   13  N2  UNL     1      21.282   0.324  50.544  1.00  0.00    -0.325 N 
HETATM   14  H10 UNL     1      21.470  -0.713  50.610  1.00  0.00     0.174 HD
BRANCH  13  15
HETATM   15  S1  UNL     1      19.805   1.164  50.080  1.00  0.00    -0.015 SA
BRANCH  15  16
HETATM   16  C8  UNL     1      18.436   0.268  50.808  1.00  0.00     0.024 A 
HETATM   17  C9  UNL     1      17.275  -0.020  50.110  1.00  0.00     0.020 A 
HETATM   18  C10 UNL     1      16.245  -0.721  50.731  1.00  0.00     0.004 A 
HETATM   19  C11 UNL     1      16.421  -1.113  52.051  1.00  0.00     0.036 A 
HETATM   20  C12 UNL     1      17.579  -0.826  52.754  1.00  0.00     0.067 A 
HETATM   21  C13 UNL     1      18.587  -0.132  52.123  1.00  0.00     0.056 A 
BRANCH  20  22
HETATM   22  O2  UNL     1      17.654  -1.264  54.074  1.00  0.00    -0.361 OA
HETATM   23  H14 UNL     1      18.603  -1.458  54.391  1.00  0.00     0.217 HD
ENDBRANCH  20  22
ENDBRANCH  15  16
ENDBRANCH  13  15
ENDBRANCH   4  13
BRANCH   1  24
HETATM   24  N1  UNL     1      24.447   5.220  50.561  1.00  0.00    -0.349 N 
HETATM   25  C3  UNL     1      23.565   6.178  51.136  1.00  0.00     0.217 C 
HETATM   26  O1  UNL     1      22.545   5.807  51.790  1.00  0.00    -0.274 OA
HETATM   27  H6  UNL     1      25.312   5.421  50.005  1.00  0.00     0.163 HD
BRANCH  25  28
HETATM   28  C2  UNL     1      24.013   7.575  50.857  1.00  0.00     0.098 C 
HETATM   29  C1  UNL     1      23.679   7.859  49.406  1.00  0.00     0.014 C 
ENDBRANCH  25  28
ENDBRANCH   1  24
TORSDOF 6
ENDMDL
MODEL 7
REMARK VINA RESULT:      -7.1      4.095      6.154
REMARK  6 active torsions:
REMARK  status: ('A' for Active; 'I' for Inactive)
REMARK    1  A    between atoms: C2_2  and  C3_3 
REMARK       I    between atoms: C3_3  and  N1_5 
REMARK    2  A    between atoms: N1_5  and  C4_6 
REMARK    3  A    between atoms: C7_9  and  N2_10 
REMARK    4  A    between atoms: N2_10  and  S1_11 
REMARK    5  A    between atoms: S1_11  and  C8_12 
REMARK    6  A    between atoms: C12_16  and  O2_17 
ROOT
HETATM    1  C4  UNL     1      25.211   5.547  49.212  1.00  0.00     0.138 C 
HETATM    2  C5  UNL     1      25.409   4.804  50.447  1.00  0.00     0.005 C 
HETATM    3  C6  UNL     1      24.769   3.665  50.750  1.00  0.00     0.030 C 
HETATM    4  C7  UNL     1      23.767   2.844  50.094  1.00  0.00     0.060 C 
HETATM    5  C14 UNL     1      23.047   2.885  48.998  1.00  0.00     0.089 C 
HETATM    6  C15 UNL     1      22.120   1.807  48.640  1.00  0.00     0.103 C 
HETATM    7  N3  UNL     1      21.380   0.924  48.366  1.00  0.00    -0.191 NA
HETATM    8  C16 UNL     1      22.678   3.993  48.085  1.00  0.00     0.141 C 
HETATM    9  N4  UNL     1      22.625   5.264  47.723  1.00  0.00    -0.271 NA
HETATM   10  C17 UNL     1      23.178   6.240  48.584  1.00  0.00     0.121 C 
HETATM   11  C18 UNL     1      24.208   6.583  49.316  1.00  0.00    -0.040 C 
HETATM   12  C19 UNL     1      24.162   7.828  50.083  1.00  0.00     0.047 C 
ENDROOT
BRANCH   4  13
HETATM   13  N2  UNL     1      23.484   1.648  50.863  1.00  0.00    -0.325 N 
HETATM   14  H10 UNL     1      23.416   0.729  50.349  1.00  0.00     0.174 HD
BRANCH  13  15
HETATM   15  S1  UNL     1      23.302   1.982  52.584  1.00  0.00    -0.015 SA
BRANCH  15  16
HETATM   16  C8  UNL     1      22.403   0.607  53.297  1.00  0.00     0.024 A 
HETATM   17  C9  UNL     1      23.005  -0.340  54.108  1.00  0.00     0.020 A 
HETATM   18  C10 UNL     1      22.253  -1.387  54.634  1.00  0.00     0.004 A 
HETATM   19  C11 UNL     1      20.902  -1.444  54.321  1.00  0.00     0.036 A 
HETATM   20  C12 UNL     1      20.294  -0.500  53.510  1.00  0.00     0.067 A 
HETATM   21  C13 UNL     1      21.055   0.528  53.000  1.00  0.00     0.056 A 
BRANCH  20  22
HETATM   22  O2  UNL     1      18.933  -0.651  53.257  1.00  0.00    -0.361 OA
HETATM   23  H14 UNL     1      18.699  -1.504  52.752  1.00  0.00     0.217 HD
ENDBRANCH  20  22
ENDBRANCH  15  16
ENDBRANCH  13  15
ENDBRANCH   4  13
BRANCH   1  24
HETATM   24  N1  UNL     1      26.472   6.212  48.805  1.00  0.00    -0.349 N 
HETATM   25  C3  UNL     1      27.710   5.570  48.518  1.00  0.00     0.217 C 
HETATM   26  O1  UNL     1      27.819   4.311  48.599  1.00  0.00    -0.274 OA
HETATM   27  H6  UNL     1      26.277   7.240  48.768  1.00  0.00     0.163 HD
BRANCH  25  28
HETATM   28  C2  UNL     1      28.765   6.556  48.139  1.00  0.00     0.098 C 
HETATM   29  C1  UNL     1      28.101   7.584  47.246  1.00  0.00     0.014 C 
ENDBRANCH  25  28
ENDBRANCH   1  24
TORSDOF 6
ENDMDL
MODEL 8
REMARK VINA RESULT:      -7.0      3.922      7.973
REMARK  6 active torsions:
REMARK  status: ('A' for Active; 'I' for Inactive)
REMARK    1  A    between atoms: C2_2  and  C3_3 
REMARK       I    between atoms: C3_3  and  N1_5 
REMARK    2  A    between atoms: N1_5  and  C4_6 
REMARK    3  A    between atoms: C7_9  and  N2_10 
REMARK    4  A    between atoms: N2_10  and  S1_11 
REMARK    5  A    between atoms: S1_11  and  C8_12 
REMARK    6  A    between atoms: C12_16  and  O2_17 
ROOT
HETATM    1  C4  UNL     1      24.328   0.346  52.851  1.00  0.00     0.138 C 
HETATM    2  C5  UNL     1      23.231  -0.030  53.730  1.00  0.00     0.005 C 
HETATM    3  C6  UNL     1      21.937   0.024  53.384  1.00  0.00     0.030 C 
HETATM    4  C7  UNL     1      21.207   0.429  52.196  1.00  0.00     0.060 C 
HETATM    5  C14 UNL     1      21.480   0.945  51.020  1.00  0.00     0.089 C 
HETATM    6  C15 UNL     1      20.434   1.199  50.025  1.00  0.00     0.103 C 
HETATM    7  N3  UNL     1      19.575   1.392  49.233  1.00  0.00    -0.191 NA
HETATM    8  C16 UNL     1      22.657   1.682  50.501  1.00  0.00     0.141 C 
HETATM    9  N4  UNL     1      23.826   2.288  50.623  1.00  0.00    -0.271 NA
HETATM   10  C17 UNL     1      24.417   2.372  51.905  1.00  0.00     0.121 C 
HETATM   11  C18 UNL     1      24.737   1.725  52.997  1.00  0.00    -0.040 C 
HETATM   12  C19 UNL     1      25.365   2.447  54.103  1.00  0.00     0.047 C 
ENDROOT
BRANCH   4  13
HETATM   13  N2  UNL     1      19.784   0.202  52.352  1.00  0.00    -0.325 N 
HETATM   14  H10 UNL     1      19.125   0.691  51.687  1.00  0.00     0.174 HD
BRANCH  13  15
HETATM   15  S1  UNL     1      19.420  -0.897  53.680  1.00  0.00    -0.015 SA
BRANCH  15  16
HETATM   16  C8  UNL     1      17.916  -1.769  53.248  1.00  0.00     0.024 A 
HETATM   17  C9  UNL     1      16.910  -1.195  52.489  1.00  0.00     0.020 A 
HETATM   18  C10 UNL     1      15.764  -1.925  52.186  1.00  0.00     0.004 A 
HETATM   19  C11 UNL     1      15.669  -3.225  52.664  1.00  0.00     0.036 A 
HETATM   20  C12 UNL     1      16.672  -3.804  53.424  1.00  0.00     0.067 A 
HETATM   21  C13 UNL     1      17.798  -3.066  53.713  1.00  0.00     0.056 A 
BRANCH  20  22
HETATM   22  O2  UNL     1      16.477  -5.114  53.854  1.00  0.00    -0.361 OA
HETATM   23  H14 UNL     1      17.341  -5.637  53.990  1.00  0.00     0.217 HD
ENDBRANCH  20  22
ENDBRANCH  15  16
ENDBRANCH  13  15
ENDBRANCH   4  13
BRANCH   1  24
HETATM   24  N1  UNL     1      25.521  -0.487  53.131  1.00  0.00    -0.349 N 
HETATM   25  C3  UNL     1      26.696  -0.576  52.331  1.00  0.00     0.217 C 
HETATM   26  O1  UNL     1      26.802   0.094  51.262  1.00  0.00    -0.274 OA
HETATM   27  H6  UNL     1      25.334  -0.997  54.027  1.00  0.00     0.163 HD
BRANCH  25  28
HETATM   28  C2  UNL     1      27.693  -1.516  52.923  1.00  0.00     0.098 C 
HETATM   29  C1  UNL     1      28.712  -0.667  53.656  1.00  0.00     0.014 C 
ENDBRANCH  25  28
ENDBRANCH   1  24
TORSDOF 6
ENDMDL
MODEL 9
REMARK VINA RESULT:      -6.9      4.310      5.786
REMARK  6 active torsions:
REMARK  status: ('A' for Active; 'I' for Inactive)
REMARK    1  A    between atoms: C2_2  and  C3_3 
REMARK       I    between atoms: C3_3  and  N1_5 
REMARK    2  A    between atoms: N1_5  and  C4_6 
REMARK    3  A    between atoms: C7_9  and  N2_10 
REMARK    4  A    between atoms: N2_10  and  S1_11 
REMARK    5  A    between atoms: S1_11  and  C8_12 
REMARK    6  A    between atoms: C12_16  and  O2_17 
ROOT
HETATM    1  C4  UNL     1      25.823   7.335  48.535  1.00  0.00     0.138 C 
HETATM    2  C5  UNL     1      26.591   6.106  48.672  1.00  0.00     0.005 C 
HETATM    3  C6  UNL     1      26.110   4.973  49.204  1.00  0.00     0.030 C 
HETATM    4  C7  UNL     1      24.843   4.569  49.786  1.00  0.00     0.060 C 
HETATM    5  C14 UNL     1      23.691   5.123  50.080  1.00  0.00     0.089 C 
HETATM    6  C15 UNL     1      22.586   4.353  50.658  1.00  0.00     0.103 C 
HETATM    7  N3  UNL     1      21.704   3.712  51.120  1.00  0.00    -0.191 NA
HETATM    8  C16 UNL     1      23.280   6.536  50.267  1.00  0.00     0.141 C 
HETATM    9  N4  UNL     1      23.510   7.834  50.376  1.00  0.00    -0.271 NA
HETATM   10  C17 UNL     1      24.844   8.296  50.304  1.00  0.00     0.121 C 
HETATM   11  C18 UNL     1      25.978   8.239  49.652  1.00  0.00    -0.040 C 
HETATM   12  C19 UNL     1      27.128   9.002  50.141  1.00  0.00     0.047 C 
ENDROOT
BRANCH   4  13
HETATM   13  N2  UNL     1      24.854   3.163  50.140  1.00  0.00    -0.325 N 
HETATM   14  H10 UNL     1      23.992   2.590  49.935  1.00  0.00     0.174 HD
BRANCH  13  15
HETATM   15  S1  UNL     1      26.375   2.667  50.878  1.00  0.00    -0.015 SA
BRANCH  15  16
HETATM   16  C8  UNL     1      26.005   1.319  51.998  1.00  0.00     0.024 A 
HETATM   17  C9  UNL     1      24.717   1.015  52.402  1.00  0.00     0.020 A 
HETATM   18  C10 UNL     1      24.493  -0.047  53.275  1.00  0.00     0.004 A 
HETATM   19  C11 UNL     1      25.590  -0.774  53.717  1.00  0.00     0.036 A 
HETATM   20  C12 UNL     1      26.881  -0.474  53.316  1.00  0.00     0.067 A 
HETATM   21  C13 UNL     1      27.082   0.579  52.452  1.00  0.00     0.056 A 
BRANCH  20  22
HETATM   22  O2  UNL     1      27.910  -1.266  53.819  1.00  0.00    -0.361 OA
HETATM   23  H14 UNL     1      28.843  -0.904  53.624  1.00  0.00     0.217 HD
ENDBRANCH  20  22
ENDBRANCH  15  16
ENDBRANCH  13  15
ENDBRANCH   4  13
BRANCH   1  24
HETATM   24  N1  UNL     1      26.246   8.074  47.323  1.00  0.00    -0.349 N 
HETATM   25  C3  UNL     1      25.475   8.272  46.143  1.00  0.00     0.217 C 
HETATM   26  O1  UNL     1      24.304   7.799  46.049  1.00  0.00    -0.274 OA
HETATM   27  H6  UNL     1      27.218   8.421  47.500  1.00  0.00     0.163 HD
BRANCH  25  28
HETATM   28  C2  UNL     1      26.223   9.066  45.124  1.00  0.00     0.098 C 
HETATM   29  C1  UNL     1      27.678   8.657  45.234  1.00  0.00     0.014 C 
ENDBRANCH  25  28
ENDBRANCH   1  24
TORSDOF 6
ENDMDL
