MODEL 1
REMARK VINA RESULT:      -9.1      0.000      0.000
REMARK  7 active torsions:
REMARK  status: ('A' for Active; 'I' for Inactive)
REMARK    1  A    between atoms: C1_2  and  C2_3 
REMARK    2  A    between atoms: C1_2  and  C9_12 
REMARK    3  A    between atoms: C2_3  and  N1_4 
REMARK    4  A    between atoms: C7_9  and  C8_10 
REMARK    5  A    between atoms: C8_10  and  O2_11 
REMARK    6  A    between atoms: C12_15  and  N2_16 
REMARK    7  A    between atoms: N2_16  and  C13_17 
ROOT
HETATM    1  C9  UNL     1      23.634   0.412  53.391  1.00  0.00     0.055 A 
HETATM    2  C10 UNL     1      23.811   1.712  52.904  1.00  0.00     0.041 A 
HETATM    3  C11 UNL     1      22.683   2.359  52.505  1.00  0.00     0.047 A 
HETATM    4  C12 UNL     1      22.621   3.636  51.994  1.00  0.00     0.142 A 
HETATM    5  N3  UNL     1      21.450   4.166  51.630  1.00  0.00    -0.223 NA
HETATM    6  C19 UNL     1      20.263   3.544  51.720  1.00  0.00     0.236 A 
HETATM    7  N4  UNL     1      20.313   2.299  52.218  1.00  0.00    -0.234 NA
HETATM    8  C20 UNL     1      21.464   1.747  52.587  1.00  0.00     0.113 A 
HETATM    9  S1  UNL     1      21.871   0.166  53.259  1.00  0.00    -0.066 SA
ENDROOT
BRANCH   1  10
HETATM   10  C1  UNL     1      24.586  -0.611  53.913  1.00  0.00     0.184 C 
HETATM   11  O1  UNL     1      24.221  -1.043  55.032  1.00  0.00    -0.290 OA
BRANCH  10  12
HETATM   12  C2  UNL     1      25.694  -0.853  52.999  1.00  0.00     0.207 C 
BRANCH  12  13
HETATM   13  N1  UNL     1      27.013  -0.576  53.411  1.00  0.00    -0.373 N 
HETATM   14  C3  UNL     1      27.930  -1.569  52.887  1.00  0.00     0.087 A 
HETATM   15  C4  UNL     1      29.214  -1.644  53.173  1.00  0.00     0.017 A 
HETATM   16  C5  UNL     1      29.790  -0.651  54.075  1.00  0.00    -0.001 A 
HETATM   17  C6  UNL     1      28.974   0.273  54.522  1.00  0.00     0.000 A 
HETATM   18  C7  UNL     1      27.493   0.487  54.231  1.00  0.00     0.130 A 
BRANCH  18  19
HETATM   19  C8  UNL     1      27.511   1.766  53.364  1.00  0.00     0.193 C 
BRANCH  19  20
HETATM   20  O2  UNL     1      27.707   2.919  54.040  1.00  0.00    -0.399 OA
HETATM   21  H10 UNL     1      28.481   3.464  53.736  1.00  0.00     0.209 HD
ENDBRANCH  19  20
ENDBRANCH  18  19
ENDBRANCH  12  13
ENDBRANCH  10  12
ENDBRANCH   1  10
BRANCH   4  22
HETATM   22  N2  UNL     1      23.680   4.539  51.785  1.00  0.00    -0.340 N 
HETATM   23  H12 UNL     1      23.526   5.267  52.512  1.00  0.00     0.167 HD
BRANCH  22  24
HETATM   24  C13 UNL     1      24.739   4.574  50.872  1.00  0.00     0.035 A 
HETATM   25  C14 UNL     1      25.544   3.480  50.642  1.00  0.00     0.032 A 
HETATM   26  C15 UNL     1      26.574   3.498  49.756  1.00  0.00     0.046 A 
HETATM   27  C16 UNL     1      26.833   4.664  49.051  1.00  0.00     0.138 A 
HETATM   28  F1  UNL     1      27.836   4.768  48.147  1.00  0.00    -0.204 F 
HETATM   29  C17 UNL     1      26.021   5.754  49.290  1.00  0.00     0.074 A 
HETATM   30 CL1  UNL     1      26.350   7.231  48.392  1.00  0.00    -0.081 Cl
HETATM   31  C18 UNL     1      24.963   5.759  50.189  1.00  0.00     0.056 A 
ENDBRANCH  22  24
ENDBRANCH   4  22
TORSDOF 7
ENDMDL
MODEL 2
REMARK VINA RESULT:      -9.1      1.750      2.128
REMARK  7 active torsions:
REMARK  status: ('A' for Active; 'I' for Inactive)
REMARK    1  A    between atoms: C1_2  and  C2_3 
REMARK    2  A    between atoms: C1_2  and  C9_12 
REMARK    3  A    between atoms: C2_3  and  N1_4 
REMARK    4  A    between atoms: C7_9  and  C8_10 
REMARK    5  A    between atoms: C8_10  and  O2_11 
REMARK    6  A    between atoms: C12_15  and  N2_16 
REMARK    7  A    between atoms: N2_16  and  C13_17 
ROOT
HETATM    1  C9  UNL     1      23.838  -0.189  53.842  1.00  0.00     0.055 A 
HETATM    2  C10 UNL     1      23.713   0.529  52.647  1.00  0.00     0.041 A 
HETATM    3  C11 UNL     1      22.460   0.600  52.122  1.00  0.00     0.047 A 
HETATM    4  C12 UNL     1      22.107   1.248  50.959  1.00  0.00     0.142 A 
HETATM    5  N3  UNL     1      20.839   1.246  50.538  1.00  0.00    -0.223 NA
HETATM    6  C19 UNL     1      19.819   0.642  51.172  1.00  0.00     0.236 A 
HETATM    7  N4  UNL     1      20.154   0.008  52.307  1.00  0.00    -0.234 NA
HETATM    8  C20 UNL     1      21.408  -0.006  52.748  1.00  0.00     0.113 A 
HETATM    9  S1  UNL     1      22.168  -0.733  54.165  1.00  0.00    -0.066 SA
ENDROOT
BRANCH   1  10
HETATM   10  C1  UNL     1      25.004  -0.498  54.719  1.00  0.00     0.184 C 
HETATM   11  O1  UNL     1      24.759  -1.466  55.478  1.00  0.00    -0.290 OA
BRANCH  10  12
HETATM   12  C2  UNL     1      26.130   0.395  54.477  1.00  0.00     0.207 C 
BRANCH  12  13
HETATM   13  N1  UNL     1      27.389  -0.143  54.142  1.00  0.00    -0.373 N 
HETATM   14  C3  UNL     1      27.244  -1.213  53.175  1.00  0.00     0.087 A 
HETATM   15  C4  UNL     1      28.223  -1.980  52.738  1.00  0.00     0.017 A 
HETATM   16  C5  UNL     1      29.574  -1.745  53.238  1.00  0.00    -0.001 A 
HETATM   17  C6  UNL     1      29.717  -0.753  54.084  1.00  0.00     0.000 A 
HETATM   18  C7  UNL     1      28.678   0.222  54.627  1.00  0.00     0.130 A 
BRANCH  18  19
HETATM   19  C8  UNL     1      29.075   1.544  53.931  1.00  0.00     0.193 C 
BRANCH  19  20
HETATM   20  O2  UNL     1      29.730   2.432  54.710  1.00  0.00    -0.399 OA
HETATM   21  H10 UNL     1      29.636   3.385  54.441  1.00  0.00     0.209 HD
ENDBRANCH  19  20
ENDBRANCH  18  19
ENDBRANCH  12  13
ENDBRANCH  10  12
ENDBRANCH   1  10
BRANCH   4  22
HETATM   22  N2  UNL     1      22.936   1.973  50.083  1.00  0.00    -0.340 N 
HETATM   23  H12 UNL     1      22.957   1.385  49.226  1.00  0.00     0.167 HD
BRANCH  22  24
HETATM   24  C13 UNL     1      23.624   3.185  50.203  1.00  0.00     0.035 A 
HETATM   25  C14 UNL     1      23.132   4.235  50.948  1.00  0.00     0.032 A 
HETATM   26  C15 UNL     1      23.790   5.416  51.076  1.00  0.00     0.046 A 
HETATM   27  C16 UNL     1      25.007   5.581  50.432  1.00  0.00     0.138 A 
HETATM   28  F1  UNL     1      25.730   6.724  50.509  1.00  0.00    -0.204 F 
HETATM   29  C17 UNL     1      25.490   4.523  49.688  1.00  0.00     0.074 A 
HETATM   30 CL1  UNL     1      27.035   4.734  48.874  1.00  0.00    -0.081 Cl
HETATM   31  C18 UNL     1      24.836   3.307  49.543  1.00  0.00     0.056 A 
ENDBRANCH  22  24
ENDBRANCH   4  22
TORSDOF 7
ENDMDL
MODEL 3
REMARK VINA RESULT:      -9.0      1.436      1.868
REMARK  7 active torsions:
REMARK  status: ('A' for Active; 'I' for Inactive)
REMARK    1  A    between atoms: C1_2  and  C2_3 
REMARK    2  A    between atoms: C1_2  and  C9_12 
REMARK    3  A    between atoms: C2_3  and  N1_4 
REMARK    4  A    between atoms: C7_9  and  C8_10 
REMARK    5  A    between atoms: C8_10  and  O2_11 
REMARK    6  A    between atoms: C12_15  and  N2_16 
REMARK    7  A    between atoms: N2_16  and  C13_17 
ROOT
HETATM    1  C9  UNL     1      23.673  -0.295  53.740  1.00  0.00     0.055 A 
HETATM    2  C10 UNL     1      23.306   0.952  53.223  1.00  0.00     0.041 A 
HETATM    3  C11 UNL     1      22.007   1.080  52.837  1.00  0.00     0.047 A 
HETATM    4  C12 UNL     1      21.431   2.210  52.302  1.00  0.00     0.142 A 
HETATM    5  N3  UNL     1      20.141   2.215  51.954  1.00  0.00    -0.223 NA
HETATM    6  C19 UNL     1      19.306   1.170  52.083  1.00  0.00     0.236 A 
HETATM    7  N4  UNL     1      19.858   0.064  52.605  1.00  0.00    -0.234 NA
HETATM    8  C20 UNL     1      21.139   0.032  52.959  1.00  0.00     0.113 A 
HETATM    9  S1  UNL     1      22.156  -1.233  53.653  1.00  0.00    -0.066 SA
ENDROOT
BRANCH   1  10
HETATM   10  C1  UNL     1      24.962  -0.835  54.261  1.00  0.00     0.184 C 
HETATM   11  O1  UNL     1      24.843  -1.240  55.442  1.00  0.00    -0.290 OA
BRANCH  10  12
HETATM   12  C2  UNL     1      26.032  -0.758  53.275  1.00  0.00     0.207 C 
BRANCH  12  13
HETATM   13  N1  UNL     1      27.024   0.237  53.397  1.00  0.00    -0.373 N 
HETATM   14  C3  UNL     1      28.308  -0.361  53.708  1.00  0.00     0.087 A 
HETATM   15  C4  UNL     1      29.411   0.307  53.980  1.00  0.00     0.017 A 
HETATM   16  C5  UNL     1      29.370   1.767  53.958  1.00  0.00    -0.001 A 
HETATM   17  C6  UNL     1      28.221   2.312  53.639  1.00  0.00     0.000 A 
HETATM   18  C7  UNL     1      26.899   1.650  53.266  1.00  0.00     0.130 A 
BRANCH  18  19
HETATM   19  C8  UNL     1      26.789   1.966  51.758  1.00  0.00     0.193 C 
BRANCH  19  20
HETATM   20  O2  UNL     1      27.334   3.140  51.373  1.00  0.00    -0.399 OA
HETATM   21  H10 UNL     1      26.995   3.506  50.512  1.00  0.00     0.209 HD
ENDBRANCH  19  20
ENDBRANCH  18  19
ENDBRANCH  12  13
ENDBRANCH  10  12
ENDBRANCH   1  10
BRANCH   4  22
HETATM   22  N2  UNL     1      22.034   3.456  52.052  1.00  0.00    -0.340 N 
HETATM   23  H12 UNL     1      21.553   4.097  52.715  1.00  0.00     0.167 HD
BRANCH  22  24
HETATM   24  C13 UNL     1      23.033   3.873  51.166  1.00  0.00     0.035 A 
HETATM   25  C14 UNL     1      23.467   3.079  50.126  1.00  0.00     0.032 A 
HETATM   26  C15 UNL     1      24.435   3.471  49.257  1.00  0.00     0.046 A 
HETATM   27  C16 UNL     1      25.015   4.720  49.416  1.00  0.00     0.138 A 
HETATM   28  F1  UNL     1      25.983   5.192  48.593  1.00  0.00    -0.204 F 
HETATM   29  C17 UNL     1      24.573   5.507  50.461  1.00  0.00     0.074 A 
HETATM   30 CL1  UNL     1      25.310   7.092  50.660  1.00  0.00    -0.081 Cl
HETATM   31  C18 UNL     1      23.587   5.128  51.362  1.00  0.00     0.056 A 
ENDBRANCH  22  24
ENDBRANCH   4  22
TORSDOF 7
ENDMDL
MODEL 4
REMARK VINA RESULT:      -9.0      1.935      2.638
REMARK  7 active torsions:
REMARK  status: ('A' for Active; 'I' for Inactive)
REMARK    1  A    between atoms: C1_2  and  C2_3 
REMARK    2  A    between atoms: C1_2  and  C9_12 
REMARK    3  A    between atoms: C2_3  and  N1_4 
REMARK    4  A    between atoms: C7_9  and  C8_10 
REMARK    5  A    between atoms: C8_10  and  O2_11 
REMARK    6  A    between atoms: C12_15  and  N2_16 
REMARK    7  A    between atoms: N2_16  and  C13_17 
ROOT
HETATM    1  C9  UNL     1      23.743  -0.578  53.914  1.00  0.00     0.055 A 
HETATM    2  C10 UNL     1      23.318   0.265  52.881  1.00  0.00     0.041 A 
HETATM    3  C11 UNL     1      21.977   0.303  52.656  1.00  0.00     0.047 A 
HETATM    4  C12 UNL     1      21.340   1.056  51.694  1.00  0.00     0.142 A 
HETATM    5  N3  UNL     1      20.012   1.008  51.563  1.00  0.00    -0.223 NA
HETATM    6  C19 UNL     1      19.191   0.258  52.319  1.00  0.00     0.236 A 
HETATM    7  N4  UNL     1      19.802  -0.479  53.259  1.00  0.00    -0.234 NA
HETATM    8  C20 UNL     1      21.123  -0.450  53.410  1.00  0.00     0.113 A 
HETATM    9  S1  UNL     1      22.217  -1.281  54.519  1.00  0.00    -0.066 SA
ENDROOT
BRANCH   1  10
HETATM   10  C1  UNL     1      25.090  -0.901  54.468  1.00  0.00     0.184 C 
HETATM   11  O1  UNL     1      25.024  -1.198  55.684  1.00  0.00    -0.290 OA
BRANCH  10  12
HETATM   12  C2  UNL     1      26.140  -0.791  53.464  1.00  0.00     0.207 C 
BRANCH  12  13
HETATM   13  N1  UNL     1      27.076   0.260  53.543  1.00  0.00    -0.373 N 
HETATM   14  C3  UNL     1      28.381  -0.247  53.919  1.00  0.00     0.087 A 
HETATM   15  C4  UNL     1      29.441   0.495  54.171  1.00  0.00     0.017 A 
HETATM   16  C5  UNL     1      29.324   1.946  54.055  1.00  0.00    -0.001 A 
HETATM   17  C6  UNL     1      28.157   2.408  53.678  1.00  0.00     0.000 A 
HETATM   18  C7  UNL     1      26.880   1.654  53.320  1.00  0.00     0.130 A 
BRANCH  18  19
HETATM   19  C8  UNL     1      26.791   1.868  51.792  1.00  0.00     0.193 C 
BRANCH  19  20
HETATM   20  O2  UNL     1      27.231   3.066  51.351  1.00  0.00    -0.399 OA
HETATM   21  H10 UNL     1      26.609   3.829  51.498  1.00  0.00     0.209 HD
ENDBRANCH  19  20
ENDBRANCH  18  19
ENDBRANCH  12  13
ENDBRANCH  10  12
ENDBRANCH   1  10
BRANCH   4  22
HETATM   22  N2  UNL     1      21.916   1.939  50.763  1.00  0.00    -0.340 N 
HETATM   23  H12 UNL     1      21.712   1.493  49.846  1.00  0.00     0.167 HD
BRANCH  22  24
HETATM   24  C13 UNL     1      22.613   3.145  50.894  1.00  0.00     0.035 A 
HETATM   25  C14 UNL     1      22.326   4.052  51.891  1.00  0.00     0.032 A 
HETATM   26  C15 UNL     1      22.996   5.225  52.032  1.00  0.00     0.046 A 
HETATM   27  C16 UNL     1      24.013   5.529  51.141  1.00  0.00     0.138 A 
HETATM   28  F1  UNL     1      24.735   6.673  51.212  1.00  0.00    -0.204 F 
HETATM   29  C17 UNL     1      24.293   4.613  50.146  1.00  0.00     0.074 A 
HETATM   30 CL1  UNL     1      25.586   5.001  49.018  1.00  0.00    -0.081 Cl
HETATM   31  C18 UNL     1      23.622   3.409  49.982  1.00  0.00     0.056 A 
ENDBRANCH  22  24
ENDBRANCH   4  22
TORSDOF 7
ENDMDL
MODEL 5
REMARK VINA RESULT:      -9.0      3.332      6.101
REMARK  7 active torsions:
REMARK  status: ('A' for Active; 'I' for Inactive)
REMARK    1  A    between atoms: C1_2  and  C2_3 
REMARK    2  A    between atoms: C1_2  and  C9_12 
REMARK    3  A    between atoms: C2_3  and  N1_4 
REMARK    4  A    between atoms: C7_9  and  C8_10 
REMARK    5  A    between atoms: C8_10  and  O2_11 
REMARK    6  A    between atoms: C12_15  and  N2_16 
REMARK    7  A    between atoms: N2_16  and  C13_17 
ROOT
HETATM    1  C9  UNL     1      22.525   2.286  50.350  1.00  0.00     0.055 A 
HETATM    2  C10 UNL     1      23.211   1.358  51.142  1.00  0.00     0.041 A 
HETATM    3  C11 UNL     1      22.552   0.911  52.244  1.00  0.00     0.047 A 
HETATM    4  C12 UNL     1      23.033   0.003  53.162  1.00  0.00     0.142 A 
HETATM    5  N3  UNL     1      22.293  -0.358  54.213  1.00  0.00    -0.223 NA
HETATM    6  C19 UNL     1      21.058   0.101  54.478  1.00  0.00     0.236 A 
HETATM    7  N4  UNL     1      20.580   0.986  53.590  1.00  0.00    -0.234 NA
HETATM    8  C20 UNL     1      21.296   1.363  52.535  1.00  0.00     0.113 A 
HETATM    9  S1  UNL     1      20.973   2.484  51.210  1.00  0.00    -0.066 SA
ENDROOT
BRANCH   1  10
HETATM   10  C1  UNL     1      22.883   3.003  49.092  1.00  0.00     0.184 C 
HETATM   11  O1  UNL     1      22.644   2.299  48.082  1.00  0.00    -0.290 OA
BRANCH  10  12
HETATM   12  C2  UNL     1      23.417   4.334  49.348  1.00  0.00     0.207 C 
BRANCH  12  13
HETATM   13  N1  UNL     1      24.799   4.572  49.205  1.00  0.00    -0.373 N 
HETATM   14  C3  UNL     1      25.044   5.962  48.870  1.00  0.00     0.087 A 
HETATM   15  C4  UNL     1      26.221   6.476  48.574  1.00  0.00     0.017 A 
HETATM   16  C5  UNL     1      27.392   5.604  48.593  1.00  0.00    -0.001 A 
HETATM   17  C6  UNL     1      27.182   4.355  48.933  1.00  0.00     0.000 A 
HETATM   18  C7  UNL     1      25.885   3.659  49.334  1.00  0.00     0.130 A 
BRANCH  18  19
HETATM   19  C8  UNL     1      26.101   3.410  50.844  1.00  0.00     0.193 C 
BRANCH  19  20
HETATM   20  O2  UNL     1      27.384   3.226  51.221  1.00  0.00    -0.399 OA
HETATM   21  H10 UNL     1      27.939   2.688  50.594  1.00  0.00     0.209 HD
ENDBRANCH  19  20
ENDBRANCH  18  19
ENDBRANCH  12  13
ENDBRANCH  10  12
ENDBRANCH   1  10
BRANCH   4  22
HETATM   22  N2  UNL     1      24.275  -0.657  53.158  1.00  0.00    -0.340 N 
HETATM   23  H12 UNL     1      24.029  -1.638  52.913  1.00  0.00     0.167 HD
BRANCH  22  24
HETATM   24  C13 UNL     1      25.585  -0.231  53.404  1.00  0.00     0.035 A 
HETATM   25  C14 UNL     1      25.869   1.044  53.844  1.00  0.00     0.032 A 
HETATM   26  C15 UNL     1      27.134   1.472  54.089  1.00  0.00     0.046 A 
HETATM   27  C16 UNL     1      28.190   0.596  53.891  1.00  0.00     0.138 A 
HETATM   28  F1  UNL     1      29.482   0.938  54.116  1.00  0.00    -0.204 F 
HETATM   29  C17 UNL     1      27.895  -0.679  53.452  1.00  0.00     0.074 A 
HETATM   30 CL1  UNL     1      29.236  -1.791  53.204  1.00  0.00    -0.081 Cl
HETATM   31  C18 UNL     1      26.610  -1.138  53.194  1.00  0.00     0.056 A 
ENDBRANCH  22  24
ENDBRANCH   4  22
TORSDOF 7
ENDMDL
MODEL 6
REMARK VINA RESULT:      -8.5      2.702      5.885
REMARK  7 active torsions:
REMARK  status: ('A' for Active; 'I' for Inactive)
REMARK    1  A    between atoms: C1_2  and  C2_3 
REMARK    2  A    between atoms: C1_2  and  C9_12 
REMARK    3  A    between atoms: C2_3  and  N1_4 
REMARK    4  A    between atoms: C7_9  and  C8_10 
REMARK    5  A    between atoms: C8_10  and  O2_11 
REMARK    6  A    between atoms: C12_15  and  N2_16 
REMARK    7  A    between atoms: N2_16  and  C13_17 
ROOT
HETATM    1  C9  UNL     1      24.341  -0.498  54.213  1.00  0.00     0.055 A 
HETATM    2  C10 UNL     1      24.962   0.205  53.175  1.00  0.00     0.041 A 
HETATM    3  C11 UNL     1      26.243   0.602  53.406  1.00  0.00     0.047 A 
HETATM    4  C12 UNL     1      27.041   1.305  52.532  1.00  0.00     0.142 A 
HETATM    5  N3  UNL     1      28.288   1.645  52.873  1.00  0.00    -0.223 NA
HETATM    6  C19 UNL     1      28.870   1.351  54.048  1.00  0.00     0.236 A 
HETATM    7  N4  UNL     1      28.100   0.665  54.906  1.00  0.00    -0.234 NA
HETATM    8  C20 UNL     1      26.857   0.315  54.592  1.00  0.00     0.113 A 
HETATM    9  S1  UNL     1      25.604  -0.564  55.473  1.00  0.00    -0.066 SA
ENDROOT
BRANCH   1  10
HETATM   10  C1  UNL     1      22.980  -1.093  54.360  1.00  0.00     0.184 C 
HETATM   11  O1  UNL     1      22.737  -1.384  55.555  1.00  0.00    -0.290 OA
BRANCH  10  12
HETATM   12  C2  UNL     1      22.278  -1.186  53.087  1.00  0.00     0.207 C 
BRANCH  12  13
HETATM   13  N1  UNL     1      21.410  -0.148  52.690  1.00  0.00    -0.373 N 
HETATM   14  C3  UNL     1      21.899   0.489  51.483  1.00  0.00     0.087 A 
HETATM   15  C4  UNL     1      21.367   1.554  50.917  1.00  0.00     0.017 A 
HETATM   16  C5  UNL     1      20.179   2.150  51.524  1.00  0.00    -0.001 A 
HETATM   17  C6  UNL     1      19.710   1.554  52.593  1.00  0.00     0.000 A 
HETATM   18  C7  UNL     1      20.209   0.304  53.310  1.00  0.00     0.130 A 
BRANCH  18  19
HETATM   19  C8  UNL     1      19.105  -0.725  52.980  1.00  0.00     0.193 C 
BRANCH  19  20
HETATM   20  O2  UNL     1      18.189  -0.920  53.954  1.00  0.00    -0.399 OA
HETATM   21  H10 UNL     1      18.448  -1.575  54.657  1.00  0.00     0.209 HD
ENDBRANCH  19  20
ENDBRANCH  18  19
ENDBRANCH  12  13
ENDBRANCH  10  12
ENDBRANCH   1  10
BRANCH   4  22
HETATM   22  N2  UNL     1      26.726   1.749  51.234  1.00  0.00    -0.340 N 
HETATM   23  H12 UNL     1      27.070   0.981  50.624  1.00  0.00     0.167 HD
BRANCH  22  24
HETATM   24  C13 UNL     1      26.110   2.905  50.744  1.00  0.00     0.035 A 
HETATM   25  C14 UNL     1      26.666   3.658  49.733  1.00  0.00     0.032 A 
HETATM   26  C15 UNL     1      26.079   4.781  49.244  1.00  0.00     0.046 A 
HETATM   27  C16 UNL     1      24.870   5.195  49.781  1.00  0.00     0.138 A 
HETATM   28  F1  UNL     1      24.214   6.299  49.351  1.00  0.00    -0.204 F 
HETATM   29  C17 UNL     1      24.321   4.434  50.794  1.00  0.00     0.074 A 
HETATM   30 CL1  UNL     1      22.785   4.959  51.472  1.00  0.00    -0.081 Cl
HETATM   31  C18 UNL     1      24.903   3.283  51.309  1.00  0.00     0.056 A 
ENDBRANCH  22  24
ENDBRANCH   4  22
TORSDOF 7
ENDMDL
MODEL 7
REMARK VINA RESULT:      -8.4      4.402      7.758
REMARK  7 active torsions:
REMARK  status: ('A' for Active; 'I' for Inactive)
REMARK    1  A    between atoms: C1_2  and  C2_3 
REMARK    2  A    between atoms: C1_2  and  C9_12 
REMARK    3  A    between atoms: C2_3  and  N1_4 
REMARK    4  A    between atoms: C7_9  and  C8_10 
REMARK    5  A    between atoms: C8_10  and  O2_11 
REMARK    6  A    between atoms: C12_15  and  N2_16 
REMARK    7  A    between atoms: N2_16  and  C13_17 
ROOT
HETATM    1  C9  UNL     1      26.420   4.996  49.490  1.00  0.00     0.055 A 
HETATM    2  C10 UNL     1      26.260   3.734  50.073  1.00  0.00     0.041 A 
HETATM    3  C11 UNL     1      25.147   3.566  50.837  1.00  0.00     0.047 A 
HETATM    4  C12 UNL     1      24.791   2.415  51.504  1.00  0.00     0.142 A 
HETATM    5  N3  UNL     1      23.671   2.370  52.231  1.00  0.00    -0.223 NA
HETATM    6  C19 UNL     1      22.812   3.392  52.384  1.00  0.00     0.236 A 
HETATM    7  N4  UNL     1      23.150   4.518  51.737  1.00  0.00    -0.234 NA
HETATM    8  C20 UNL     1      24.259   4.590  51.007  1.00  0.00     0.113 A 
HETATM    9  S1  UNL     1      24.982   5.890  50.057  1.00  0.00    -0.066 SA
ENDROOT
BRANCH   1  10
HETATM   10  C1  UNL     1      27.473   5.577  48.607  1.00  0.00     0.184 C 
HETATM   11  O1  UNL     1      28.417   4.771  48.433  1.00  0.00    -0.290 OA
BRANCH  10  12
HETATM   12  C2  UNL     1      27.144   6.927  48.170  1.00  0.00     0.207 C 
BRANCH  12  13
HETATM   13  N1  UNL     1      28.152   7.912  48.124  1.00  0.00    -0.373 N 
HETATM   14  C3  UNL     1      28.479   8.242  46.750  1.00  0.00     0.087 A 
HETATM   15  C4  UNL     1      29.447   9.052  46.373  1.00  0.00     0.017 A 
HETATM   16  C5  UNL     1      30.262   9.696  47.399  1.00  0.00    -0.001 A 
HETATM   17  C6  UNL     1      29.946   9.432  48.644  1.00  0.00     0.000 A 
HETATM   18  C7  UNL     1      28.831   8.553  49.201  1.00  0.00     0.130 A 
BRANCH  18  19
HETATM   19  C8  UNL     1      27.861   9.595  49.802  1.00  0.00     0.193 C 
BRANCH  19  20
HETATM   20  O2  UNL     1      27.598   9.446  51.118  1.00  0.00    -0.399 OA
HETATM   21  H10 UNL     1      26.683   9.716  51.402  1.00  0.00     0.209 HD
ENDBRANCH  19  20
ENDBRANCH  18  19
ENDBRANCH  12  13
ENDBRANCH  10  12
ENDBRANCH   1  10
BRANCH   4  22
HETATM   22  N2  UNL     1      25.472   1.184  51.534  1.00  0.00    -0.340 N 
HETATM   23  H12 UNL     1      24.925   0.587  50.880  1.00  0.00     0.167 HD
BRANCH  22  24
HETATM   24  C13 UNL     1      26.604   0.735  52.222  1.00  0.00     0.035 A 
HETATM   25  C14 UNL     1      27.456   1.602  52.871  1.00  0.00     0.032 A 
HETATM   26  C15 UNL     1      28.558   1.181  53.545  1.00  0.00     0.046 A 
HETATM   27  C16 UNL     1      28.844  -0.175  53.586  1.00  0.00     0.138 A 
HETATM   28  F1  UNL     1      29.919  -0.681  54.238  1.00  0.00    -0.204 F 
HETATM   29  C17 UNL     1      27.984  -1.034  52.932  1.00  0.00     0.074 A 
HETATM   30 CL1  UNL     1      28.347  -2.755  52.987  1.00  0.00    -0.081 Cl
HETATM   31  C18 UNL     1      26.853  -0.627  52.237  1.00  0.00     0.056 A 
ENDBRANCH  22  24
ENDBRANCH   4  22
TORSDOF 7
ENDMDL
MODEL 8
REMARK VINA RESULT:      -8.4      3.572      6.303
REMARK  7 active torsions:
REMARK  status: ('A' for Active; 'I' for Inactive)
REMARK    1  A    between atoms: C1_2  and  C2_3 
REMARK    2  A    between atoms: C1_2  and  C9_12 
REMARK    3  A    between atoms: C2_3  and  N1_4 
REMARK    4  A    between atoms: C7_9  and  C8_10 
REMARK    5  A    between atoms: C8_10  and  O2_11 
REMARK    6  A    between atoms: C12_15  and  N2_16 
REMARK    7  A    between atoms: N2_16  and  C13_17 
ROOT
HETATM    1  C9  UNL     1      22.450   2.649  51.383  1.00  0.00     0.055 A 
HETATM    2  C10 UNL     1      23.265   1.614  51.855  1.00  0.00     0.041 A 
HETATM    3  C11 UNL     1      22.715   0.806  52.801  1.00  0.00     0.047 A 
HETATM    4  C12 UNL     1      23.332  -0.266  53.406  1.00  0.00     0.142 A 
HETATM    5  N3  UNL     1      22.691  -0.987  54.330  1.00  0.00    -0.223 NA
HETATM    6  C19 UNL     1      21.435  -0.756  54.750  1.00  0.00     0.236 A 
HETATM    7  N4  UNL     1      20.825   0.287  54.166  1.00  0.00    -0.234 NA
HETATM    8  C20 UNL     1      21.441   1.021  53.244  1.00  0.00     0.113 A 
HETATM    9  S1  UNL     1      20.938   2.429  52.306  1.00  0.00    -0.066 SA
ENDROOT
BRANCH   1  10
HETATM   10  C1  UNL     1      22.666   3.727  50.374  1.00  0.00     0.184 C 
HETATM   11  O1  UNL     1      21.972   3.535  49.347  1.00  0.00    -0.290 OA
BRANCH  10  12
HETATM   12  C2  UNL     1      23.622   4.727  50.830  1.00  0.00     0.207 C 
BRANCH  12  13
HETATM   13  N1  UNL     1      24.758   5.017  50.046  1.00  0.00    -0.373 N 
HETATM   14  C3  UNL     1      25.595   3.841  49.910  1.00  0.00     0.087 A 
HETATM   15  C4  UNL     1      26.774   3.812  49.322  1.00  0.00     0.017 A 
HETATM   16  C5  UNL     1      27.296   5.044  48.737  1.00  0.00    -0.001 A 
HETATM   17  C6  UNL     1      26.525   6.101  48.822  1.00  0.00     0.000 A 
HETATM   18  C7  UNL     1      25.136   6.247  49.436  1.00  0.00     0.130 A 
BRANCH  18  19
HETATM   19  C8  UNL     1      24.246   6.436  48.187  1.00  0.00     0.193 C 
BRANCH  19  20
HETATM   20  O2  UNL     1      23.366   7.458  48.256  1.00  0.00    -0.399 OA
HETATM   21  H10 UNL     1      22.598   7.402  47.626  1.00  0.00     0.209 HD
ENDBRANCH  19  20
ENDBRANCH  18  19
ENDBRANCH  12  13
ENDBRANCH  10  12
ENDBRANCH   1  10
BRANCH   4  22
HETATM   22  N2  UNL     1      24.629  -0.762  53.178  1.00  0.00    -0.340 N 
HETATM   23  H12 UNL     1      24.462  -1.689  52.738  1.00  0.00     0.167 HD
BRANCH  22  24
HETATM   24  C13 UNL     1      25.906  -0.249  53.431  1.00  0.00     0.035 A 
HETATM   25  C14 UNL     1      26.102   1.042  53.870  1.00  0.00     0.032 A 
HETATM   26  C15 UNL     1      27.334   1.554  54.121  1.00  0.00     0.046 A 
HETATM   27  C16 UNL     1      28.448   0.750  53.930  1.00  0.00     0.138 A 
HETATM   28  F1  UNL     1      29.712   1.177  54.162  1.00  0.00    -0.204 F 
HETATM   29  C17 UNL     1      28.240  -0.542  53.491  1.00  0.00     0.074 A 
HETATM   30 CL1  UNL     1      29.654  -1.562  53.252  1.00  0.00    -0.081 Cl
HETATM   31  C18 UNL     1      26.990  -1.087  53.227  1.00  0.00     0.056 A 
ENDBRANCH  22  24
ENDBRANCH   4  22
TORSDOF 7
ENDMDL
MODEL 9
REMARK VINA RESULT:      -8.3      2.758      6.107
REMARK  7 active torsions:
REMARK  status: ('A' for Active; 'I' for Inactive)
REMARK    1  A    between atoms: C1_2  and  C2_3 
REMARK    2  A    between atoms: C1_2  and  C9_12 
REMARK    3  A    between atoms: C2_3  and  N1_4 
REMARK    4  A    between atoms: C7_9  and  C8_10 
REMARK    5  A    between atoms: C8_10  and  O2_11 
REMARK    6  A    between atoms: C12_15  and  N2_16 
REMARK    7  A    between atoms: N2_16  and  C13_17 
ROOT
HETATM    1  C9  UNL     1      23.090  -0.631  54.358  1.00  0.00     0.055 A 
HETATM    2  C10 UNL     1      23.712   0.173  53.395  1.00  0.00     0.041 A 
HETATM    3  C11 UNL     1      25.067   0.260  53.476  1.00  0.00     0.047 A 
HETATM    4  C12 UNL     1      25.881   0.992  52.640  1.00  0.00     0.142 A 
HETATM    5  N3  UNL     1      27.204   1.006  52.822  1.00  0.00    -0.223 NA
HETATM    6  C19 UNL     1      27.855   0.339  53.791  1.00  0.00     0.236 A 
HETATM    7  N4  UNL     1      27.070  -0.377  54.610  1.00  0.00    -0.234 NA
HETATM    8  C20 UNL     1      25.750  -0.408  54.452  1.00  0.00     0.113 A 
HETATM    9  S1  UNL     1      24.460  -1.225  55.337  1.00  0.00    -0.066 SA
ENDROOT
BRANCH   1  10
HETATM   10  C1  UNL     1      21.663  -0.983  54.613  1.00  0.00     0.184 C 
HETATM   11  O1  UNL     1      21.542  -2.189  54.935  1.00  0.00    -0.290 OA
BRANCH  10  12
HETATM   12  C2  UNL     1      20.772   0.155  54.428  1.00  0.00     0.207 C 
BRANCH  12  13
HETATM   13  N1  UNL     1      20.128   0.343  53.188  1.00  0.00    -0.373 N 
HETATM   14  C3  UNL     1      18.887  -0.405  53.140  1.00  0.00     0.087 A 
HETATM   15  C4  UNL     1      18.107  -0.515  52.084  1.00  0.00     0.017 A 
HETATM   16  C5  UNL     1      18.489   0.176  50.855  1.00  0.00    -0.001 A 
HETATM   17  C6  UNL     1      19.589   0.886  50.905  1.00  0.00     0.000 A 
HETATM   18  C7  UNL     1      20.545   1.122  52.070  1.00  0.00     0.130 A 
BRANCH  18  19
HETATM   19  C8  UNL     1      20.281   2.604  52.416  1.00  0.00     0.193 C 
BRANCH  19  20
HETATM   20  O2  UNL     1      19.016   3.029  52.205  1.00  0.00    -0.399 OA
HETATM   21  H10 UNL     1      18.409   2.965  52.991  1.00  0.00     0.209 HD
ENDBRANCH  19  20
ENDBRANCH  18  19
ENDBRANCH  12  13
ENDBRANCH  10  12
ENDBRANCH   1  10
BRANCH   4  22
HETATM   22  N2  UNL     1      25.506   1.782  51.538  1.00  0.00    -0.340 N 
HETATM   23  H12 UNL     1      25.849   1.237  50.721  1.00  0.00     0.167 HD
BRANCH  22  24
HETATM   24  C13 UNL     1      24.841   3.007  51.423  1.00  0.00     0.035 A 
HETATM   25  C14 UNL     1      24.136   3.558  52.470  1.00  0.00     0.032 A 
HETATM   26  C15 UNL     1      23.487   4.748  52.374  1.00  0.00     0.046 A 
HETATM   27  C16 UNL     1      23.532   5.442  51.175  1.00  0.00     0.138 A 
HETATM   28  F1  UNL     1      22.918   6.636  50.994  1.00  0.00    -0.204 F 
HETATM   29  C17 UNL     1      24.242   4.881  50.132  1.00  0.00     0.074 A 
HETATM   30 CL1  UNL     1      24.299   5.766  48.612  1.00  0.00    -0.081 Cl
HETATM   31  C18 UNL     1      24.911   3.668  50.207  1.00  0.00     0.056 A 
ENDBRANCH  22  24
ENDBRANCH   4  22
TORSDOF 7
ENDMDL
