MODEL 1
REMARK VINA RESULT:      -8.2      0.000      0.000
REMARK  3 active torsions:
REMARK  status: ('A' for Active; 'I' for Inactive)
REMARK       I    between atoms: C2_2  and  N1_4 
REMARK    1  A    between atoms: N1_4  and  C3_5 
REMARK    2  A    between atoms: C8_12  and  N4_13 
REMARK    3  A    between atoms: N4_13  and  C9_14 
ROOT
HETATM    1  C3  UNL     1      24.886  -0.709  54.470  1.00  0.00     0.035 A 
HETATM    2  C4  UNL     1      24.108  -1.364  55.417  1.00  0.00     0.032 A 
HETATM    3  C5  UNL     1      22.738  -1.332  55.283  1.00  0.00     0.035 A 
HETATM    4  C6  UNL     1      22.125  -0.677  54.250  1.00  0.00     0.072 A 
HETATM    5  N2  UNL     1      20.791  -0.640  54.112  1.00  0.00    -0.241 NA
HETATM    6  C7  UNL     1      20.205   0.010  53.088  1.00  0.00     0.236 A 
HETATM    7  N3  UNL     1      20.971   0.638  52.181  1.00  0.00    -0.224 NA
HETATM    8  C8  UNL     1      22.334   0.644  52.255  1.00  0.00     0.142 A 
HETATM    9  C15 UNL     1      22.915  -0.028  53.315  1.00  0.00     0.041 A 
HETATM   10  C16 UNL     1      24.305  -0.032  53.407  1.00  0.00     0.047 A 
ENDROOT
BRANCH   8  11
HETATM   11  N4  UNL     1      23.098   1.334  51.257  1.00  0.00    -0.340 N 
HETATM   12  H8  UNL     1      23.391   0.665  50.485  1.00  0.00     0.167 HD
BRANCH  11  13
HETATM   13  C9  UNL     1      23.477   2.700  51.188  1.00  0.00     0.035 A 
HETATM   14  C10 UNL     1      22.802   3.680  51.904  1.00  0.00     0.029 A 
HETATM   15  C11 UNL     1      23.266   4.964  51.753  1.00  0.00     0.004 A 
HETATM   16  C12 UNL     1      24.340   5.338  50.951  1.00  0.00     0.019 A 
HETATM   17  C13 UNL     1      24.975   4.317  50.259  1.00  0.00     0.013 A 
HETATM   18 BR1  UNL     1      26.453   4.835  49.156  1.00  0.00    -0.051 Br
HETATM   19  C14 UNL     1      24.555   3.008  50.371  1.00  0.00     0.048 A 
ENDBRANCH  11  13
ENDBRANCH   8  11
BRANCH   1  20
HETATM   20  N1  UNL     1      26.308  -0.668  54.496  1.00  0.00    -0.327 N 
HETATM   21  C2  UNL     1      27.221   0.391  54.591  1.00  0.00     0.218 C 
HETATM   22  C1  UNL     1      28.681   0.105  54.593  1.00  0.00     0.117 C 
HETATM   23  O1  UNL     1      26.943   1.593  54.678  1.00  0.00    -0.274 OA
HETATM   24  H4  UNL     1      26.578  -1.685  54.423  1.00  0.00     0.169 HD
ENDBRANCH   1  20
TORSDOF 3
ENDMDL
MODEL 2
REMARK VINA RESULT:      -8.0      2.396      4.716
REMARK  3 active torsions:
REMARK  status: ('A' for Active; 'I' for Inactive)
REMARK       I    between atoms: C2_2  and  N1_4 
REMARK    1  A    between atoms: N1_4  and  C3_5 
REMARK    2  A    between atoms: C8_12  and  N4_13 
REMARK    3  A    between atoms: N4_13  and  C9_14 
ROOT
HETATM    1  C3  UNL     1      24.407  -0.303  53.766  1.00  0.00     0.035 A 
HETATM    2  C4  UNL     1      25.010  -0.588  54.985  1.00  0.00     0.032 A 
HETATM    3  C5  UNL     1      26.248  -0.048  55.252  1.00  0.00     0.035 A 
HETATM    4  C6  UNL     1      26.897   0.758  54.356  1.00  0.00     0.072 A 
HETATM    5  N2  UNL     1      28.103   1.289  54.608  1.00  0.00    -0.241 NA
HETATM    6  C7  UNL     1      28.726   2.080  53.713  1.00  0.00     0.236 A 
HETATM    7  N3  UNL     1      28.129   2.347  52.540  1.00  0.00    -0.224 NA
HETATM    8  C8  UNL     1      26.904   1.843  52.214  1.00  0.00     0.142 A 
HETATM    9  C15 UNL     1      26.282   1.033  53.146  1.00  0.00     0.041 A 
HETATM   10  C16 UNL     1      25.030   0.509  52.829  1.00  0.00     0.047 A 
ENDROOT
BRANCH   8  11
HETATM   11  N4  UNL     1      26.318   2.163  50.945  1.00  0.00    -0.340 N 
HETATM   12  H8  UNL     1      26.133   1.278  50.387  1.00  0.00     0.167 HD
BRANCH  11  13
HETATM   13  C9  UNL     1      25.985   3.428  50.392  1.00  0.00     0.035 A 
HETATM   14  C10 UNL     1      26.775   4.029  49.421  1.00  0.00     0.029 A 
HETATM   15  C11 UNL     1      26.345   5.252  48.966  1.00  0.00     0.004 A 
HETATM   16  C12 UNL     1      25.200   5.911  49.404  1.00  0.00     0.019 A 
HETATM   17  C13 UNL     1      24.451   5.263  50.375  1.00  0.00     0.013 A 
HETATM   18 BR1  UNL     1      22.876   6.174  50.975  1.00  0.00    -0.051 Br
HETATM   19  C14 UNL     1      24.833   4.033  50.870  1.00  0.00     0.048 A 
ENDBRANCH  11  13
ENDBRANCH   8  11
BRANCH   1  20
HETATM   20  N1  UNL     1      23.133  -0.799  53.371  1.00  0.00    -0.327 N 
HETATM   21  C2  UNL     1      21.858  -0.690  53.944  1.00  0.00     0.218 C 
HETATM   22  C1  UNL     1      20.695  -1.335  53.278  1.00  0.00     0.117 C 
HETATM   23  O1  UNL     1      21.573  -0.091  54.988  1.00  0.00    -0.274 OA
HETATM   24  H4  UNL     1      23.344  -1.318  52.478  1.00  0.00     0.169 HD
ENDBRANCH   1  20
TORSDOF 3
ENDMDL
MODEL 3
REMARK VINA RESULT:      -7.8      1.784      2.346
REMARK  3 active torsions:
REMARK  status: ('A' for Active; 'I' for Inactive)
REMARK       I    between atoms: C2_2  and  N1_4 
REMARK    1  A    between atoms: N1_4  and  C3_5 
REMARK    2  A    between atoms: C8_12  and  N4_13 
REMARK    3  A    between atoms: N4_13  and  C9_14 
ROOT
HETATM    1  C3  UNL     1      26.164   0.097  53.298  1.00  0.00     0.035 A 
HETATM    2  C4  UNL     1      25.257  -0.633  54.056  1.00  0.00     0.032 A 
HETATM    3  C5  UNL     1      23.911  -0.468  53.816  1.00  0.00     0.035 A 
HETATM    4  C6  UNL     1      23.446   0.390  52.857  1.00  0.00     0.072 A 
HETATM    5  N2  UNL     1      22.136   0.557  52.616  1.00  0.00    -0.241 NA
HETATM    6  C7  UNL     1      21.696   1.407  51.667  1.00  0.00     0.236 A 
HETATM    7  N3  UNL     1      22.587   2.105  50.943  1.00  0.00    -0.224 NA
HETATM    8  C8  UNL     1      23.933   1.987  51.131  1.00  0.00     0.142 A 
HETATM    9  C15 UNL     1      24.363   1.110  52.110  1.00  0.00     0.041 A 
HETATM   10  C16 UNL     1      25.735   0.978  52.317  1.00  0.00     0.047 A 
ENDROOT
BRANCH   8  11
HETATM   11  N4  UNL     1      24.834   2.760  50.327  1.00  0.00    -0.340 N 
HETATM   12  H8  UNL     1      25.423   2.125  49.712  1.00  0.00     0.167 HD
BRANCH  11  13
HETATM   13  C9  UNL     1      25.015   4.167  50.265  1.00  0.00     0.035 A 
HETATM   14  C10 UNL     1      24.222   5.037  51.002  1.00  0.00     0.029 A 
HETATM   15  C11 UNL     1      24.497   6.374  50.856  1.00  0.00     0.004 A 
HETATM   16  C12 UNL     1      25.492   6.902  50.039  1.00  0.00     0.019 A 
HETATM   17  C13 UNL     1      26.252   5.986  49.327  1.00  0.00     0.013 A 
HETATM   18 BR1  UNL     1      27.622   6.717  48.203  1.00  0.00    -0.051 Br
HETATM   19  C14 UNL     1      26.023   4.630  49.432  1.00  0.00     0.048 A 
ENDBRANCH  11  13
ENDBRANCH   8  11
BRANCH   1  20
HETATM   20  N1  UNL     1      27.577   0.016  53.450  1.00  0.00    -0.327 N 
HETATM   21  C2  UNL     1      28.475  -1.058  53.376  1.00  0.00     0.218 C 
HETATM   22  C1  UNL     1      29.927  -0.818  53.586  1.00  0.00     0.117 C 
HETATM   23  O1  UNL     1      28.187  -2.239  53.144  1.00  0.00    -0.274 OA
HETATM   24  H4  UNL     1      27.854   1.014  53.650  1.00  0.00     0.169 HD
ENDBRANCH   1  20
TORSDOF 3
ENDMDL
MODEL 4
REMARK VINA RESULT:      -7.7      3.168      4.590
REMARK  3 active torsions:
REMARK  status: ('A' for Active; 'I' for Inactive)
REMARK       I    between atoms: C2_2  and  N1_4 
REMARK    1  A    between atoms: N1_4  and  C3_5 
REMARK    2  A    between atoms: C8_12  and  N4_13 
REMARK    3  A    between atoms: N4_13  and  C9_14 
ROOT
HETATM    1  C3  UNL     1      26.635   1.318  52.557  1.00  0.00     0.035 A 
HETATM    2  C4  UNL     1      25.420   1.035  53.169  1.00  0.00     0.032 A 
HETATM    3  C5  UNL     1      24.274   1.594  52.650  1.00  0.00     0.035 A 
HETATM    4  C6  UNL     1      24.298   2.416  51.557  1.00  0.00     0.072 A 
HETATM    5  N2  UNL     1      23.186   2.965  51.045  1.00  0.00    -0.241 NA
HETATM    6  C7  UNL     1      23.229   3.772  49.966  1.00  0.00     0.236 A 
HETATM    7  N3  UNL     1      24.412   4.035  49.387  1.00  0.00    -0.224 NA
HETATM    8  C8  UNL     1      25.584   3.513  49.851  1.00  0.00     0.142 A 
HETATM    9  C15 UNL     1      25.518   2.688  50.959  1.00  0.00     0.041 A 
HETATM   10  C16 UNL     1      26.705   2.146  51.447  1.00  0.00     0.047 A 
ENDROOT
BRANCH   8  11
HETATM   11  N4  UNL     1      26.816   3.832  49.190  1.00  0.00    -0.340 N 
HETATM   12  H8  UNL     1      27.417   2.962  49.083  1.00  0.00     0.167 HD
BRANCH  11  13
HETATM   13  C9  UNL     1      27.287   5.079  48.701  1.00  0.00     0.035 A 
HETATM   14  C10 UNL     1      26.444   6.174  48.568  1.00  0.00     0.029 A 
HETATM   15  C11 UNL     1      27.020   7.324  48.085  1.00  0.00     0.004 A 
HETATM   16  C12 UNL     1      28.359   7.460  47.731  1.00  0.00     0.019 A 
HETATM   17  C13 UNL     1      29.153   6.333  47.886  1.00  0.00     0.013 A 
HETATM   18 BR1  UNL     1      30.996   6.525  47.397  1.00  0.00    -0.051 Br
HETATM   19  C14 UNL     1      28.631   5.151  48.366  1.00  0.00     0.048 A 
ENDBRANCH  11  13
ENDBRANCH   8  11
BRANCH   1  20
HETATM   20  N1  UNL     1      27.888   0.803  52.996  1.00  0.00    -0.327 N 
HETATM   21  C2  UNL     1      28.321  -0.494  53.301  1.00  0.00     0.218 C 
HETATM   22  C1  UNL     1      29.723  -0.716  53.744  1.00  0.00     0.117 C 
HETATM   23  O1  UNL     1      27.642  -1.527  53.241  1.00  0.00    -0.274 OA
HETATM   24  H4  UNL     1      28.493   1.665  53.058  1.00  0.00     0.169 HD
ENDBRANCH   1  20
TORSDOF 3
ENDMDL
MODEL 5
REMARK VINA RESULT:      -7.6      1.929      4.269
REMARK  3 active torsions:
REMARK  status: ('A' for Active; 'I' for Inactive)
REMARK       I    between atoms: C2_2  and  N1_4 
REMARK    1  A    between atoms: N1_4  and  C3_5 
REMARK    2  A    between atoms: C8_12  and  N4_13 
REMARK    3  A    between atoms: N4_13  and  C9_14 
ROOT
HETATM    1  C3  UNL     1      22.577  -0.954  54.194  1.00  0.00     0.035 A 
HETATM    2  C4  UNL     1      23.109  -1.542  55.335  1.00  0.00     0.032 A 
HETATM    3  C5  UNL     1      24.437  -1.328  55.629  1.00  0.00     0.035 A 
HETATM    4  C6  UNL     1      25.242  -0.558  54.834  1.00  0.00     0.072 A 
HETATM    5  N2  UNL     1      26.537  -0.345  55.113  1.00  0.00    -0.241 NA
HETATM    6  C7  UNL     1      27.314   0.416  54.319  1.00  0.00     0.236 A 
HETATM    7  N3  UNL     1      26.783   0.978  53.220  1.00  0.00    -0.224 NA
HETATM    8  C8  UNL     1      25.475   0.806  52.872  1.00  0.00     0.142 A 
HETATM    9  C15 UNL     1      24.695   0.020  53.700  1.00  0.00     0.041 A 
HETATM   10  C16 UNL     1      23.357  -0.166  53.360  1.00  0.00     0.047 A 
ENDROOT
BRANCH   8  11
HETATM   11  N4  UNL     1      24.967   1.430  51.685  1.00  0.00    -0.340 N 
HETATM   12  H8  UNL     1      25.128   0.808  50.839  1.00  0.00     0.167 HD
BRANCH  11  13
HETATM   13  C9  UNL     1      24.325   2.687  51.525  1.00  0.00     0.035 A 
HETATM   14  C10 UNL     1      23.974   3.470  52.617  1.00  0.00     0.029 A 
HETATM   15  C11 UNL     1      23.360   4.664  52.331  1.00  0.00     0.004 A 
HETATM   16  C12 UNL     1      23.072   5.128  51.051  1.00  0.00     0.019 A 
HETATM   17  C13 UNL     1      23.445   4.304  49.999  1.00  0.00     0.013 A 
HETATM   18 BR1  UNL     1      23.047   4.948  48.239  1.00  0.00    -0.051 Br
HETATM   19  C14 UNL     1      24.065   3.093  50.225  1.00  0.00     0.048 A 
ENDBRANCH  11  13
ENDBRANCH   8  11
BRANCH   1  20
HETATM   20  N1  UNL     1      21.222  -1.097  53.781  1.00  0.00    -0.327 N 
HETATM   21  C2  UNL     1      20.210  -0.163  53.520  1.00  0.00     0.218 C 
HETATM   22  C1  UNL     1      18.865  -0.636  53.096  1.00  0.00     0.117 C 
HETATM   23  O1  UNL     1      20.309   1.067  53.604  1.00  0.00    -0.274 OA
HETATM   24  H4  UNL     1      21.105  -2.143  53.700  1.00  0.00     0.169 HD
ENDBRANCH   1  20
TORSDOF 3
ENDMDL
MODEL 6
REMARK VINA RESULT:      -7.4      2.978      4.702
REMARK  3 active torsions:
REMARK  status: ('A' for Active; 'I' for Inactive)
REMARK       I    between atoms: C2_2  and  N1_4 
REMARK    1  A    between atoms: N1_4  and  C3_5 
REMARK    2  A    between atoms: C8_12  and  N4_13 
REMARK    3  A    between atoms: N4_13  and  C9_14 
ROOT
HETATM    1  C3  UNL     1      26.421   1.335  52.323  1.00  0.00     0.035 A 
HETATM    2  C4  UNL     1      27.286   1.102  53.386  1.00  0.00     0.032 A 
HETATM    3  C5  UNL     1      26.839   0.350  54.449  1.00  0.00     0.035 A 
HETATM    4  C6  UNL     1      25.574  -0.171  54.488  1.00  0.00     0.072 A 
HETATM    5  N2  UNL     1      25.130  -0.904  55.520  1.00  0.00    -0.241 NA
HETATM    6  C7  UNL     1      23.881  -1.410  55.541  1.00  0.00     0.236 A 
HETATM    7  N3  UNL     1      23.058  -1.176  54.505  1.00  0.00    -0.224 NA
HETATM    8  C8  UNL     1      23.439  -0.439  53.422  1.00  0.00     0.142 A 
HETATM    9  C15 UNL     1      24.725   0.071  53.421  1.00  0.00     0.041 A 
HETATM   10  C16 UNL     1      25.131   0.826  52.323  1.00  0.00     0.047 A 
ENDROOT
BRANCH   8  11
HETATM   11  N4  UNL     1      22.514  -0.223  52.347  1.00  0.00    -0.340 N 
HETATM   12  H8  UNL     1      22.718  -0.886  51.542  1.00  0.00     0.167 HD
BRANCH  11  13
HETATM   13  C9  UNL     1      21.443   0.703  52.245  1.00  0.00     0.035 A 
HETATM   14  C10 UNL     1      21.611   2.048  52.548  1.00  0.00     0.029 A 
HETATM   15  C11 UNL     1      20.499   2.841  52.409  1.00  0.00     0.004 A 
HETATM   16  C12 UNL     1      19.246   2.397  51.995  1.00  0.00     0.019 A 
HETATM   17  C13 UNL     1      19.138   1.045  51.707  1.00  0.00     0.013 A 
HETATM   18 BR1  UNL     1      17.412   0.438  51.138  1.00  0.00    -0.051 Br
HETATM   19  C14 UNL     1      20.220   0.199  51.828  1.00  0.00     0.048 A 
ENDBRANCH  11  13
ENDBRANCH   8  11
BRANCH   1  20
HETATM   20  N1  UNL     1      26.763   2.095  51.169  1.00  0.00    -0.327 N 
HETATM   21  C2  UNL     1      26.192   3.233  50.584  1.00  0.00     0.218 C 
HETATM   22  C1  UNL     1      26.793   3.806  49.350  1.00  0.00     0.117 C 
HETATM   23  O1  UNL     1      25.200   3.848  50.994  1.00  0.00    -0.274 OA
HETATM   24  H4  UNL     1      27.611   1.592  50.793  1.00  0.00     0.169 HD
ENDBRANCH   1  20
TORSDOF 3
ENDMDL
MODEL 7
REMARK VINA RESULT:      -7.3      3.000      5.459
REMARK  3 active torsions:
REMARK  status: ('A' for Active; 'I' for Inactive)
REMARK       I    between atoms: C2_2  and  N1_4 
REMARK    1  A    between atoms: N1_4  and  C3_5 
REMARK    2  A    between atoms: C8_12  and  N4_13 
REMARK    3  A    between atoms: N4_13  and  C9_14 
ROOT
HETATM    1  C3  UNL     1      26.302   2.361  51.962  1.00  0.00     0.035 A 
HETATM    2  C4  UNL     1      26.710   2.792  50.705  1.00  0.00     0.032 A 
HETATM    3  C5  UNL     1      25.748   3.115  49.774  1.00  0.00     0.035 A 
HETATM    4  C6  UNL     1      24.412   3.024  50.050  1.00  0.00     0.072 A 
HETATM    5  N2  UNL     1      23.468   3.337  49.149  1.00  0.00    -0.241 NA
HETATM    6  C7  UNL     1      22.156   3.241  49.439  1.00  0.00     0.236 A 
HETATM    7  N3  UNL     1      21.779   2.823  50.658  1.00  0.00    -0.224 NA
HETATM    8  C8  UNL     1      22.681   2.488  51.626  1.00  0.00     0.142 A 
HETATM    9  C15 UNL     1      24.022   2.593  51.307  1.00  0.00     0.041 A 
HETATM   10  C16 UNL     1      24.957   2.254  52.283  1.00  0.00     0.047 A 
ENDROOT
BRANCH   8  11
HETATM   11  N4  UNL     1      22.216   2.047  52.909  1.00  0.00    -0.340 N 
HETATM   12  H8  UNL     1      22.261   2.841  53.614  1.00  0.00     0.167 HD
BRANCH  11  13
HETATM   13  C9  UNL     1      21.741   0.772  53.313  1.00  0.00     0.035 A 
HETATM   14  C10 UNL     1      22.579  -0.161  53.912  1.00  0.00     0.029 A 
HETATM   15  C11 UNL     1      22.000  -1.357  54.257  1.00  0.00     0.004 A 
HETATM   16  C12 UNL     1      20.663  -1.688  54.052  1.00  0.00     0.019 A 
HETATM   17  C13 UNL     1      19.875  -0.717  53.451  1.00  0.00     0.013 A 
HETATM   18 BR1  UNL     1      18.036  -1.177  53.170  1.00  0.00    -0.051 Br
HETATM   19  C14 UNL     1      20.401   0.503  53.081  1.00  0.00     0.048 A 
ENDBRANCH  11  13
ENDBRANCH   8  11
BRANCH   1  20
HETATM   20  N1  UNL     1      27.196   1.998  53.009  1.00  0.00    -0.327 N 
HETATM   21  C2  UNL     1      27.795   0.781  53.360  1.00  0.00     0.218 C 
HETATM   22  C1  UNL     1      28.704   0.721  54.536  1.00  0.00     0.117 C 
HETATM   23  O1  UNL     1      27.652  -0.301  52.778  1.00  0.00    -0.274 OA
HETATM   24  H4  UNL     1      27.339   2.906  53.527  1.00  0.00     0.169 HD
ENDBRANCH   1  20
TORSDOF 3
ENDMDL
MODEL 8
REMARK VINA RESULT:      -7.2      2.336      3.219
REMARK  3 active torsions:
REMARK  status: ('A' for Active; 'I' for Inactive)
REMARK       I    between atoms: C2_2  and  N1_4 
REMARK    1  A    between atoms: N1_4  and  C3_5 
REMARK    2  A    between atoms: C8_12  and  N4_13 
REMARK    3  A    between atoms: N4_13  and  C9_14 
ROOT
HETATM    1  C3  UNL     1      24.986   2.140  52.696  1.00  0.00     0.035 A 
HETATM    2  C4  UNL     1      24.444   0.861  52.706  1.00  0.00     0.032 A 
HETATM    3  C5  UNL     1      23.082   0.719  52.558  1.00  0.00     0.035 A 
HETATM    4  C6  UNL     1      22.254   1.797  52.404  1.00  0.00     0.072 A 
HETATM    5  N2  UNL     1      20.926   1.669  52.259  1.00  0.00    -0.241 NA
HETATM    6  C7  UNL     1      20.125   2.742  52.108  1.00  0.00     0.236 A 
HETATM    7  N3  UNL     1      20.665   3.971  52.100  1.00  0.00    -0.224 NA
HETATM    8  C8  UNL     1      22.006   4.180  52.241  1.00  0.00     0.142 A 
HETATM    9  C15 UNL     1      22.810   3.065  52.396  1.00  0.00     0.041 A 
HETATM   10  C16 UNL     1      24.182   3.260  52.542  1.00  0.00     0.047 A 
ENDROOT
BRANCH   8  11
HETATM   11  N4  UNL     1      22.524   5.518  52.226  1.00  0.00    -0.340 N 
HETATM   12  H8  UNL     1      22.690   5.864  53.217  1.00  0.00     0.167 HD
BRANCH  11  13
HETATM   13  C9  UNL     1      22.816   6.365  51.124  1.00  0.00     0.035 A 
HETATM   14  C10 UNL     1      21.917   7.331  50.691  1.00  0.00     0.029 A 
HETATM   15  C11 UNL     1      22.316   8.087  49.617  1.00  0.00     0.004 A 
HETATM   16  C12 UNL     1      23.531   7.952  48.951  1.00  0.00     0.019 A 
HETATM   17  C13 UNL     1      24.388   6.971  49.427  1.00  0.00     0.013 A 
HETATM   18 BR1  UNL     1      26.058   6.787  48.507  1.00  0.00    -0.051 Br
HETATM   19  C14 UNL     1      24.041   6.180  50.503  1.00  0.00     0.048 A 
ENDBRANCH  11  13
ENDBRANCH   8  11
BRANCH   1  20
HETATM   20  N1  UNL     1      26.375   2.418  52.838  1.00  0.00    -0.327 N 
HETATM   21  C2  UNL     1      27.327   2.013  53.783  1.00  0.00     0.218 C 
HETATM   22  C1  UNL     1      28.732   2.484  53.659  1.00  0.00     0.117 C 
HETATM   23  O1  UNL     1      27.127   1.274  54.755  1.00  0.00    -0.274 OA
HETATM   24  H4  UNL     1      26.577   3.052  52.019  1.00  0.00     0.169 HD
ENDBRANCH   1  20
TORSDOF 3
ENDMDL
MODEL 9
REMARK VINA RESULT:      -7.2      2.543      4.843
REMARK  3 active torsions:
REMARK  status: ('A' for Active; 'I' for Inactive)
REMARK       I    between atoms: C2_2  and  N1_4 
REMARK    1  A    between atoms: N1_4  and  C3_5 
REMARK    2  A    between atoms: C8_12  and  N4_13 
REMARK    3  A    between atoms: N4_13  and  C9_14 
ROOT
HETATM    1  C3  UNL     1      20.984  -0.297  53.227  1.00  0.00     0.035 A 
HETATM    2  C4  UNL     1      21.336  -1.093  54.310  1.00  0.00     0.032 A 
HETATM    3  C5  UNL     1      22.662  -1.159  54.678  1.00  0.00     0.035 A 
HETATM    4  C6  UNL     1      23.635  -0.467  54.010  1.00  0.00     0.072 A 
HETATM    5  N2  UNL     1      24.929  -0.526  54.361  1.00  0.00    -0.241 NA
HETATM    6  C7  UNL     1      25.874   0.163  53.692  1.00  0.00     0.236 A 
HETATM    7  N3  UNL     1      25.516   0.928  52.648  1.00  0.00    -0.224 NA
HETATM    8  C8  UNL     1      24.221   1.037  52.232  1.00  0.00     0.142 A 
HETATM    9  C15 UNL     1      23.267   0.322  52.933  1.00  0.00     0.041 A 
HETATM   10  C16 UNL     1      21.939   0.421  52.522  1.00  0.00     0.047 A 
ENDROOT
BRANCH   8  11
HETATM   11  N4  UNL     1      23.901   1.870  51.109  1.00  0.00    -0.340 N 
HETATM   12  H8  UNL     1      22.916   1.670  50.766  1.00  0.00     0.167 HD
BRANCH  11  13
HETATM   13  C9  UNL     1      24.690   2.853  50.455  1.00  0.00     0.035 A 
HETATM   14  C10 UNL     1      26.067   2.718  50.334  1.00  0.00     0.029 A 
HETATM   15  C11 UNL     1      26.717   3.736  49.679  1.00  0.00     0.004 A 
HETATM   16  C12 UNL     1      26.102   4.864  49.144  1.00  0.00     0.019 A 
HETATM   17  C13 UNL     1      24.725   4.944  49.296  1.00  0.00     0.013 A 
HETATM   18 BR1  UNL     1      23.882   6.498  48.558  1.00  0.00    -0.051 Br
HETATM   19  C14 UNL     1      24.018   3.953  49.944  1.00  0.00     0.048 A 
ENDBRANCH  11  13
ENDBRANCH   8  11
BRANCH   1  20
HETATM   20  N1  UNL     1      19.652  -0.145  52.749  1.00  0.00    -0.327 N 
HETATM   21  C2  UNL     1      18.489  -0.906  52.935  1.00  0.00     0.218 C 
HETATM   22  C1  UNL     1      17.220  -0.478  52.289  1.00  0.00     0.117 C 
HETATM   23  O1  UNL     1      18.390  -1.940  53.606  1.00  0.00    -0.274 OA
HETATM   24  H4  UNL     1      19.704   0.734  52.169  1.00  0.00     0.169 HD
ENDBRANCH   1  20
TORSDOF 3
ENDMDL
