MODEL 1
REMARK VINA RESULT:      -9.0      0.000      0.000
REMARK  6 active torsions:
REMARK  status: ('A' for Active; 'I' for Inactive)
REMARK    1  A    between atoms: N1_1  and  C1_2 
REMARK    2  A    between atoms: C2_4  and  N3_5 
REMARK    3  A    between atoms: C4_8  and  S1_9 
REMARK    4  A    between atoms: C8_13  and  O1_14 
REMARK    5  A    between atoms: C10_16  and  C11_17 
REMARK    6  A    between atoms: C15_21  and  O2_22 
ROOT
HETATM    1  C1  UNL     1      20.334  -0.784  53.800  1.00  0.00     0.724 A 
HETATM    2  N2  UNL     1      20.998  -1.562  54.650  1.00  0.00    -0.043 NA
HETATM    3  C2  UNL     1      22.330  -1.556  54.775  1.00  0.00     0.173 A 
HETATM    4  C3  UNL     1      23.061  -0.698  53.980  1.00  0.00     0.152 A 
HETATM    5  N4  UNL     1      24.383  -0.595  54.006  1.00  0.00    -0.232 NA
HETATM    6  C4  UNL     1      25.043   0.257  53.210  1.00  0.00     0.122 A 
HETATM    7  C10 UNL     1      24.419   1.073  52.325  1.00  0.00     0.105 A 
HETATM    8  N5  UNL     1      23.058   0.980  52.285  1.00  0.00    -0.223 NA
HETATM    9  C17 UNL     1      22.404   0.123  53.088  1.00  0.00     0.202 A 
HETATM   10  N6  UNL     1      21.051   0.049  53.030  1.00  0.00    -0.041 NA
ENDROOT
BRANCH   6  11
HETATM   11  S1  UNL     1      26.826   0.251  53.413  1.00  0.00    -0.115 SA
HETATM   12  C5  UNL     1      27.736  -1.040  53.005  1.00  0.00     0.045 A 
HETATM   13  C6  UNL     1      29.180  -0.856  53.247  1.00  0.00     0.009 A 
HETATM   14  C7  UNL     1      29.705   0.227  53.740  1.00  0.00     0.037 A 
HETATM   15  C8  UNL     1      29.085   1.455  54.158  1.00  0.00     0.071 A 
HETATM   16  C9  UNL     1      27.761   1.639  54.077  1.00  0.00     0.081 A 
BRANCH  15  17
HETATM   17  O1  UNL     1      29.803   2.531  54.670  1.00  0.00    -0.360 OA
HETATM   18  H8  UNL     1      29.423   3.463  54.739  1.00  0.00     0.217 HD
ENDBRANCH  15  17
ENDBRANCH   6  11
BRANCH   7  19
HETATM   19  C11 UNL     1      25.113   2.015  51.459  1.00  0.00    -0.002 A 
HETATM   20  C12 UNL     1      26.299   1.951  50.775  1.00  0.00     0.014 A 
HETATM   21  C13 UNL     1      26.730   3.018  50.020  1.00  0.00     0.004 A 
HETATM   22  C14 UNL     1      26.009   4.190  49.908  1.00  0.00     0.036 A 
HETATM   23  C15 UNL     1      24.823   4.269  50.585  1.00  0.00     0.066 A 
HETATM   24  C16 UNL     1      24.376   3.203  51.350  1.00  0.00     0.050 A 
BRANCH  23  25
HETATM   25  O2  UNL     1      24.130   5.463  50.447  1.00  0.00    -0.361 OA
HETATM   26  H13 UNL     1      24.506   6.271  49.989  1.00  0.00     0.217 HD
ENDBRANCH  23  25
ENDBRANCH   7  19
BRANCH   3  27
HETATM   27  N3  UNL     1      23.101  -2.360  55.662  1.00  0.00    -0.381 N 
HETATM   28  H3  UNL     1      23.174  -2.455  56.702  1.00  0.00     0.157 HD
HETATM   29  H4  UNL     1      23.668  -2.924  54.963  1.00  0.00     0.157 HD
ENDBRANCH   3  27
BRANCH   1  30
HETATM   30  N1  UNL     1      18.899  -0.847  53.723  1.00  0.00    -0.231 N 
HETATM   31  H1  UNL     1      18.580  -1.574  54.404  1.00  0.00     0.174 HD
HETATM   32  H2  UNL     1      18.504  -0.179  53.032  1.00  0.00     0.174 HD
ENDBRANCH   1  30
TORSDOF 6
ENDMDL
MODEL 2
REMARK VINA RESULT:      -8.8      3.125      5.707
REMARK  6 active torsions:
REMARK  status: ('A' for Active; 'I' for Inactive)
REMARK    1  A    between atoms: N1_1  and  C1_2 
REMARK    2  A    between atoms: C2_4  and  N3_5 
REMARK    3  A    between atoms: C4_8  and  S1_9 
REMARK    4  A    between atoms: C8_13  and  O1_14 
REMARK    5  A    between atoms: C10_16  and  C11_17 
REMARK    6  A    between atoms: C15_21  and  O2_22 
ROOT
HETATM    1  C1  UNL     1      23.539   4.777  49.752  1.00  0.00     0.724 A 
HETATM    2  N2  UNL     1      24.789   4.849  49.305  1.00  0.00    -0.043 NA
HETATM    3  C2  UNL     1      25.780   4.063  49.742  1.00  0.00     0.173 A 
HETATM    4  C3  UNL     1      25.495   3.125  50.712  1.00  0.00     0.152 A 
HETATM    5  N4  UNL     1      26.384   2.287  51.229  1.00  0.00    -0.232 NA
HETATM    6  C4  UNL     1      26.052   1.393  52.171  1.00  0.00     0.122 A 
HETATM    7  C10 UNL     1      24.794   1.275  52.664  1.00  0.00     0.105 A 
HETATM    8  N5  UNL     1      23.867   2.130  52.142  1.00  0.00    -0.223 NA
HETATM    9  C17 UNL     1      24.208   3.023  51.198  1.00  0.00     0.202 A 
HETATM   10  N6  UNL     1      23.268   3.861  50.695  1.00  0.00    -0.041 NA
ENDROOT
BRANCH   6  11
HETATM   11  S1  UNL     1      27.399   0.345  52.725  1.00  0.00    -0.115 SA
HETATM   12  C5  UNL     1      28.743   0.961  53.415  1.00  0.00     0.045 A 
HETATM   13  C6  UNL     1      29.739  -0.057  53.802  1.00  0.00     0.009 A 
HETATM   14  C7  UNL     1      29.583  -1.336  53.619  1.00  0.00     0.037 A 
HETATM   15  C8  UNL     1      28.490  -2.067  53.037  1.00  0.00     0.071 A 
HETATM   16  C9  UNL     1      27.398  -1.448  52.570  1.00  0.00     0.081 A 
BRANCH  15  17
HETATM   17  O1  UNL     1      28.484  -3.452  52.916  1.00  0.00    -0.360 OA
HETATM   18  H8  UNL     1      28.458  -4.074  53.711  1.00  0.00     0.217 HD
ENDBRANCH  15  17
ENDBRANCH   6  11
BRANCH   7  19
HETATM   19  C11 UNL     1      24.407   0.305  53.677  1.00  0.00    -0.002 A 
HETATM   20  C12 UNL     1      25.087  -0.284  54.711  1.00  0.00     0.014 A 
HETATM   21  C13 UNL     1      24.462  -1.197  55.530  1.00  0.00     0.004 A 
HETATM   22  C14 UNL     1      23.142  -1.565  55.363  1.00  0.00     0.036 A 
HETATM   23  C15 UNL     1      22.449  -0.986  54.335  1.00  0.00     0.066 A 
HETATM   24  C16 UNL     1      23.065  -0.065  53.502  1.00  0.00     0.050 A 
BRANCH  23  25
HETATM   25  O2  UNL     1      21.127  -1.384  54.202  1.00  0.00    -0.361 OA
HETATM   26  H13 UNL     1      20.758  -2.222  54.608  1.00  0.00     0.217 HD
ENDBRANCH  23  25
ENDBRANCH   7  19
BRANCH   3  27
HETATM   27  N3  UNL     1      27.136   4.088  49.308  1.00  0.00    -0.381 N 
HETATM   28  H3  UNL     1      27.647   3.751  48.459  1.00  0.00     0.157 HD
HETATM   29  H4  UNL     1      27.590   4.584  50.129  1.00  0.00     0.157 HD
ENDBRANCH   3  27
BRANCH   1  30
HETATM   30  N1  UNL     1      22.527   5.657  49.233  1.00  0.00    -0.231 N 
HETATM   31  H1  UNL     1      22.071   5.169  48.428  1.00  0.00     0.174 HD
HETATM   32  H2  UNL     1      22.470   6.556  49.753  1.00  0.00     0.174 HD
ENDBRANCH   1  30
TORSDOF 6
ENDMDL
MODEL 3
REMARK VINA RESULT:      -8.4      3.288      6.683
REMARK  6 active torsions:
REMARK  status: ('A' for Active; 'I' for Inactive)
REMARK    1  A    between atoms: N1_1  and  C1_2 
REMARK    2  A    between atoms: C2_4  and  N3_5 
REMARK    3  A    between atoms: C4_8  and  S1_9 
REMARK    4  A    between atoms: C8_13  and  O1_14 
REMARK    5  A    between atoms: C10_16  and  C11_17 
REMARK    6  A    between atoms: C15_21  and  O2_22 
ROOT
HETATM    1  C1  UNL     1      25.785   5.753  48.892  1.00  0.00     0.724 A 
HETATM    2  N2  UNL     1      24.459   5.784  48.992  1.00  0.00    -0.043 NA
HETATM    3  C2  UNL     1      23.746   4.887  49.683  1.00  0.00     0.173 A 
HETATM    4  C3  UNL     1      24.418   3.871  50.329  1.00  0.00     0.152 A 
HETATM    5  N4  UNL     1      23.831   2.921  51.045  1.00  0.00    -0.232 NA
HETATM    6  C4  UNL     1      24.533   1.955  51.652  1.00  0.00     0.122 A 
HETATM    7  C10 UNL     1      25.885   1.874  51.585  1.00  0.00     0.105 A 
HETATM    8  N5  UNL     1      26.505   2.843  50.852  1.00  0.00    -0.223 NA
HETATM    9  C17 UNL     1      25.793   3.809  50.246  1.00  0.00     0.202 A 
HETATM   10  N6  UNL     1      26.432   4.761  49.523  1.00  0.00    -0.041 NA
ENDROOT
BRANCH   6  11
HETATM   11  S1  UNL     1      23.549   0.778  52.583  1.00  0.00    -0.115 SA
HETATM   12  C5  UNL     1      22.035   0.372  52.129  1.00  0.00     0.045 A 
HETATM   13  C6  UNL     1      21.385  -0.609  53.020  1.00  0.00     0.009 A 
HETATM   14  C7  UNL     1      21.947  -1.118  54.078  1.00  0.00     0.037 A 
HETATM   15  C8  UNL     1      23.251  -0.892  54.639  1.00  0.00     0.071 A 
HETATM   16  C9  UNL     1      24.124  -0.046  54.076  1.00  0.00     0.081 A 
BRANCH  15  17
HETATM   17  O1  UNL     1      23.701  -1.527  55.792  1.00  0.00    -0.360 OA
HETATM   18  H8  UNL     1      23.718  -2.531  55.897  1.00  0.00     0.217 HD
ENDBRANCH  15  17
ENDBRANCH   6  11
BRANCH   7  19
HETATM   19  C11 UNL     1      26.670   0.842  52.246  1.00  0.00    -0.002 A 
HETATM   20  C12 UNL     1      26.817  -0.503  52.024  1.00  0.00     0.014 A 
HETATM   21  C13 UNL     1      27.639  -1.259  52.828  1.00  0.00     0.004 A 
HETATM   22  C14 UNL     1      28.349  -0.722  53.882  1.00  0.00     0.036 A 
HETATM   23  C15 UNL     1      28.214   0.619  54.117  1.00  0.00     0.066 A 
HETATM   24  C16 UNL     1      27.390   1.395  53.316  1.00  0.00     0.050 A 
BRANCH  23  25
HETATM   25  O2  UNL     1      28.945   1.120  55.185  1.00  0.00    -0.361 OA
HETATM   26  H13 UNL     1      29.483   1.963  55.139  1.00  0.00     0.217 HD
ENDBRANCH  23  25
ENDBRANCH   7  19
BRANCH   3  27
HETATM   27  N3  UNL     1      22.330   4.863  49.830  1.00  0.00    -0.381 N 
HETATM   28  H3  UNL     1      21.640   5.362  50.438  1.00  0.00     0.157 HD
HETATM   29  H4  UNL     1      22.075   4.137  49.098  1.00  0.00     0.157 HD
ENDBRANCH   3  27
BRANCH   1  30
HETATM   30  N1  UNL     1      26.483   6.754  48.130  1.00  0.00    -0.231 N 
HETATM   31  H1  UNL     1      26.140   7.688  48.453  1.00  0.00     0.174 HD
HETATM   32  H2  UNL     1      27.154   6.346  47.449  1.00  0.00     0.174 HD
ENDBRANCH   1  30
TORSDOF 6
ENDMDL
MODEL 4
REMARK VINA RESULT:      -8.4      3.132      6.135
REMARK  6 active torsions:
REMARK  status: ('A' for Active; 'I' for Inactive)
REMARK    1  A    between atoms: N1_1  and  C1_2 
REMARK    2  A    between atoms: C2_4  and  N3_5 
REMARK    3  A    between atoms: C4_8  and  S1_9 
REMARK    4  A    between atoms: C8_13  and  O1_14 
REMARK    5  A    between atoms: C10_16  and  C11_17 
REMARK    6  A    between atoms: C15_21  and  O2_22 
ROOT
HETATM    1  C1  UNL     1      28.556   0.962  53.559  1.00  0.00     0.724 A 
HETATM    2  N2  UNL     1      27.806   0.070  54.198  1.00  0.00    -0.043 NA
HETATM    3  C2  UNL     1      26.478  -0.022  54.056  1.00  0.00     0.173 A 
HETATM    4  C3  UNL     1      25.847   0.859  53.202  1.00  0.00     0.152 A 
HETATM    5  N4  UNL     1      24.541   0.874  52.973  1.00  0.00    -0.232 NA
HETATM    6  C4  UNL     1      23.979   1.753  52.131  1.00  0.00     0.122 A 
HETATM    7  C10 UNL     1      24.694   2.684  51.453  1.00  0.00     0.105 A 
HETATM    8  N5  UNL     1      26.040   2.682  51.677  1.00  0.00    -0.223 NA
HETATM    9  C17 UNL     1      26.595   1.797  52.523  1.00  0.00     0.202 A 
HETATM   10  N6  UNL     1      27.936   1.815  52.729  1.00  0.00    -0.041 NA
ENDROOT
BRANCH   6  11
HETATM   11  S1  UNL     1      22.201   1.594  51.952  1.00  0.00    -0.115 SA
HETATM   12  C5  UNL     1      21.500   0.186  51.519  1.00  0.00     0.045 A 
HETATM   13  C6  UNL     1      20.029   0.253  51.422  1.00  0.00     0.009 A 
HETATM   14  C7  UNL     1      19.331   1.326  51.655  1.00  0.00     0.037 A 
HETATM   15  C8  UNL     1      19.752   2.645  52.041  1.00  0.00     0.071 A 
HETATM   16  C9  UNL     1      21.045   2.947  52.223  1.00  0.00     0.081 A 
BRANCH  15  17
HETATM   17  O1  UNL     1      18.863   3.694  52.253  1.00  0.00    -0.360 OA
HETATM   18  H8  UNL     1      17.867   3.606  52.117  1.00  0.00     0.217 HD
ENDBRANCH  15  17
ENDBRANCH   6  11
BRANCH   7  19
HETATM   19  C11 UNL     1      24.108   3.640  50.525  1.00  0.00    -0.002 A 
HETATM   20  C12 UNL     1      23.748   3.556  49.206  1.00  0.00     0.014 A 
HETATM   21  C13 UNL     1      23.211   4.645  48.556  1.00  0.00     0.004 A 
HETATM   22  C14 UNL     1      23.008   5.859  49.181  1.00  0.00     0.036 A 
HETATM   23  C15 UNL     1      23.363   5.959  50.498  1.00  0.00     0.066 A 
HETATM   24  C16 UNL     1      23.905   4.871  51.166  1.00  0.00     0.050 A 
BRANCH  23  25
HETATM   25  O2  UNL     1      23.143   7.195  51.088  1.00  0.00    -0.361 OA
HETATM   26  H13 UNL     1      23.290   7.377  52.062  1.00  0.00     0.217 HD
ENDBRANCH  23  25
ENDBRANCH   7  19
BRANCH   3  27
HETATM   27  N3  UNL     1      25.619  -0.950  54.708  1.00  0.00    -0.381 N 
HETATM   28  H3  UNL     1      25.699  -1.950  55.008  1.00  0.00     0.157 HD
HETATM   29  H4  UNL     1      24.757  -0.345  54.849  1.00  0.00     0.157 HD
ENDBRANCH   3  27
BRANCH   1  30
HETATM   30  N1  UNL     1      29.980   0.998  53.763  1.00  0.00    -0.231 N 
HETATM   31  H1  UNL     1      30.293   0.019  53.955  1.00  0.00     0.174 HD
HETATM   32  H2  UNL     1      30.374   1.956  53.677  1.00  0.00     0.174 HD
ENDBRANCH   1  30
TORSDOF 6
ENDMDL
MODEL 5
REMARK VINA RESULT:      -8.4      2.252      5.026
REMARK  6 active torsions:
REMARK  status: ('A' for Active; 'I' for Inactive)
REMARK    1  A    between atoms: N1_1  and  C1_2 
REMARK    2  A    between atoms: C2_4  and  N3_5 
REMARK    3  A    between atoms: C4_8  and  S1_9 
REMARK    4  A    between atoms: C8_13  and  O1_14 
REMARK    5  A    between atoms: C10_16  and  C11_17 
REMARK    6  A    between atoms: C15_21  and  O2_22 
ROOT
HETATM    1  C1  UNL     1      19.084  -0.894  53.313  1.00  0.00     0.724 A 
HETATM    2  N2  UNL     1      18.542   0.040  52.537  1.00  0.00    -0.043 NA
HETATM    3  C2  UNL     1      19.234   1.050  51.996  1.00  0.00     0.173 A 
HETATM    4  C3  UNL     1      20.586   1.132  52.256  1.00  0.00     0.152 A 
HETATM    5  N4  UNL     1      21.384   2.081  51.783  1.00  0.00    -0.232 NA
HETATM    6  C4  UNL     1      22.693   2.113  52.067  1.00  0.00     0.122 A 
HETATM    7  C10 UNL     1      23.300   1.188  52.851  1.00  0.00     0.105 A 
HETATM    8  N5  UNL     1      22.494   0.205  53.346  1.00  0.00    -0.223 NA
HETATM    9  C17 UNL     1      21.181   0.180  53.056  1.00  0.00     0.202 A 
HETATM   10  N6  UNL     1      20.401  -0.808  53.560  1.00  0.00    -0.041 NA
ENDROOT
BRANCH   6  11
HETATM   11  S1  UNL     1      23.595   3.470  51.315  1.00  0.00    -0.115 SA
HETATM   12  C5  UNL     1      24.585   3.244  50.038  1.00  0.00     0.045 A 
HETATM   13  C6  UNL     1      25.239   4.478  49.561  1.00  0.00     0.009 A 
HETATM   14  C7  UNL     1      25.060   5.651  50.093  1.00  0.00     0.037 A 
HETATM   15  C8  UNL     1      24.242   6.054  51.206  1.00  0.00     0.071 A 
HETATM   16  C9  UNL     1      23.498   5.173  51.888  1.00  0.00     0.081 A 
BRANCH  15  17
HETATM   17  O1  UNL     1      24.163   7.369  51.652  1.00  0.00    -0.360 OA
HETATM   18  H8  UNL     1      24.305   7.633  52.615  1.00  0.00     0.217 HD
ENDBRANCH  15  17
ENDBRANCH   6  11
BRANCH   7  19
HETATM   19  C11 UNL     1      24.721   1.196  53.163  1.00  0.00    -0.002 A 
HETATM   20  C12 UNL     1      25.592   2.193  53.515  1.00  0.00     0.014 A 
HETATM   21  C13 UNL     1      26.919   1.913  53.751  1.00  0.00     0.004 A 
HETATM   22  C14 UNL     1      27.440   0.639  53.651  1.00  0.00     0.036 A 
HETATM   23  C15 UNL     1      26.583  -0.369  53.301  1.00  0.00     0.066 A 
HETATM   24  C16 UNL     1      25.244  -0.102  53.060  1.00  0.00     0.050 A 
BRANCH  23  25
HETATM   25  O2  UNL     1      27.146  -1.634  53.211  1.00  0.00    -0.361 OA
HETATM   26  H13 UNL     1      26.659  -2.431  52.850  1.00  0.00     0.217 HD
ENDBRANCH  23  25
ENDBRANCH   7  19
BRANCH   3  27
HETATM   27  N3  UNL     1      18.716   2.080  51.160  1.00  0.00    -0.381 N 
HETATM   28  H3  UNL     1      19.132   2.868  50.613  1.00  0.00     0.157 HD
HETATM   29  H4  UNL     1      17.678   1.860  51.209  1.00  0.00     0.157 HD
ENDBRANCH   3  27
BRANCH   1  30
HETATM   30  N1  UNL     1      18.274  -1.950  53.858  1.00  0.00    -0.231 N 
HETATM   31  H1  UNL     1      17.274  -1.676  53.726  1.00  0.00     0.174 HD
HETATM   32  H2  UNL     1      18.840  -2.730  54.249  1.00  0.00     0.174 HD
ENDBRANCH   1  30
TORSDOF 6
ENDMDL
MODEL 6
REMARK VINA RESULT:      -8.3      2.822      5.305
REMARK  6 active torsions:
REMARK  status: ('A' for Active; 'I' for Inactive)
REMARK    1  A    between atoms: N1_1  and  C1_2 
REMARK    2  A    between atoms: C2_4  and  N3_5 
REMARK    3  A    between atoms: C4_8  and  S1_9 
REMARK    4  A    between atoms: C8_13  and  O1_14 
REMARK    5  A    between atoms: C10_16  and  C11_17 
REMARK    6  A    between atoms: C15_21  and  O2_22 
ROOT
HETATM    1  C1  UNL     1      22.199   4.002  49.165  1.00  0.00     0.724 A 
HETATM    2  N2  UNL     1      23.409   4.406  48.791  1.00  0.00    -0.043 NA
HETATM    3  C2  UNL     1      24.543   3.979  49.359  1.00  0.00     0.173 A 
HETATM    4  C3  UNL     1      24.457   3.070  50.393  1.00  0.00     0.152 A 
HETATM    5  N4  UNL     1      25.502   2.570  51.039  1.00  0.00    -0.232 NA
HETATM    6  C4  UNL     1      25.362   1.688  52.038  1.00  0.00     0.122 A 
HETATM    7  C10 UNL     1      24.155   1.240  52.462  1.00  0.00     0.105 A 
HETATM    8  N5  UNL     1      23.069   1.745  51.808  1.00  0.00    -0.223 NA
HETATM    9  C17 UNL     1      23.218   2.629  50.807  1.00  0.00     0.202 A 
HETATM   10  N6  UNL     1      22.124   3.117  50.172  1.00  0.00    -0.041 NA
ENDROOT
BRANCH   6  11
HETATM   11  S1  UNL     1      26.902   1.124  52.768  1.00  0.00    -0.115 SA
HETATM   12  C5  UNL     1      27.417  -0.416  52.611  1.00  0.00     0.045 A 
HETATM   13  C6  UNL     1      28.703  -0.689  53.281  1.00  0.00     0.009 A 
HETATM   14  C7  UNL     1      29.383   0.200  53.946  1.00  0.00     0.037 A 
HETATM   15  C8  UNL     1      29.103   1.588  54.198  1.00  0.00     0.071 A 
HETATM   16  C9  UNL     1      27.998   2.180  53.728  1.00  0.00     0.081 A 
BRANCH  15  17
HETATM   17  O1  UNL     1      29.948   2.408  54.938  1.00  0.00    -0.360 OA
HETATM   18  H8  UNL     1      30.410   3.217  54.548  1.00  0.00     0.217 HD
ENDBRANCH  15  17
ENDBRANCH   6  11
BRANCH   7  19
HETATM   19  C11 UNL     1      23.978   0.274  53.536  1.00  0.00    -0.002 A 
HETATM   20  C12 UNL     1      24.858  -0.356  54.376  1.00  0.00     0.014 A 
HETATM   21  C13 UNL     1      24.406  -1.253  55.318  1.00  0.00     0.004 A 
HETATM   22  C14 UNL     1      23.071  -1.563  55.470  1.00  0.00     0.036 A 
HETATM   23  C15 UNL     1      22.179  -0.942  54.639  1.00  0.00     0.066 A 
HETATM   24  C16 UNL     1      22.618  -0.037  53.685  1.00  0.00     0.050 A 
BRANCH  23  25
HETATM   25  O2  UNL     1      20.846  -1.281  54.824  1.00  0.00    -0.361 OA
HETATM   26  H13 UNL     1      20.156  -0.643  55.170  1.00  0.00     0.217 HD
ENDBRANCH  23  25
ENDBRANCH   7  19
BRANCH   3  27
HETATM   27  N3  UNL     1      25.866   4.370  49.007  1.00  0.00    -0.381 N 
HETATM   28  H3  UNL     1      26.503   5.155  49.278  1.00  0.00     0.157 HD
HETATM   29  H4  UNL     1      26.114   3.601  48.318  1.00  0.00     0.157 HD
ENDBRANCH   3  27
BRANCH   1  30
HETATM   30  N1  UNL     1      21.024   4.506  48.505  1.00  0.00    -0.231 N 
HETATM   31  H1  UNL     1      20.294   4.656  49.239  1.00  0.00     0.174 HD
HETATM   32  H2  UNL     1      21.153   4.610  47.479  1.00  0.00     0.174 HD
ENDBRANCH   1  30
TORSDOF 6
ENDMDL
MODEL 7
REMARK VINA RESULT:      -8.2      3.473      6.114
REMARK  6 active torsions:
REMARK  status: ('A' for Active; 'I' for Inactive)
REMARK    1  A    between atoms: N1_1  and  C1_2 
REMARK    2  A    between atoms: C2_4  and  N3_5 
REMARK    3  A    between atoms: C4_8  and  S1_9 
REMARK    4  A    between atoms: C8_13  and  O1_14 
REMARK    5  A    between atoms: C10_16  and  C11_17 
REMARK    6  A    between atoms: C15_21  and  O2_22 
ROOT
HETATM    1  C1  UNL     1      24.468   6.295  48.187  1.00  0.00     0.724 A 
HETATM    2  N2  UNL     1      25.796   6.288  48.253  1.00  0.00    -0.043 NA
HETATM    3  C2  UNL     1      26.498   5.420  48.991  1.00  0.00     0.173 A 
HETATM    4  C3  UNL     1      25.811   4.478  49.728  1.00  0.00     0.152 A 
HETATM    5  N4  UNL     1      26.385   3.564  50.498  1.00  0.00    -0.232 NA
HETATM    6  C4  UNL     1      25.668   2.671  51.194  1.00  0.00     0.122 A 
HETATM    7  C10 UNL     1      24.313   2.631  51.165  1.00  0.00     0.105 A 
HETATM    8  N5  UNL     1      23.706   3.565  50.377  1.00  0.00    -0.223 NA
HETATM    9  C17 UNL     1      24.433   4.457  49.683  1.00  0.00     0.202 A 
HETATM   10  N6  UNL     1      23.806   5.376  48.907  1.00  0.00    -0.041 NA
ENDROOT
BRANCH   6  11
HETATM   11  S1  UNL     1      26.639   1.512  52.160  1.00  0.00    -0.115 SA
HETATM   12  C5  UNL     1      26.633  -0.089  51.847  1.00  0.00     0.045 A 
HETATM   13  C6  UNL     1      27.492  -0.880  52.750  1.00  0.00     0.009 A 
HETATM   14  C7  UNL     1      28.199  -0.370  53.716  1.00  0.00     0.037 A 
HETATM   15  C8  UNL     1      28.338   0.994  54.148  1.00  0.00     0.071 A 
HETATM   16  C9  UNL     1      27.687   1.995  53.541  1.00  0.00     0.081 A 
BRANCH  15  17
HETATM   17  O1  UNL     1      29.147   1.372  55.214  1.00  0.00    -0.360 OA
HETATM   18  H8  UNL     1      29.649   2.248  55.241  1.00  0.00     0.217 HD
ENDBRANCH  15  17
ENDBRANCH   6  11
BRANCH   7  19
HETATM   19  C11 UNL     1      23.513   1.664  51.902  1.00  0.00    -0.002 A 
HETATM   20  C12 UNL     1      23.697   1.022  53.098  1.00  0.00     0.014 A 
HETATM   21  C13 UNL     1      22.760   0.128  53.565  1.00  0.00     0.004 A 
HETATM   22  C14 UNL     1      21.605  -0.169  52.871  1.00  0.00     0.036 A 
HETATM   23  C15 UNL     1      21.406   0.464  51.674  1.00  0.00     0.066 A 
HETATM   24  C16 UNL     1      22.340   1.367  51.192  1.00  0.00     0.050 A 
BRANCH  23  25
HETATM   25  O2  UNL     1      20.233   0.139  51.009  1.00  0.00    -0.361 OA
HETATM   26  H13 UNL     1      19.638  -0.621  51.278  1.00  0.00     0.217 HD
ENDBRANCH  23  25
ENDBRANCH   7  19
BRANCH   3  27
HETATM   27  N3  UNL     1      27.916   5.358  49.105  1.00  0.00    -0.381 N 
HETATM   28  H3  UNL     1      28.608   4.609  49.338  1.00  0.00     0.157 HD
HETATM   29  H4  UNL     1      28.169   6.364  48.876  1.00  0.00     0.157 HD
ENDBRANCH   3  27
BRANCH   1  30
HETATM   30  N1  UNL     1      23.783   7.261  47.370  1.00  0.00    -0.231 N 
HETATM   31  H1  UNL     1      24.505   7.746  46.789  1.00  0.00     0.174 HD
HETATM   32  H2  UNL     1      22.756   7.266  47.529  1.00  0.00     0.174 HD
ENDBRANCH   1  30
TORSDOF 6
ENDMDL
MODEL 8
REMARK VINA RESULT:      -8.1      3.700      7.438
REMARK  6 active torsions:
REMARK  status: ('A' for Active; 'I' for Inactive)
REMARK    1  A    between atoms: N1_1  and  C1_2 
REMARK    2  A    between atoms: C2_4  and  N3_5 
REMARK    3  A    between atoms: C4_8  and  S1_9 
REMARK    4  A    between atoms: C8_13  and  O1_14 
REMARK    5  A    between atoms: C10_16  and  C11_17 
REMARK    6  A    between atoms: C15_21  and  O2_22 
ROOT
HETATM    1  C1  UNL     1      27.034   6.125  48.390  1.00  0.00     0.724 A 
HETATM    2  N2  UNL     1      25.729   6.353  48.286  1.00  0.00    -0.043 NA
HETATM    3  C2  UNL     1      24.794   5.592  48.867  1.00  0.00     0.173 A 
HETATM    4  C3  UNL     1      25.202   4.507  49.616  1.00  0.00     0.152 A 
HETATM    5  N4  UNL     1      24.379   3.676  50.241  1.00  0.00    -0.232 NA
HETATM    6  C4  UNL     1      24.830   2.637  50.956  1.00  0.00     0.122 A 
HETATM    7  C10 UNL     1      26.149   2.356  51.097  1.00  0.00     0.105 A 
HETATM    8  N5  UNL     1      27.010   3.202  50.460  1.00  0.00    -0.223 NA
HETATM    9  C17 UNL     1      26.549   4.242  49.745  1.00  0.00     0.202 A 
HETATM   10  N6  UNL     1      27.424   5.069  49.121  1.00  0.00    -0.041 NA
ENDROOT
BRANCH   6  11
HETATM   11  S1  UNL     1      23.553   1.645  51.735  1.00  0.00    -0.115 SA
HETATM   12  C5  UNL     1      23.722   1.053  53.246  1.00  0.00     0.045 A 
HETATM   13  C6  UNL     1      22.567   0.261  53.712  1.00  0.00     0.009 A 
HETATM   14  C7  UNL     1      21.500   0.040  53.001  1.00  0.00     0.037 A 
HETATM   15  C8  UNL     1      21.163   0.466  51.670  1.00  0.00     0.071 A 
HETATM   16  C9  UNL     1      21.998   1.215  50.938  1.00  0.00     0.081 A 
BRANCH  15  17
HETATM   17  O1  UNL     1      19.962   0.137  51.050  1.00  0.00    -0.360 OA
HETATM   18  H8  UNL     1      19.084   0.080  51.545  1.00  0.00     0.217 HD
ENDBRANCH  15  17
ENDBRANCH   6  11
BRANCH   7  19
HETATM   19  C11 UNL     1      26.663   1.241  51.879  1.00  0.00    -0.002 A 
HETATM   20  C12 UNL     1      26.553  -0.118  51.746  1.00  0.00     0.014 A 
HETATM   21  C13 UNL     1      27.149  -0.961  52.657  1.00  0.00     0.004 A 
HETATM   22  C14 UNL     1      27.876  -0.498  53.734  1.00  0.00     0.036 A 
HETATM   23  C15 UNL     1      27.996   0.857  53.881  1.00  0.00     0.066 A 
HETATM   24  C16 UNL     1      27.402   1.718  52.972  1.00  0.00     0.050 A 
BRANCH  23  25
HETATM   25  O2  UNL     1      28.735   1.280  54.976  1.00  0.00    -0.361 OA
HETATM   26  H13 UNL     1      28.656   2.196  55.375  1.00  0.00     0.217 HD
ENDBRANCH  23  25
ENDBRANCH   7  19
BRANCH   3  27
HETATM   27  N3  UNL     1      23.384   5.779  48.796  1.00  0.00    -0.381 N 
HETATM   28  H3  UNL     1      22.688   6.363  49.315  1.00  0.00     0.157 HD
HETATM   29  H4  UNL     1      23.144   5.117  48.001  1.00  0.00     0.157 HD
ENDBRANCH   3  27
BRANCH   1  30
HETATM   30  N1  UNL     1      27.980   6.989  47.736  1.00  0.00    -0.231 N 
HETATM   31  H1  UNL     1      27.538   7.322  46.848  1.00  0.00     0.174 HD
HETATM   32  H2  UNL     1      28.866   7.093  48.270  1.00  0.00     0.174 HD
ENDBRANCH   1  30
TORSDOF 6
ENDMDL
MODEL 9
REMARK VINA RESULT:      -7.8      8.068     10.815
REMARK  6 active torsions:
REMARK  status: ('A' for Active; 'I' for Inactive)
REMARK    1  A    between atoms: N1_1  and  C1_2 
REMARK    2  A    between atoms: C2_4  and  N3_5 
REMARK    3  A    between atoms: C4_8  and  S1_9 
REMARK    4  A    between atoms: C8_13  and  O1_14 
REMARK    5  A    between atoms: C10_16  and  C11_17 
REMARK    6  A    between atoms: C15_21  and  O2_22 
ROOT
HETATM    1  C1  UNL     1      26.687   5.164  49.026  1.00  0.00     0.724 A 
HETATM    2  N2  UNL     1      26.609   6.488  49.110  1.00  0.00    -0.043 NA
HETATM    3  C2  UNL     1      27.609   7.314  48.778  1.00  0.00     0.173 A 
HETATM    4  C3  UNL     1      28.791   6.764  48.325  1.00  0.00     0.152 A 
HETATM    5  N4  UNL     1      29.855   7.469  47.965  1.00  0.00    -0.232 NA
HETATM    6  C4  UNL     1      30.980   6.884  47.531  1.00  0.00     0.122 A 
HETATM    7  C10 UNL     1      31.116   5.539  47.424  1.00  0.00     0.105 A 
HETATM    8  N5  UNL     1      30.030   4.799  47.790  1.00  0.00    -0.223 NA
HETATM    9  C17 UNL     1      28.906   5.394  48.225  1.00  0.00     0.202 A 
HETATM   10  N6  UNL     1      27.840   4.637  48.583  1.00  0.00    -0.041 NA
ENDROOT
BRANCH   6  11
HETATM   11  S1  UNL     1      32.295   8.018  47.081  1.00  0.00    -0.115 SA
HETATM   12  C5  UNL     1      32.021   9.332  46.153  1.00  0.00     0.045 A 
HETATM   13  C6  UNL     1      33.226  10.142  45.889  1.00  0.00     0.009 A 
HETATM   14  C7  UNL     1      34.411   9.855  46.343  1.00  0.00     0.037 A 
HETATM   15  C8  UNL     1      34.854   8.759  47.162  1.00  0.00     0.071 A 
HETATM   16  C9  UNL     1      34.008   7.816  47.594  1.00  0.00     0.081 A 
BRANCH  15  17
HETATM   17  O1  UNL     1      36.177   8.599  47.562  1.00  0.00    -0.360 OA
HETATM   18  H8  UNL     1      36.469   7.901  48.229  1.00  0.00     0.217 HD
ENDBRANCH  15  17
ENDBRANCH   6  11
BRANCH   7  19
HETATM   19  C11 UNL     1      32.322   4.881  46.944  1.00  0.00    -0.002 A 
HETATM   20  C12 UNL     1      32.829   4.666  45.689  1.00  0.00     0.014 A 
HETATM   21  C13 UNL     1      34.016   3.989  45.520  1.00  0.00     0.004 A 
HETATM   22  C14 UNL     1      34.750   3.498  46.580  1.00  0.00     0.036 A 
HETATM   23  C15 UNL     1      34.257   3.705  47.840  1.00  0.00     0.066 A 
HETATM   24  C16 UNL     1      33.064   4.384  48.026  1.00  0.00     0.050 A 
BRANCH  23  25
HETATM   25  O2  UNL     1      35.026   3.196  48.877  1.00  0.00    -0.361 OA
HETATM   26  H13 UNL     1      35.055   2.224  49.117  1.00  0.00     0.217 HD
ENDBRANCH  23  25
ENDBRANCH   7  19
BRANCH   3  27
HETATM   27  N3  UNL     1      27.591   8.736  48.845  1.00  0.00    -0.381 N 
HETATM   28  H3  UNL     1      28.058   9.455  49.444  1.00  0.00     0.157 HD
HETATM   29  H4  UNL     1      26.914   8.954  48.056  1.00  0.00     0.157 HD
ENDBRANCH   3  27
BRANCH   1  30
HETATM   30  N1  UNL     1      25.568   4.341  49.400  1.00  0.00    -0.231 N 
HETATM   31  H1  UNL     1      25.895   3.693  50.153  1.00  0.00     0.174 HD
HETATM   32  H2  UNL     1      24.708   4.564  48.862  1.00  0.00     0.174 HD
ENDBRANCH   1  30
TORSDOF 6
ENDMDL
