MODEL 1
REMARK VINA RESULT:      -5.9      0.000      0.000
REMARK  5 active torsions:
REMARK  status: ('A' for Active; 'I' for Inactive)
REMARK    1  A    between atoms: C2_2  and  C3_3 
REMARK    2  A    between atoms: C3_3  and  N1_4 
REMARK    3  A    between atoms: C11_16  and  C12_17 
REMARK    4  A    between atoms: C12_17  and  C13_18 
REMARK    5  A    between atoms: C13_18  and  O2_20 
ROOT
HETATM    1  N1  UNL     1      22.727   2.523  50.886  1.00  0.00    -0.361 N 
HETATM    2  C4  UNL     1      24.145   2.402  50.981  1.00  0.00     0.058 A 
HETATM    3  C5  UNL     1      24.377   1.390  51.922  1.00  0.00     0.031 A 
HETATM    4  C6  UNL     1      25.664   0.967  52.291  1.00  0.00     0.002 A 
HETATM    5  C7  UNL     1      26.774   1.544  51.727  1.00  0.00     0.002 A 
HETATM    6  C8  UNL     1      26.526   2.533  50.805  1.00  0.00     0.031 A 
HETATM    7  C9  UNL     1      25.279   2.963  50.431  1.00  0.00     0.055 A 
HETATM    8  N2  UNL     1      25.282   4.007  49.470  1.00  0.00    -0.379 N 
HETATM    9  C10 UNL     1      25.510   5.411  49.217  1.00  0.00     0.207 C 
HETATM   10  S1  UNL     1      24.736   6.481  50.466  1.00  0.00    -0.066 SA
HETATM   11  S2  UNL     1      22.677   6.338  50.609  1.00  0.00    -0.021 SA
HETATM   12  S3  UNL     1      21.928   4.949  52.011  1.00  0.00    -0.060 SA
HETATM   13  C11 UNL     1      21.706   3.390  51.287  1.00  0.00     0.168 C 
HETATM   14  H10 UNL     1      25.043   3.313  48.734  1.00  0.00     0.160 HD
ENDROOT
BRANCH  13  15
HETATM   15  C12 UNL     1      20.800   2.635  52.287  1.00  0.00     0.148 C 
BRANCH  15  16
HETATM   16  C13 UNL     1      19.356   2.900  51.907  1.00  0.00     0.261 C 
HETATM   17  O1  UNL     1      18.356   3.692  51.968  1.00  0.00    -0.265 OA
BRANCH  16  18
HETATM   18  O2  UNL     1      18.871   1.823  51.154  1.00  0.00    -0.326 OA
HETATM   19  C14 UNL     1      18.921   0.479  51.593  1.00  0.00     0.213 C 
ENDBRANCH  16  18
ENDBRANCH  15  16
ENDBRANCH  13  15
BRANCH   1  20
HETATM   20  C3  UNL     1      22.247   1.330  50.168  1.00  0.00     0.151 C 
BRANCH  20  21
HETATM   21  C2  UNL     1      21.723   1.550  48.837  1.00  0.00    -0.017 C 
HETATM   22  C1  UNL     1      22.421   2.086  47.812  1.00  0.00     0.008 C 
ENDBRANCH  20  21
ENDBRANCH   1  20
TORSDOF 5
ENDMDL
MODEL 2
REMARK VINA RESULT:      -5.7      3.496      5.162
REMARK  5 active torsions:
REMARK  status: ('A' for Active; 'I' for Inactive)
REMARK    1  A    between atoms: C2_2  and  C3_3 
REMARK    2  A    between atoms: C3_3  and  N1_4 
REMARK    3  A    between atoms: C11_16  and  C12_17 
REMARK    4  A    between atoms: C12_17  and  C13_18 
REMARK    5  A    between atoms: C13_18  and  O2_20 
ROOT
HETATM    1  N1  UNL     1      24.241   3.307  50.705  1.00  0.00    -0.361 N 
HETATM    2  C4  UNL     1      23.744   4.545  50.201  1.00  0.00     0.058 A 
HETATM    3  C5  UNL     1      23.922   5.474  51.234  1.00  0.00     0.031 A 
HETATM    4  C6  UNL     1      23.559   6.826  51.122  1.00  0.00     0.002 A 
HETATM    5  C7  UNL     1      23.001   7.301  49.961  1.00  0.00     0.002 A 
HETATM    6  C8  UNL     1      22.836   6.376  48.958  1.00  0.00     0.031 A 
HETATM    7  C9  UNL     1      23.182   5.052  49.047  1.00  0.00     0.055 A 
HETATM    8  N2  UNL     1      22.901   4.293  47.882  1.00  0.00    -0.379 N 
HETATM    9  C10 UNL     1      21.886   3.659  47.071  1.00  0.00     0.207 C 
HETATM   10  S1  UNL     1      20.705   2.694  48.059  1.00  0.00    -0.066 SA
HETATM   11  S2  UNL     1      21.517   1.125  49.136  1.00  0.00    -0.021 SA
HETATM   12  S3  UNL     1      22.107   1.555  51.117  1.00  0.00    -0.060 SA
HETATM   13  C11 UNL     1      23.757   2.082  51.176  1.00  0.00     0.168 C 
HETATM   14  H10 UNL     1      23.910   4.331  47.629  1.00  0.00     0.160 HD
ENDROOT
BRANCH  13  15
HETATM   15  C12 UNL     1      24.141   1.957  52.669  1.00  0.00     0.148 C 
BRANCH  15  16
HETATM   16  C13 UNL     1      24.486   0.507  52.946  1.00  0.00     0.261 C 
HETATM   17  O1  UNL     1      24.184  -0.573  53.557  1.00  0.00    -0.265 OA
BRANCH  16  18
HETATM   18  O2  UNL     1      25.642   0.163  52.232  1.00  0.00    -0.326 OA
HETATM   19  C14 UNL     1      26.950   0.469  52.673  1.00  0.00     0.213 C 
ENDBRANCH  16  18
ENDBRANCH  15  16
ENDBRANCH  13  15
BRANCH   1  20
HETATM   20  C3  UNL     1      25.707   3.426  50.753  1.00  0.00     0.151 C 
BRANCH  20  21
HETATM   21  C2  UNL     1      26.395   3.393  49.479  1.00  0.00    -0.017 C 
HETATM   22  C1  UNL     1      27.153   4.397  48.987  1.00  0.00     0.008 C 
ENDBRANCH  20  21
ENDBRANCH   1  20
TORSDOF 5
ENDMDL
MODEL 3
REMARK VINA RESULT:      -5.5      9.050     11.334
REMARK  5 active torsions:
REMARK  status: ('A' for Active; 'I' for Inactive)
REMARK    1  A    between atoms: C2_2  and  C3_3 
REMARK    2  A    between atoms: C3_3  and  N1_4 
REMARK    3  A    between atoms: C11_16  and  C12_17 
REMARK    4  A    between atoms: C12_17  and  C13_18 
REMARK    5  A    between atoms: C13_18  and  O2_20 
ROOT
HETATM    1  N1  UNL     1      32.261   6.405  47.311  1.00  0.00    -0.361 N 
HETATM    2  C4  UNL     1      33.151   5.374  46.887  1.00  0.00     0.058 A 
HETATM    3  C5  UNL     1      33.859   4.989  48.034  1.00  0.00     0.031 A 
HETATM    4  C6  UNL     1      34.836   3.981  48.029  1.00  0.00     0.002 A 
HETATM    5  C7  UNL     1      35.142   3.314  46.869  1.00  0.00     0.002 A 
HETATM    6  C8  UNL     1      34.436   3.704  45.756  1.00  0.00     0.031 A 
HETATM    7  C9  UNL     1      33.480   4.686  45.737  1.00  0.00     0.055 A 
HETATM    8  N2  UNL     1      32.900   4.916  44.463  1.00  0.00    -0.379 N 
HETATM    9  C10 UNL     1      33.072   5.481  43.144  1.00  0.00     0.207 C 
HETATM   10  S1  UNL     1      33.786   7.152  43.188  1.00  0.00    -0.066 SA
HETATM   11  S2  UNL     1      32.662   8.574  44.185  1.00  0.00    -0.021 SA
HETATM   12  S3  UNL     1      33.093   8.842  46.235  1.00  0.00    -0.060 SA
HETATM   13  C11 UNL     1      32.125   7.793  47.218  1.00  0.00     0.168 C 
HETATM   14  H10 UNL     1      32.058   4.383  44.763  1.00  0.00     0.160 HD
ENDROOT
BRANCH  13  15
HETATM   15  C12 UNL     1      32.253   8.385  48.641  1.00  0.00     0.148 C 
BRANCH  15  16
HETATM   16  C13 UNL     1      31.189   9.453  48.804  1.00  0.00     0.261 C 
HETATM   17  O1  UNL     1      30.829  10.655  48.575  1.00  0.00    -0.265 OA
BRANCH  16  18
HETATM   18  O2  UNL     1      30.106   8.920  49.516  1.00  0.00    -0.326 OA
HETATM   19  C14 UNL     1      28.760   9.283  49.274  1.00  0.00     0.213 C 
ENDBRANCH  16  18
ENDBRANCH  15  16
ENDBRANCH  13  15
BRANCH   1  20
HETATM   20  C3  UNL     1      31.209   5.756  48.110  1.00  0.00     0.151 C 
BRANCH  20  21
HETATM   21  C2  UNL     1      29.848   5.943  47.652  1.00  0.00    -0.017 C 
HETATM   22  C1  UNL     1      28.748   5.524  48.314  1.00  0.00     0.008 C 
ENDBRANCH  20  21
ENDBRANCH   1  20
TORSDOF 5
ENDMDL
MODEL 4
REMARK VINA RESULT:      -5.4      3.229      5.245
REMARK  5 active torsions:
REMARK  status: ('A' for Active; 'I' for Inactive)
REMARK    1  A    between atoms: C2_2  and  C3_3 
REMARK    2  A    between atoms: C3_3  and  N1_4 
REMARK    3  A    between atoms: C11_16  and  C12_17 
REMARK    4  A    between atoms: C12_17  and  C13_18 
REMARK    5  A    between atoms: C13_18  and  O2_20 
ROOT
HETATM    1  N1  UNL     1      23.548   2.499  51.466  1.00  0.00    -0.361 N 
HETATM    2  C4  UNL     1      23.774   1.377  52.316  1.00  0.00     0.058 A 
HETATM    3  C5  UNL     1      25.102   0.990  52.086  1.00  0.00     0.031 A 
HETATM    4  C6  UNL     1      25.712  -0.088  52.748  1.00  0.00     0.002 A 
HETATM    5  C7  UNL     1      25.012  -0.822  53.673  1.00  0.00     0.002 A 
HETATM    6  C8  UNL     1      23.713  -0.426  53.886  1.00  0.00     0.031 A 
HETATM    7  C9  UNL     1      23.097   0.621  53.250  1.00  0.00     0.055 A 
HETATM    8  N2  UNL     1      21.746   0.826  53.631  1.00  0.00    -0.379 N 
HETATM    9  C10 UNL     1      20.381   0.360  53.532  1.00  0.00     0.207 C 
HETATM   10  S1  UNL     1      19.903  -0.043  51.826  1.00  0.00    -0.066 SA
HETATM   11  S2  UNL     1      19.979   1.530  50.484  1.00  0.00    -0.021 SA
HETATM   12  S3  UNL     1      21.789   1.771  49.424  1.00  0.00    -0.060 SA
HETATM   13  C11 UNL     1      22.878   2.814  50.279  1.00  0.00     0.168 C 
HETATM   14  H10 UNL     1      22.047   1.626  54.224  1.00  0.00     0.160 HD
ENDROOT
BRANCH  13  15
HETATM   15  C12 UNL     1      23.936   3.205  49.221  1.00  0.00     0.148 C 
BRANCH  15  16
HETATM   16  C13 UNL     1      23.489   4.497  48.564  1.00  0.00     0.261 C 
HETATM   17  O1  UNL     1      22.559   5.132  47.963  1.00  0.00    -0.265 OA
BRANCH  16  18
HETATM   18  O2  UNL     1      24.531   5.432  48.627  1.00  0.00    -0.326 OA
HETATM   19  C14 UNL     1      25.830   5.121  49.093  1.00  0.00     0.213 C 
ENDBRANCH  16  18
ENDBRANCH  15  16
ENDBRANCH  13  15
BRANCH   1  20
HETATM   20  C3  UNL     1      24.294   3.628  52.045  1.00  0.00     0.151 C 
BRANCH  20  21
HETATM   21  C2  UNL     1      23.511   4.777  52.447  1.00  0.00    -0.017 C 
HETATM   22  C1  UNL     1      23.650   6.022  51.939  1.00  0.00     0.008 C 
ENDBRANCH  20  21
ENDBRANCH   1  20
TORSDOF 5
ENDMDL
MODEL 5
REMARK VINA RESULT:      -5.4      7.439      9.857
REMARK  5 active torsions:
REMARK  status: ('A' for Active; 'I' for Inactive)
REMARK    1  A    between atoms: C2_2  and  C3_3 
REMARK    2  A    between atoms: C3_3  and  N1_4 
REMARK    3  A    between atoms: C11_16  and  C12_17 
REMARK    4  A    between atoms: C12_17  and  C13_18 
REMARK    5  A    between atoms: C13_18  and  O2_20 
ROOT
HETATM    1  N1  UNL     1      28.459   8.509  47.712  1.00  0.00    -0.361 N 
HETATM    2  C4  UNL     1      28.077   7.191  48.102  1.00  0.00     0.058 A 
HETATM    3  C5  UNL     1      26.764   7.302  48.578  1.00  0.00     0.031 A 
HETATM    4  C6  UNL     1      26.025   6.206  49.053  1.00  0.00     0.002 A 
HETATM    5  C7  UNL     1      26.577   4.950  49.068  1.00  0.00     0.002 A 
HETATM    6  C8  UNL     1      27.865   4.860  48.596  1.00  0.00     0.031 A 
HETATM    7  C9  UNL     1      28.605   5.916  48.129  1.00  0.00     0.055 A 
HETATM    8  N2  UNL     1      29.915   5.574  47.707  1.00  0.00    -0.379 N 
HETATM    9  C10 UNL     1      31.254   5.207  48.109  1.00  0.00     0.207 C 
HETATM   10  S1  UNL     1      31.894   6.257  49.448  1.00  0.00    -0.066 SA
HETATM   11  S2  UNL     1      32.054   8.271  49.000  1.00  0.00    -0.021 SA
HETATM   12  S3  UNL     1      30.387   9.474  49.484  1.00  0.00    -0.060 SA
HETATM   13  C11 UNL     1      29.272   9.555  48.161  1.00  0.00     0.168 C 
HETATM   14  H10 UNL     1      29.596   5.621  46.718  1.00  0.00     0.160 HD
ENDROOT
BRANCH  13  15
HETATM   15  C12 UNL     1      28.360  10.755  48.508  1.00  0.00     0.148 C 
BRANCH  15  16
HETATM   16  C13 UNL     1      29.174  12.025  48.350  1.00  0.00     0.261 C 
HETATM   17  O1  UNL     1      30.231  12.575  47.893  1.00  0.00    -0.265 OA
BRANCH  16  18
HETATM   18  O2  UNL     1      28.498  13.087  48.966  1.00  0.00    -0.326 OA
HETATM   19  C14 UNL     1      27.357  13.711  48.409  1.00  0.00     0.213 C 
ENDBRANCH  16  18
ENDBRANCH  15  16
ENDBRANCH  13  15
BRANCH   1  20
HETATM   20  C3  UNL     1      27.718   8.818  46.478  1.00  0.00     0.151 C 
BRANCH  20  21
HETATM   21  C2  UNL     1      28.380   8.491  45.233  1.00  0.00    -0.017 C 
HETATM   22  C1  UNL     1      28.756   9.393  44.300  1.00  0.00     0.008 C 
ENDBRANCH  20  21
ENDBRANCH   1  20
TORSDOF 5
ENDMDL
MODEL 6
REMARK VINA RESULT:      -5.2      3.445      5.436
REMARK  5 active torsions:
REMARK  status: ('A' for Active; 'I' for Inactive)
REMARK    1  A    between atoms: C2_2  and  C3_3 
REMARK    2  A    between atoms: C3_3  and  N1_4 
REMARK    3  A    between atoms: C11_16  and  C12_17 
REMARK    4  A    between atoms: C12_17  and  C13_18 
REMARK    5  A    between atoms: C13_18  and  O2_20 
ROOT
HETATM    1  N1  UNL     1      24.255   3.703  49.962  1.00  0.00    -0.361 N 
HETATM    2  C4  UNL     1      23.361   3.940  48.876  1.00  0.00     0.058 A 
HETATM    3  C5  UNL     1      23.006   2.674  48.393  1.00  0.00     0.031 A 
HETATM    4  C6  UNL     1      22.124   2.482  47.318  1.00  0.00     0.002 A 
HETATM    5  C7  UNL     1      21.559   3.560  46.682  1.00  0.00     0.002 A 
HETATM    6  C8  UNL     1      21.918   4.793  47.171  1.00  0.00     0.031 A 
HETATM    7  C9  UNL     1      22.778   5.003  48.218  1.00  0.00     0.055 A 
HETATM    8  N2  UNL     1      23.001   6.369  48.529  1.00  0.00    -0.379 N 
HETATM    9  C10 UNL     1      23.650   7.603  48.146  1.00  0.00     0.207 C 
HETATM   10  S1  UNL     1      25.390   7.361  47.680  1.00  0.00    -0.066 SA
HETATM   11  S2  UNL     1      26.614   6.608  49.168  1.00  0.00    -0.021 SA
HETATM   12  S3  UNL     1      26.826   4.508  49.235  1.00  0.00    -0.060 SA
HETATM   13  C11 UNL     1      25.620   3.792  50.252  1.00  0.00     0.168 C 
HETATM   14  H10 UNL     1      22.356   6.277  49.340  1.00  0.00     0.160 HD
ENDROOT
BRANCH  13  15
HETATM   15  C12 UNL     1      26.149   2.363  50.516  1.00  0.00     0.148 C 
BRANCH  15  16
HETATM   16  C13 UNL     1      26.958   2.390  51.798  1.00  0.00     0.261 C 
HETATM   17  O1  UNL     1      28.098   2.559  52.347  1.00  0.00    -0.265 OA
BRANCH  16  18
HETATM   18  O2  UNL     1      26.115   2.112  52.882  1.00  0.00    -0.326 OA
HETATM   19  C14 UNL     1      25.450   0.875  53.056  1.00  0.00     0.213 C 
ENDBRANCH  16  18
ENDBRANCH  15  16
ENDBRANCH  13  15
BRANCH   1  20
HETATM   20  C3  UNL     1      23.444   3.175  51.071  1.00  0.00     0.151 C 
BRANCH  20  21
HETATM   21  C2  UNL     1      22.860   4.155  51.962  1.00  0.00    -0.017 C 
HETATM   22  C1  UNL     1      23.491   4.710  53.020  1.00  0.00     0.008 C 
ENDBRANCH  20  21
ENDBRANCH   1  20
TORSDOF 5
ENDMDL
MODEL 7
REMARK VINA RESULT:      -5.1      3.129      5.395
REMARK  5 active torsions:
REMARK  status: ('A' for Active; 'I' for Inactive)
REMARK    1  A    between atoms: C2_2  and  C3_3 
REMARK    2  A    between atoms: C3_3  and  N1_4 
REMARK    3  A    between atoms: C11_16  and  C12_17 
REMARK    4  A    between atoms: C12_17  and  C13_18 
REMARK    5  A    between atoms: C13_18  and  O2_20 
ROOT
HETATM    1  N1  UNL     1      23.742   2.905  50.698  1.00  0.00    -0.361 N 
HETATM    2  C4  UNL     1      22.523   3.051  49.972  1.00  0.00     0.058 A 
HETATM    3  C5  UNL     1      22.502   1.995  49.051  1.00  0.00     0.031 A 
HETATM    4  C6  UNL     1      21.448   1.786  48.147  1.00  0.00     0.002 A 
HETATM    5  C7  UNL     1      20.367   2.633  48.132  1.00  0.00     0.002 A 
HETATM    6  C8  UNL     1      20.405   3.661  49.043  1.00  0.00     0.031 A 
HETATM    7  C9  UNL     1      21.424   3.884  49.933  1.00  0.00     0.055 A 
HETATM    8  N2  UNL     1      21.240   5.019  50.764  1.00  0.00    -0.379 N 
HETATM    9  C10 UNL     1      21.252   6.462  50.855  1.00  0.00     0.207 C 
HETATM   10  S1  UNL     1      22.717   7.199  50.069  1.00  0.00    -0.066 SA
HETATM   11  S2  UNL     1      24.537   6.643  50.881  1.00  0.00    -0.021 SA
HETATM   12  S3  UNL     1      25.484   4.972  50.004  1.00  0.00    -0.060 SA
HETATM   13  C11 UNL     1      25.004   3.502  50.785  1.00  0.00     0.168 C 
HETATM   14  H10 UNL     1      20.967   4.389  51.544  1.00  0.00     0.160 HD
ENDROOT
BRANCH  13  15
HETATM   15  C12 UNL     1      26.057   2.468  50.323  1.00  0.00     0.148 C 
BRANCH  15  16
HETATM   16  C13 UNL     1      26.929   2.121  51.514  1.00  0.00     0.261 C 
HETATM   17  O1  UNL     1      27.743   2.533  52.407  1.00  0.00    -0.265 OA
BRANCH  16  18
HETATM   18  O2  UNL     1      26.818   0.750  51.785  1.00  0.00    -0.326 OA
HETATM   19  C14 UNL     1      27.403   0.129  52.913  1.00  0.00     0.213 C 
ENDBRANCH  16  18
ENDBRANCH  15  16
ENDBRANCH  13  15
BRANCH   1  20
HETATM   20  C3  UNL     1      23.572   1.740  51.582  1.00  0.00     0.151 C 
BRANCH  20  21
HETATM   21  C2  UNL     1      22.660   1.905  52.694  1.00  0.00    -0.017 C 
HETATM   22  C1  UNL     1      21.853   0.937  53.179  1.00  0.00     0.008 C 
ENDBRANCH  20  21
ENDBRANCH   1  20
TORSDOF 5
ENDMDL
MODEL 8
REMARK VINA RESULT:      -5.0      7.818     10.774
REMARK  5 active torsions:
REMARK  status: ('A' for Active; 'I' for Inactive)
REMARK    1  A    between atoms: C2_2  and  C3_3 
REMARK    2  A    between atoms: C3_3  and  N1_4 
REMARK    3  A    between atoms: C11_16  and  C12_17 
REMARK    4  A    between atoms: C12_17  and  C13_18 
REMARK    5  A    between atoms: C13_18  and  O2_20 
ROOT
HETATM    1  N1  UNL     1      29.944   7.493  47.711  1.00  0.00    -0.361 N 
HETATM    2  C4  UNL     1      28.664   7.030  48.134  1.00  0.00     0.058 A 
HETATM    3  C5  UNL     1      28.780   5.637  48.236  1.00  0.00     0.031 A 
HETATM    4  C6  UNL     1      27.721   4.806  48.637  1.00  0.00     0.002 A 
HETATM    5  C7  UNL     1      26.499   5.344  48.955  1.00  0.00     0.002 A 
HETATM    6  C8  UNL     1      26.405   6.711  48.851  1.00  0.00     0.031 A 
HETATM    7  C9  UNL     1      27.424   7.540  48.460  1.00  0.00     0.055 A 
HETATM    8  N2  UNL     1      27.079   8.915  48.419  1.00  0.00    -0.379 N 
HETATM    9  C10 UNL     1      26.368   9.960  47.716  1.00  0.00     0.207 C 
HETATM   10  S1  UNL     1      26.655   9.915  45.923  1.00  0.00    -0.066 SA
HETATM   11  S2  UNL     1      28.620  10.178  45.329  1.00  0.00    -0.021 SA
HETATM   12  S3  UNL     1      29.769   8.424  45.086  1.00  0.00    -0.060 SA
HETATM   13  C11 UNL     1      30.567   7.991  46.562  1.00  0.00     0.168 C 
HETATM   14  H10 UNL     1      27.580   9.056  49.320  1.00  0.00     0.160 HD
ENDROOT
BRANCH  13  15
HETATM   15  C12 UNL     1      31.648   6.976  46.124  1.00  0.00     0.148 C 
BRANCH  15  16
HETATM   16  C13 UNL     1      32.837   7.754  45.595  1.00  0.00     0.261 C 
HETATM   17  O1  UNL     1      33.466   8.195  44.576  1.00  0.00    -0.265 OA
BRANCH  16  18
HETATM   18  O2  UNL     1      33.610   8.205  46.673  1.00  0.00    -0.326 OA
HETATM   19  C14 UNL     1      34.717   9.074  46.529  1.00  0.00     0.213 C 
ENDBRANCH  16  18
ENDBRANCH  15  16
ENDBRANCH  13  15
BRANCH   1  20
HETATM   20  C3  UNL     1      30.849   7.351  48.864  1.00  0.00     0.151 C 
BRANCH  20  21
HETATM   21  C2  UNL     1      31.398   8.576  49.405  1.00  0.00    -0.017 C 
HETATM   22  C1  UNL     1      30.682   9.692  49.667  1.00  0.00     0.008 C 
ENDBRANCH  20  21
ENDBRANCH   1  20
TORSDOF 5
ENDMDL
MODEL 9
REMARK VINA RESULT:      -4.7      3.277      5.442
REMARK  5 active torsions:
REMARK  status: ('A' for Active; 'I' for Inactive)
REMARK    1  A    between atoms: C2_2  and  C3_3 
REMARK    2  A    between atoms: C3_3  and  N1_4 
REMARK    3  A    between atoms: C11_16  and  C12_17 
REMARK    4  A    between atoms: C12_17  and  C13_18 
REMARK    5  A    between atoms: C13_18  and  O2_20 
ROOT
HETATM    1  N1  UNL     1      22.006   3.595  50.669  1.00  0.00    -0.361 N 
HETATM    2  C4  UNL     1      21.437   4.866  50.363  1.00  0.00     0.058 A 
HETATM    3  C5  UNL     1      22.326   5.815  50.887  1.00  0.00     0.031 A 
HETATM    4  C6  UNL     1      22.119   7.199  50.782  1.00  0.00     0.002 A 
HETATM    5  C7  UNL     1      21.008   7.690  50.142  1.00  0.00     0.002 A 
HETATM    6  C8  UNL     1      20.149   6.745  49.634  1.00  0.00     0.031 A 
HETATM    7  C9  UNL     1      20.330   5.389  49.727  1.00  0.00     0.055 A 
HETATM    8  N2  UNL     1      19.298   4.617  49.133  1.00  0.00    -0.379 N 
HETATM    9  C10 UNL     1      17.939   4.137  49.240  1.00  0.00     0.207 C 
HETATM   10  S1  UNL     1      17.554   3.492  50.895  1.00  0.00    -0.066 SA
HETATM   11  S2  UNL     1      18.692   1.877  51.509  1.00  0.00    -0.021 SA
HETATM   12  S3  UNL     1      20.442   2.324  52.601  1.00  0.00    -0.060 SA
HETATM   13  C11 UNL     1      21.802   2.524  51.545  1.00  0.00     0.168 C 
HETATM   14  H10 UNL     1      19.916   4.441  48.316  1.00  0.00     0.160 HD
ENDROOT
BRANCH  13  15
HETATM   15  C12 UNL     1      23.027   2.433  52.485  1.00  0.00     0.148 C 
BRANCH  15  16
HETATM   16  C13 UNL     1      23.463   0.983  52.552  1.00  0.00     0.261 C 
HETATM   17  O1  UNL     1      23.194  -0.204  52.937  1.00  0.00    -0.265 OA
BRANCH  16  18
HETATM   18  O2  UNL     1      24.706   0.844  51.919  1.00  0.00    -0.326 OA
HETATM   19  C14 UNL     1      25.937   0.828  52.615  1.00  0.00     0.213 C 
ENDBRANCH  16  18
ENDBRANCH  15  16
ENDBRANCH  13  15
BRANCH   1  20
HETATM   20  C3  UNL     1      23.174   3.429  49.789  1.00  0.00     0.151 C 
BRANCH  20  21
HETATM   21  C2  UNL     1      22.895   3.099  48.407  1.00  0.00    -0.017 C 
HETATM   22  C1  UNL     1      22.258   1.981  47.994  1.00  0.00     0.008 C 
ENDBRANCH  20  21
ENDBRANCH   1  20
TORSDOF 5
ENDMDL
