MODEL 1
REMARK VINA RESULT:      -8.5      0.000      0.000
REMARK  7 active torsions:
REMARK  status: ('A' for Active; 'I' for Inactive)
REMARK    1  A    between atoms: C2_2  and  C3_3 
REMARK       I    between atoms: C3_3  and  N1_5 
REMARK    2  A    between atoms: N1_5  and  C4_6 
REMARK    3  A    between atoms: C6_8  and  N2_9 
REMARK    4  A    between atoms: C6_8  and  O2_20 
REMARK    5  A    between atoms: N2_9  and  C7_10 
REMARK    6  A    between atoms: C16_23  and  N6_24 
REMARK    7  A    between atoms: C19_27  and  N7_28 
ROOT
HETATM    1  C4  UNL     1      23.244   1.321  51.884  1.00  0.00     0.062 A 
HETATM    2  C5  UNL     1      22.985   2.378  51.130  1.00  0.00     0.070 A 
HETATM    3  C6  UNL     1      24.165   3.226  50.910  1.00  0.00     0.192 A 
HETATM    4  C15 UNL     1      25.184   2.437  51.696  1.00  0.00     0.070 A 
HETATM    5  C16 UNL     1      24.654   1.337  52.260  1.00  0.00     0.058 A 
ENDROOT
BRANCH   3   6
HETATM    6  N2  UNL     1      24.534   3.437  49.555  1.00  0.00    -0.181 N 
HETATM    7  H6  UNL     1      24.452   2.660  48.838  1.00  0.00     0.181 HD
BRANCH   6   8
HETATM    8  C7  UNL     1      25.025   4.679  49.093  1.00  0.00     0.742 A 
HETATM    9  N3  UNL     1      24.193   5.707  48.845  1.00  0.00    -0.072 NA
HETATM   10  C8  UNL     1      24.629   6.909  48.403  1.00  0.00     0.168 A 
HETATM   11  C9  UNL     1      25.994   7.127  48.182  1.00  0.00     0.077 A 
HETATM   12  C10 UNL     1      26.810   8.169  47.750  1.00  0.00     0.035 A 
HETATM   13  N4  UNL     1      26.788   6.072  48.443  1.00  0.00    -0.222 N 
HETATM   14  C11 UNL     1      28.123   7.690  47.766  1.00  0.00     0.029 A 
HETATM   15  C12 UNL     1      28.094   6.386  48.198  1.00  0.00     0.033 A 
HETATM   16  C13 UNL     1      29.284   5.507  48.357  1.00  0.00     0.070 C 
HETATM   17  N5  UNL     1      26.324   4.910  48.876  1.00  0.00     0.026 NA
ENDBRANCH   6   8
ENDBRANCH   3   6
BRANCH   3  18
HETATM   18  O2  UNL     1      24.069   4.449  51.594  1.00  0.00    -0.358 OA
HETATM   19  C14 UNL     1      22.781   4.634  52.061  1.00  0.00     0.205 C 
ENDBRANCH   3  18
BRANCH   1  20
HETATM   20  N1  UNL     1      22.426   0.275  52.330  1.00  0.00    -0.322 N 
HETATM   21  C3  UNL     1      21.210   0.454  53.037  1.00  0.00     0.244 C 
HETATM   22  O1  UNL     1      20.590   1.494  53.418  1.00  0.00    -0.268 OA
HETATM   23  H4  UNL     1      22.648  -0.735  52.175  1.00  0.00     0.169 HD
BRANCH  21  24
HETATM   24  C2  UNL     1      20.290  -0.541  53.549  1.00  0.00     0.064 C 
HETATM   25  C1  UNL     1      20.763  -1.551  54.252  1.00  0.00     0.017 C 
ENDBRANCH  21  24
ENDBRANCH   1  20
BRANCH   5  26
HETATM   26  N6  UNL     1      25.553   0.523  53.022  1.00  0.00    -0.379 N 
HETATM   27  C17 UNL     1      25.534   0.246  54.443  1.00  0.00     0.125 C 
HETATM   28  C18 UNL     1      26.893   0.122  55.048  1.00  0.00     0.044 C 
HETATM   29  C19 UNL     1      27.937  -0.452  54.152  1.00  0.00     0.081 C 
HETATM   30  C22 UNL     1      27.480  -0.868  52.809  1.00  0.00     0.044 C 
HETATM   31  C23 UNL     1      26.529   0.007  52.094  1.00  0.00     0.125 C 
BRANCH  29  32
HETATM   32  N7  UNL     1      29.107   0.366  54.085  1.00  0.00    -0.416 N 
HETATM   33  C20 UNL     1      28.926   1.761  53.947  1.00  0.00     0.143 C 
HETATM   34  C21 UNL     1      30.212  -0.211  53.374  1.00  0.00     0.143 C 
ENDBRANCH  29  32
ENDBRANCH   5  26
TORSDOF 7
ENDMDL
MODEL 2
REMARK VINA RESULT:      -8.5      0.745      1.575
REMARK  7 active torsions:
REMARK  status: ('A' for Active; 'I' for Inactive)
REMARK    1  A    between atoms: C2_2  and  C3_3 
REMARK       I    between atoms: C3_3  and  N1_5 
REMARK    2  A    between atoms: N1_5  and  C4_6 
REMARK    3  A    between atoms: C6_8  and  N2_9 
REMARK    4  A    between atoms: C6_8  and  O2_20 
REMARK    5  A    between atoms: N2_9  and  C7_10 
REMARK    6  A    between atoms: C16_23  and  N6_24 
REMARK    7  A    between atoms: C19_27  and  N7_28 
ROOT
HETATM    1  C4  UNL     1      22.997   0.988  51.974  1.00  0.00     0.062 A 
HETATM    2  C5  UNL     1      22.638   2.028  51.236  1.00  0.00     0.070 A 
HETATM    3  C6  UNL     1      23.744   2.968  51.000  1.00  0.00     0.192 A 
HETATM    4  C15 UNL     1      24.838   2.255  51.756  1.00  0.00     0.070 A 
HETATM    5  C16 UNL     1      24.409   1.112  52.319  1.00  0.00     0.058 A 
ENDROOT
BRANCH   3   6
HETATM    6  N2  UNL     1      24.065   3.219  49.639  1.00  0.00    -0.181 N 
HETATM    7  H6  UNL     1      23.538   2.737  48.855  1.00  0.00     0.181 HD
BRANCH   6   8
HETATM    8  C7  UNL     1      25.091   4.113  49.260  1.00  0.00     0.742 A 
HETATM    9  N3  UNL     1      26.383   3.741  49.289  1.00  0.00    -0.072 NA
HETATM   10  C8  UNL     1      27.391   4.571  48.934  1.00  0.00     0.168 A 
HETATM   11  C9  UNL     1      27.114   5.877  48.513  1.00  0.00     0.077 A 
HETATM   12  C10 UNL     1      27.831   6.990  48.084  1.00  0.00     0.035 A 
HETATM   13  N4  UNL     1      25.809   6.205  48.499  1.00  0.00    -0.222 N 
HETATM   14  C11 UNL     1      26.897   7.995  47.812  1.00  0.00     0.029 A 
HETATM   15  C12 UNL     1      25.645   7.492  48.076  1.00  0.00     0.033 A 
HETATM   16  C13 UNL     1      24.369   8.241  47.919  1.00  0.00     0.070 C 
HETATM   17  N5  UNL     1      24.850   5.365  48.855  1.00  0.00     0.026 NA
ENDBRANCH   6   8
ENDBRANCH   3   6
BRANCH   3  18
HETATM   18  O2  UNL     1      23.566   4.174  51.698  1.00  0.00    -0.358 OA
HETATM   19  C14 UNL     1      22.239   4.558  51.656  1.00  0.00     0.205 C 
ENDBRANCH   3  18
BRANCH   1  20
HETATM   20  N1  UNL     1      22.274  -0.124  52.427  1.00  0.00    -0.322 N 
HETATM   21  C3  UNL     1      21.227  -0.064  53.380  1.00  0.00     0.244 C 
HETATM   22  O1  UNL     1      20.707   0.903  54.017  1.00  0.00    -0.268 OA
HETATM   23  H4  UNL     1      22.450  -1.098  52.093  1.00  0.00     0.169 HD
BRANCH  21  24
HETATM   24  C2  UNL     1      20.417  -1.135  53.924  1.00  0.00     0.064 C 
HETATM   25  C1  UNL     1      19.170  -1.267  53.517  1.00  0.00     0.017 C 
ENDBRANCH  21  24
ENDBRANCH   1  20
BRANCH   5  26
HETATM   26  N6  UNL     1      25.386   0.365  53.054  1.00  0.00    -0.379 N 
HETATM   27  C17 UNL     1      25.413   0.064  54.470  1.00  0.00     0.125 C 
HETATM   28  C18 UNL     1      26.787   0.046  55.053  1.00  0.00     0.044 C 
HETATM   29  C19 UNL     1      27.863  -0.421  54.133  1.00  0.00     0.081 C 
HETATM   30  C22 UNL     1      27.421  -0.851  52.788  1.00  0.00     0.044 C 
HETATM   31  C23 UNL     1      26.388  -0.049  52.104  1.00  0.00     0.125 C 
BRANCH  29  32
HETATM   32  N7  UNL     1      28.957   0.496  54.064  1.00  0.00    -0.416 N 
HETATM   33  C20 UNL     1      28.662   1.851  53.794  1.00  0.00     0.143 C 
HETATM   34  C21 UNL     1      30.154  -0.031  53.473  1.00  0.00     0.143 C 
ENDBRANCH  29  32
ENDBRANCH   5  26
TORSDOF 7
ENDMDL
MODEL 3
REMARK VINA RESULT:      -8.4      2.769      7.317
REMARK  7 active torsions:
REMARK  status: ('A' for Active; 'I' for Inactive)
REMARK    1  A    between atoms: C2_2  and  C3_3 
REMARK       I    between atoms: C3_3  and  N1_5 
REMARK    2  A    between atoms: N1_5  and  C4_6 
REMARK    3  A    between atoms: C6_8  and  N2_9 
REMARK    4  A    between atoms: C6_8  and  O2_20 
REMARK    5  A    between atoms: N2_9  and  C7_10 
REMARK    6  A    between atoms: C16_23  and  N6_24 
REMARK    7  A    between atoms: C19_27  and  N7_28 
ROOT
HETATM    1  C4  UNL     1      22.697   1.914  51.521  1.00  0.00     0.062 A 
HETATM    2  C5  UNL     1      23.924   1.483  51.766  1.00  0.00     0.070 A 
HETATM    3  C6  UNL     1      24.908   2.573  51.842  1.00  0.00     0.192 A 
HETATM    4  C15 UNL     1      23.993   3.746  51.592  1.00  0.00     0.070 A 
HETATM    5  C16 UNL     1      22.716   3.369  51.405  1.00  0.00     0.058 A 
ENDROOT
BRANCH   3   6
HETATM    6  N2  UNL     1      25.634   2.669  53.059  1.00  0.00    -0.181 N 
HETATM    7  H6  UNL     1      25.313   3.313  53.838  1.00  0.00     0.181 HD
BRANCH   6   8
HETATM    8  C7  UNL     1      26.810   1.922  53.295  1.00  0.00     0.742 A 
HETATM    9  N3  UNL     1      27.915   2.504  53.795  1.00  0.00    -0.072 NA
HETATM   10  C8  UNL     1      29.057   1.819  54.033  1.00  0.00     0.168 A 
HETATM   11  C9  UNL     1      29.128   0.447  53.760  1.00  0.00     0.077 A 
HETATM   12  C10 UNL     1      30.071  -0.571  53.858  1.00  0.00     0.035 A 
HETATM   13  N4  UNL     1      28.000  -0.091  53.262  1.00  0.00    -0.222 N 
HETATM   14  C11 UNL     1      29.457  -1.740  53.399  1.00  0.00     0.029 A 
HETATM   15  C12 UNL     1      28.171  -1.426  53.031  1.00  0.00     0.033 A 
HETATM   16  C13 UNL     1      27.175  -2.388  52.486  1.00  0.00     0.070 C 
HETATM   17  N5  UNL     1      26.900   0.612  53.042  1.00  0.00     0.026 NA
ENDBRANCH   6   8
ENDBRANCH   3   6
BRANCH   3  18
HETATM   18  O2  UNL     1      25.781   2.571  50.743  1.00  0.00    -0.358 OA
HETATM   19  C14 UNL     1      25.986   3.862  50.294  1.00  0.00     0.205 C 
ENDBRANCH   3  18
BRANCH   1  20
HETATM   20  N1  UNL     1      21.483   1.229  51.373  1.00  0.00    -0.322 N 
HETATM   21  C3  UNL     1      20.674   0.790  52.451  1.00  0.00     0.244 C 
HETATM   22  O1  UNL     1      20.806   0.885  53.710  1.00  0.00    -0.268 OA
HETATM   23  H4  UNL     1      21.071   0.985  50.444  1.00  0.00     0.169 HD
BRANCH  21  24
HETATM   24  C2  UNL     1      19.415   0.075  52.423  1.00  0.00     0.064 C 
HETATM   25  C1  UNL     1      18.629   0.201  51.372  1.00  0.00     0.017 C 
ENDBRANCH  21  24
ENDBRANCH   1  20
BRANCH   5  26
HETATM   26  N6  UNL     1      21.774   4.421  51.166  1.00  0.00    -0.379 N 
HETATM   27  C17 UNL     1      20.337   4.328  51.014  1.00  0.00     0.125 C 
HETATM   28  C18 UNL     1      19.775   5.296  50.026  1.00  0.00     0.044 C 
HETATM   29  C19 UNL     1      20.489   6.601  49.937  1.00  0.00     0.081 C 
HETATM   30  C22 UNL     1      21.622   6.784  50.870  1.00  0.00     0.044 C 
HETATM   31  C23 UNL     1      22.534   5.644  51.091  1.00  0.00     0.125 C 
BRANCH  29  32
HETATM   32  N7  UNL     1      20.849   6.935  48.594  1.00  0.00    -0.416 N 
HETATM   33  C20 UNL     1      21.286   5.888  47.752  1.00  0.00     0.143 C 
HETATM   34  C21 UNL     1      21.507   8.201  48.439  1.00  0.00     0.143 C 
ENDBRANCH  29  32
ENDBRANCH   5  26
TORSDOF 7
ENDMDL
MODEL 4
REMARK VINA RESULT:      -8.3      2.040      8.143
REMARK  7 active torsions:
REMARK  status: ('A' for Active; 'I' for Inactive)
REMARK    1  A    between atoms: C2_2  and  C3_3 
REMARK       I    between atoms: C3_3  and  N1_5 
REMARK    2  A    between atoms: N1_5  and  C4_6 
REMARK    3  A    between atoms: C6_8  and  N2_9 
REMARK    4  A    between atoms: C6_8  and  O2_20 
REMARK    5  A    between atoms: N2_9  and  C7_10 
REMARK    6  A    between atoms: C16_23  and  N6_24 
REMARK    7  A    between atoms: C19_27  and  N7_28 
ROOT
HETATM    1  C4  UNL     1      25.544   2.617  51.669  1.00  0.00     0.062 A 
HETATM    2  C5  UNL     1      24.493   1.993  52.179  1.00  0.00     0.070 A 
HETATM    3  C6  UNL     1      23.239   2.334  51.492  1.00  0.00     0.192 A 
HETATM    4  C15 UNL     1      23.778   3.294  50.460  1.00  0.00     0.070 A 
HETATM    5  C16 UNL     1      25.109   3.459  50.560  1.00  0.00     0.058 A 
ENDROOT
BRANCH   3   6
HETATM    6  N2  UNL     1      22.521   1.243  50.932  1.00  0.00    -0.181 N 
HETATM    7  H6  UNL     1      22.758   0.869  49.969  1.00  0.00     0.181 HD
BRANCH   6   8
HETATM    8  C7  UNL     1      21.466   0.605  51.620  1.00  0.00     0.742 A 
HETATM    9  N3  UNL     1      21.660   0.047  52.829  1.00  0.00    -0.072 NA
HETATM   10  C8  UNL     1      20.672  -0.572  53.515  1.00  0.00     0.168 A 
HETATM   11  C9  UNL     1      19.382  -0.654  52.977  1.00  0.00     0.077 A 
HETATM   12  C10 UNL     1      18.148  -1.180  53.346  1.00  0.00     0.035 A 
HETATM   13  N4  UNL     1      19.235  -0.082  51.767  1.00  0.00    -0.222 N 
HETATM   14  C11 UNL     1      17.258  -0.897  52.305  1.00  0.00     0.029 A 
HETATM   15  C12 UNL     1      17.948  -0.215  51.332  1.00  0.00     0.033 A 
HETATM   16  C13 UNL     1      17.368   0.273  50.051  1.00  0.00     0.070 C 
HETATM   17  N5  UNL     1      20.226   0.515  51.126  1.00  0.00     0.026 NA
ENDBRANCH   6   8
ENDBRANCH   3   6
BRANCH   3  18
HETATM   18  O2  UNL     1      22.397   3.122  52.294  1.00  0.00    -0.358 OA
HETATM   19  C14 UNL     1      21.773   4.087  51.526  1.00  0.00     0.205 C 
ENDBRANCH   3  18
BRANCH   1  20
HETATM   20  N1  UNL     1      26.902   2.581  52.013  1.00  0.00    -0.322 N 
HETATM   21  C3  UNL     1      27.392   2.315  53.316  1.00  0.00     0.244 C 
HETATM   22  O1  UNL     1      26.806   2.061  54.413  1.00  0.00    -0.268 OA
HETATM   23  H4  UNL     1      27.673   2.748  51.327  1.00  0.00     0.169 HD
BRANCH  21  24
HETATM   24  C2  UNL     1      28.760   2.257  53.789  1.00  0.00     0.064 C 
HETATM   25  C1  UNL     1      29.317   1.079  53.997  1.00  0.00     0.017 C 
ENDBRANCH  21  24
ENDBRANCH   1  20
BRANCH   5  26
HETATM   26  N6  UNL     1      25.708   4.352  49.613  1.00  0.00    -0.379 N 
HETATM   27  C17 UNL     1      26.976   4.219  48.928  1.00  0.00     0.125 C 
HETATM   28  C18 UNL     1      27.680   5.519  48.713  1.00  0.00     0.044 C 
HETATM   29  C19 UNL     1      26.790   6.695  48.495  1.00  0.00     0.081 C 
HETATM   30  C22 UNL     1      25.339   6.412  48.469  1.00  0.00     0.044 C 
HETATM   31  C23 UNL     1      24.797   5.458  49.457  1.00  0.00     0.125 C 
BRANCH  29  32
HETATM   32  N7  UNL     1      27.103   7.784  49.367  1.00  0.00    -0.416 N 
HETATM   33  C20 UNL     1      26.027   8.524  49.906  1.00  0.00     0.143 C 
HETATM   34  C21 UNL     1      28.280   8.526  49.014  1.00  0.00     0.143 C 
ENDBRANCH  29  32
ENDBRANCH   5  26
TORSDOF 7
ENDMDL
MODEL 5
REMARK VINA RESULT:      -8.0      1.882      4.853
REMARK  7 active torsions:
REMARK  status: ('A' for Active; 'I' for Inactive)
REMARK    1  A    between atoms: C2_2  and  C3_3 
REMARK       I    between atoms: C3_3  and  N1_5 
REMARK    2  A    between atoms: N1_5  and  C4_6 
REMARK    3  A    between atoms: C6_8  and  N2_9 
REMARK    4  A    between atoms: C6_8  and  O2_20 
REMARK    5  A    between atoms: N2_9  and  C7_10 
REMARK    6  A    between atoms: C16_23  and  N6_24 
REMARK    7  A    between atoms: C19_27  and  N7_28 
ROOT
HETATM    1  C4  UNL     1      26.125   1.809  51.676  1.00  0.00     0.062 A 
HETATM    2  C5  UNL     1      26.437   2.762  50.811  1.00  0.00     0.070 A 
HETATM    3  C6  UNL     1      25.265   3.519  50.348  1.00  0.00     0.192 A 
HETATM    4  C15 UNL     1      24.189   2.809  51.133  1.00  0.00     0.070 A 
HETATM    5  C16 UNL     1      24.684   1.821  51.901  1.00  0.00     0.058 A 
ENDROOT
BRANCH   3   6
HETATM    6  N2  UNL     1      25.302   4.920  50.576  1.00  0.00    -0.181 N 
HETATM    7  H6  UNL     1      25.012   5.331  51.509  1.00  0.00     0.181 HD
BRANCH   6   8
HETATM    8  C7  UNL     1      25.722   5.833  49.583  1.00  0.00     0.742 A 
HETATM    9  N3  UNL     1      24.872   6.738  49.065  1.00  0.00    -0.072 NA
HETATM   10  C8  UNL     1      25.241   7.626  48.113  1.00  0.00     0.168 A 
HETATM   11  C9  UNL     1      26.552   7.633  47.624  1.00  0.00     0.077 A 
HETATM   12  C10 UNL     1      27.295   8.350  46.691  1.00  0.00     0.035 A 
HETATM   13  N4  UNL     1      27.367   6.712  48.171  1.00  0.00    -0.222 N 
HETATM   14  C11 UNL     1      28.588   7.818  46.706  1.00  0.00     0.029 A 
HETATM   15  C12 UNL     1      28.617   6.801  47.630  1.00  0.00     0.033 A 
HETATM   16  C13 UNL     1      29.808   5.970  47.954  1.00  0.00     0.070 C 
HETATM   17  N5  UNL     1      26.970   5.858  49.101  1.00  0.00     0.026 NA
ENDBRANCH   6   8
ENDBRANCH   3   6
BRANCH   3  18
HETATM   18  O2  UNL     1      24.956   3.243  49.006  1.00  0.00    -0.358 OA
HETATM   19  C14 UNL     1      23.589   3.111  48.849  1.00  0.00     0.205 C 
ENDBRANCH   3  18
BRANCH   1  20
HETATM   20  N1  UNL     1      26.919   0.874  52.354  1.00  0.00    -0.322 N 
HETATM   21  C3  UNL     1      27.757   1.181  53.455  1.00  0.00     0.244 C 
HETATM   22  O1  UNL     1      27.996   2.267  54.069  1.00  0.00    -0.268 OA
HETATM   23  H4  UNL     1      26.956  -0.139  52.100  1.00  0.00     0.169 HD
BRANCH  21  24
HETATM   24  C2  UNL     1      28.618   0.309  54.226  1.00  0.00     0.064 C 
HETATM   25  C1  UNL     1      29.465  -0.479  53.593  1.00  0.00     0.017 C 
ENDBRANCH  21  24
ENDBRANCH   1  20
BRANCH   5  26
HETATM   26  N6  UNL     1      23.731   1.096  52.687  1.00  0.00    -0.379 N 
HETATM   27  C17 UNL     1      23.839  -0.245  53.222  1.00  0.00     0.125 C 
HETATM   28  C18 UNL     1      22.546  -0.991  53.237  1.00  0.00     0.044 C 
HETATM   29  C19 UNL     1      21.332  -0.154  53.459  1.00  0.00     0.081 C 
HETATM   30  C22 UNL     1      21.573   1.288  53.685  1.00  0.00     0.044 C 
HETATM   31  C23 UNL     1      22.592   1.963  52.858  1.00  0.00     0.125 C 
BRANCH  29  32
HETATM   32  N7  UNL     1      20.329  -0.374  52.465  1.00  0.00    -0.416 N 
HETATM   33  C20 UNL     1      20.459   0.313  51.237  1.00  0.00     0.143 C 
HETATM   34  C21 UNL     1      18.996  -0.536  52.973  1.00  0.00     0.143 C 
ENDBRANCH  29  32
ENDBRANCH   5  26
TORSDOF 7
ENDMDL
MODEL 6
REMARK VINA RESULT:      -7.8      2.004      7.746
REMARK  7 active torsions:
REMARK  status: ('A' for Active; 'I' for Inactive)
REMARK    1  A    between atoms: C2_2  and  C3_3 
REMARK       I    between atoms: C3_3  and  N1_5 
REMARK    2  A    between atoms: N1_5  and  C4_6 
REMARK    3  A    between atoms: C6_8  and  N2_9 
REMARK    4  A    between atoms: C6_8  and  O2_20 
REMARK    5  A    between atoms: N2_9  and  C7_10 
REMARK    6  A    between atoms: C16_23  and  N6_24 
REMARK    7  A    between atoms: C19_27  and  N7_28 
ROOT
HETATM    1  C4  UNL     1      25.463   3.348  50.916  1.00  0.00     0.062 A 
HETATM    2  C5  UNL     1      24.257   2.876  51.192  1.00  0.00     0.070 A 
HETATM    3  C6  UNL     1      23.221   3.389  50.283  1.00  0.00     0.192 A 
HETATM    4  C15 UNL     1      24.079   4.268  49.405  1.00  0.00     0.070 A 
HETATM    5  C16 UNL     1      25.374   4.246  49.769  1.00  0.00     0.058 A 
ENDROOT
BRANCH   3   6
HETATM    6  N2  UNL     1      22.488   2.410  49.561  1.00  0.00    -0.181 N 
HETATM    7  H6  UNL     1      22.753   2.149  48.569  1.00  0.00     0.181 HD
BRANCH   6   8
HETATM    8  C7  UNL     1      21.377   1.739  50.120  1.00  0.00     0.742 A 
HETATM    9  N3  UNL     1      20.190   1.712  49.488  1.00  0.00    -0.072 NA
HETATM   10  C8  UNL     1      19.107   1.079  49.995  1.00  0.00     0.168 A 
HETATM   11  C9  UNL     1      19.188   0.414  51.224  1.00  0.00     0.077 A 
HETATM   12  C10 UNL     1      18.344  -0.322  52.050  1.00  0.00     0.035 A 
HETATM   13  N4  UNL     1      20.394   0.466  51.819  1.00  0.00    -0.222 N 
HETATM   14  C11 UNL     1      19.098  -0.707  53.162  1.00  0.00     0.029 A 
HETATM   15  C12 UNL     1      20.370  -0.210  53.005  1.00  0.00     0.033 A 
HETATM   16  C13 UNL     1      21.488  -0.393  53.969  1.00  0.00     0.070 C 
HETATM   17  N5  UNL     1      21.432   1.096  51.292  1.00  0.00     0.026 NA
ENDBRANCH   6   8
ENDBRANCH   3   6
BRANCH   3  18
HETATM   18  O2  UNL     1      22.352   4.284  50.928  1.00  0.00    -0.358 OA
HETATM   19  C14 UNL     1      22.628   4.324  52.282  1.00  0.00     0.205 C 
ENDBRANCH   3  18
BRANCH   1  20
HETATM   20  N1  UNL     1      26.708   3.123  51.518  1.00  0.00    -0.322 N 
HETATM   21  C3  UNL     1      27.042   1.963  52.260  1.00  0.00     0.244 C 
HETATM   22  O1  UNL     1      26.382   0.918  52.553  1.00  0.00    -0.268 OA
HETATM   23  H4  UNL     1      27.502   3.802  51.466  1.00  0.00     0.169 HD
BRANCH  21  24
HETATM   24  C2  UNL     1      28.283   1.623  52.926  1.00  0.00     0.064 C 
HETATM   25  C1  UNL     1      28.786   2.461  53.811  1.00  0.00     0.017 C 
ENDBRANCH  21  24
ENDBRANCH   1  20
BRANCH   5  26
HETATM   26  N6  UNL     1      26.264   5.049  48.985  1.00  0.00    -0.379 N 
HETATM   27  C17 UNL     1      27.609   4.739  48.548  1.00  0.00     0.125 C 
HETATM   28  C18 UNL     1      28.517   5.924  48.516  1.00  0.00     0.044 C 
HETATM   29  C19 UNL     1      27.861   7.219  48.176  1.00  0.00     0.081 C 
HETATM   30  C22 UNL     1      26.416   7.150  47.865  1.00  0.00     0.044 C 
HETATM   31  C23 UNL     1      25.565   6.277  48.698  1.00  0.00     0.125 C 
BRANCH  29  32
HETATM   32  N7  UNL     1      28.151   8.244  49.129  1.00  0.00    -0.416 N 
HETATM   33  C20 UNL     1      27.128   9.173  49.425  1.00  0.00     0.143 C 
HETATM   34  C21 UNL     1      29.490   8.757  49.080  1.00  0.00     0.143 C 
ENDBRANCH  29  32
ENDBRANCH   5  26
TORSDOF 7
ENDMDL
MODEL 7
REMARK VINA RESULT:      -7.7      3.415      7.128
REMARK  7 active torsions:
REMARK  status: ('A' for Active; 'I' for Inactive)
REMARK    1  A    between atoms: C2_2  and  C3_3 
REMARK       I    between atoms: C3_3  and  N1_5 
REMARK    2  A    between atoms: N1_5  and  C4_6 
REMARK    3  A    between atoms: C6_8  and  N2_9 
REMARK    4  A    between atoms: C6_8  and  O2_20 
REMARK    5  A    between atoms: N2_9  and  C7_10 
REMARK    6  A    between atoms: C16_23  and  N6_24 
REMARK    7  A    between atoms: C19_27  and  N7_28 
ROOT
HETATM    1  C4  UNL     1      26.483   4.646  49.277  1.00  0.00     0.062 A 
HETATM    2  C5  UNL     1      27.569   4.999  48.606  1.00  0.00     0.070 A 
HETATM    3  C6  UNL     1      27.707   6.456  48.468  1.00  0.00     0.192 A 
HETATM    4  C15 UNL     1      26.466   6.891  49.209  1.00  0.00     0.070 A 
HETATM    5  C16 UNL     1      25.757   5.848  49.676  1.00  0.00     0.058 A 
ENDROOT
BRANCH   3   6
HETATM    6  N2  UNL     1      28.904   7.018  48.988  1.00  0.00    -0.181 N 
HETATM    7  H6  UNL     1      28.922   7.480  49.942  1.00  0.00     0.181 HD
BRANCH   6   8
HETATM    8  C7  UNL     1      30.120   6.992  48.270  1.00  0.00     0.742 A 
HETATM    9  N3  UNL     1      30.803   8.124  48.018  1.00  0.00    -0.072 NA
HETATM   10  C8  UNL     1      31.970   8.136  47.334  1.00  0.00     0.168 A 
HETATM   11  C9  UNL     1      32.520   6.941  46.855  1.00  0.00     0.077 A 
HETATM   12  C10 UNL     1      33.647   6.544  46.140  1.00  0.00     0.035 A 
HETATM   13  N4  UNL     1      31.804   5.836  47.130  1.00  0.00    -0.222 N 
HETATM   14  C11 UNL     1      33.572   5.155  46.004  1.00  0.00     0.029 A 
HETATM   15  C12 UNL     1      32.422   4.729  46.623  1.00  0.00     0.033 A 
HETATM   16  C13 UNL     1      31.964   3.316  46.706  1.00  0.00     0.070 C 
HETATM   17  N5  UNL     1      30.664   5.863  47.803  1.00  0.00     0.026 NA
ENDBRANCH   6   8
ENDBRANCH   3   6
BRANCH   3  18
HETATM   18  O2  UNL     1      27.492   6.882  47.147  1.00  0.00    -0.358 OA
HETATM   19  C14 UNL     1      26.883   8.123  47.140  1.00  0.00     0.205 C 
ENDBRANCH   3  18
BRANCH   1  20
HETATM   20  N1  UNL     1      25.978   3.389  49.632  1.00  0.00    -0.322 N 
HETATM   21  C3  UNL     1      26.432   2.624  50.736  1.00  0.00     0.244 C 
HETATM   22  O1  UNL     1      27.323   2.841  51.615  1.00  0.00    -0.268 OA
HETATM   23  H4  UNL     1      25.214   2.907  49.105  1.00  0.00     0.169 HD
BRANCH  21  24
HETATM   24  C2  UNL     1      25.995   1.322  51.195  1.00  0.00     0.064 C 
HETATM   25  C1  UNL     1      26.804   0.601  51.946  1.00  0.00     0.017 C 
ENDBRANCH  21  24
ENDBRANCH   1  20
BRANCH   5  26
HETATM   26  N6  UNL     1      24.563   6.169  50.399  1.00  0.00    -0.379 N 
HETATM   27  C17 UNL     1      24.003   5.503  51.556  1.00  0.00     0.125 C 
HETATM   28  C18 UNL     1      22.511   5.477  51.570  1.00  0.00     0.044 C 
HETATM   29  C19 UNL     1      21.849   6.661  50.951  1.00  0.00     0.081 C 
HETATM   30  C22 UNL     1      22.753   7.722  50.455  1.00  0.00     0.044 C 
HETATM   31  C23 UNL     1      23.982   7.315  49.745  1.00  0.00     0.125 C 
BRANCH  29  32
HETATM   32  N7  UNL     1      20.877   6.291  49.970  1.00  0.00    -0.416 N 
HETATM   33  C20 UNL     1      20.060   7.314  49.437  1.00  0.00     0.143 C 
HETATM   34  C21 UNL     1      20.253   5.017  50.184  1.00  0.00     0.143 C 
ENDBRANCH  29  32
ENDBRANCH   5  26
TORSDOF 7
ENDMDL
MODEL 8
REMARK VINA RESULT:      -7.6      1.932      2.757
REMARK  7 active torsions:
REMARK  status: ('A' for Active; 'I' for Inactive)
REMARK    1  A    between atoms: C2_2  and  C3_3 
REMARK       I    between atoms: C3_3  and  N1_5 
REMARK    2  A    between atoms: N1_5  and  C4_6 
REMARK    3  A    between atoms: C6_8  and  N2_9 
REMARK    4  A    between atoms: C6_8  and  O2_20 
REMARK    5  A    between atoms: N2_9  and  C7_10 
REMARK    6  A    between atoms: C16_23  and  N6_24 
REMARK    7  A    between atoms: C19_27  and  N7_28 
ROOT
HETATM    1  C4  UNL     1      23.101   3.552  51.007  1.00  0.00     0.062 A 
HETATM    2  C5  UNL     1      23.127   4.711  50.368  1.00  0.00     0.070 A 
HETATM    3  C6  UNL     1      24.470   5.308  50.324  1.00  0.00     0.192 A 
HETATM    4  C15 UNL     1      25.236   4.246  51.073  1.00  0.00     0.070 A 
HETATM    5  C16 UNL     1      24.448   3.230  51.469  1.00  0.00     0.058 A 
ENDROOT
BRANCH   3   6
HETATM    6  N2  UNL     1      24.988   5.574  49.028  1.00  0.00    -0.181 N 
HETATM    7  H6  UNL     1      24.372   5.508  48.169  1.00  0.00     0.181 HD
BRANCH   6   8
HETATM    8  C7  UNL     1      26.338   5.935  48.817  1.00  0.00     0.742 A 
HETATM    9  N3  UNL     1      27.267   5.010  48.514  1.00  0.00    -0.072 NA
HETATM   10  C8  UNL     1      28.567   5.322  48.305  1.00  0.00     0.168 A 
HETATM   11  C9  UNL     1      28.999   6.650  48.400  1.00  0.00     0.077 A 
HETATM   12  C10 UNL     1      30.193   7.352  48.265  1.00  0.00     0.035 A 
HETATM   13  N4  UNL     1      28.036   7.540  48.705  1.00  0.00    -0.222 N 
HETATM   14  C11 UNL     1      29.900   8.699  48.501  1.00  0.00     0.029 A 
HETATM   15  C12 UNL     1      28.557   8.800  48.774  1.00  0.00     0.033 A 
HETATM   16  C13 UNL     1      27.837  10.064  49.082  1.00  0.00     0.070 C 
HETATM   17  N5  UNL     1      26.773   7.197  48.902  1.00  0.00     0.026 NA
ENDBRANCH   6   8
ENDBRANCH   3   6
BRANCH   3  18
HETATM   18  O2  UNL     1      24.567   6.448  51.140  1.00  0.00    -0.358 OA
HETATM   19  C14 UNL     1      23.569   7.349  50.819  1.00  0.00     0.205 C 
ENDBRANCH   3  18
BRANCH   1  20
HETATM   20  N1  UNL     1      22.052   2.662  51.275  1.00  0.00    -0.322 N 
HETATM   21  C3  UNL     1      21.632   1.631  50.398  1.00  0.00     0.244 C 
HETATM   22  O1  UNL     1      22.043   1.263  49.254  1.00  0.00    -0.268 OA
HETATM   23  H4  UNL     1      21.489   2.687  52.155  1.00  0.00     0.169 HD
BRANCH  21  24
HETATM   24  C2  UNL     1      20.568   0.662  50.562  1.00  0.00     0.064 C 
HETATM   25  C1  UNL     1      19.338   0.995  50.221  1.00  0.00     0.017 C 
ENDBRANCH  21  24
ENDBRANCH   1  20
BRANCH   5  26
HETATM   26  N6  UNL     1      25.094   2.171  52.185  1.00  0.00    -0.379 N 
HETATM   27  C17 UNL     1      24.966   1.819  53.584  1.00  0.00     0.125 C 
HETATM   28  C18 UNL     1      26.234   1.321  54.194  1.00  0.00     0.044 C 
HETATM   29  C19 UNL     1      27.128   0.562  53.274  1.00  0.00     0.081 C 
HETATM   30  C22 UNL     1      26.620   0.360  51.900  1.00  0.00     0.044 C 
HETATM   31  C23 UNL     1      25.937   1.488  51.236  1.00  0.00     0.125 C 
BRANCH  29  32
HETATM   32  N7  UNL     1      28.466   1.065  53.276  1.00  0.00    -0.416 N 
HETATM   33  C20 UNL     1      29.491   0.201  53.724  1.00  0.00     0.143 C 
HETATM   34  C21 UNL     1      28.594   2.450  53.628  1.00  0.00     0.143 C 
ENDBRANCH  29  32
ENDBRANCH   5  26
TORSDOF 7
ENDMDL
MODEL 9
REMARK VINA RESULT:      -7.5      2.478      7.945
REMARK  7 active torsions:
REMARK  status: ('A' for Active; 'I' for Inactive)
REMARK    1  A    between atoms: C2_2  and  C3_3 
REMARK       I    between atoms: C3_3  and  N1_5 
REMARK    2  A    between atoms: N1_5  and  C4_6 
REMARK    3  A    between atoms: C6_8  and  N2_9 
REMARK    4  A    between atoms: C6_8  and  O2_20 
REMARK    5  A    between atoms: N2_9  and  C7_10 
REMARK    6  A    between atoms: C16_23  and  N6_24 
REMARK    7  A    between atoms: C19_27  and  N7_28 
ROOT
HETATM    1  C4  UNL     1      24.305   2.525  51.459  1.00  0.00     0.062 A 
HETATM    2  C5  UNL     1      24.745   1.775  52.458  1.00  0.00     0.070 A 
HETATM    3  C6  UNL     1      23.889   0.608  52.715  1.00  0.00     0.192 A 
HETATM    4  C15 UNL     1      22.846   0.828  51.646  1.00  0.00     0.070 A 
HETATM    5  C16 UNL     1      23.084   1.934  50.919  1.00  0.00     0.058 A 
ENDROOT
BRANCH   3   6
HETATM    6  N2  UNL     1      24.526  -0.659  52.633  1.00  0.00    -0.181 N 
HETATM    7  H6  UNL     1      23.976  -1.534  52.402  1.00  0.00     0.181 HD
BRANCH   6   8
HETATM    8  C7  UNL     1      25.912  -0.819  52.854  1.00  0.00     0.742 A 
HETATM    9  N3  UNL     1      26.486  -2.036  52.824  1.00  0.00    -0.072 NA
HETATM   10  C8  UNL     1      27.809  -2.225  53.031  1.00  0.00     0.168 A 
HETATM   11  C9  UNL     1      28.647  -1.133  53.290  1.00  0.00     0.077 A 
HETATM   12  C10 UNL     1      29.997  -0.914  53.545  1.00  0.00     0.035 A 
HETATM   13  N4  UNL     1      28.030   0.063  53.310  1.00  0.00    -0.222 N 
HETATM   14  C11 UNL     1      30.160   0.463  53.717  1.00  0.00     0.029 A 
HETATM   15  C12 UNL     1      28.929   1.057  53.570  1.00  0.00     0.033 A 
HETATM   16  C13 UNL     1      28.662   2.517  53.678  1.00  0.00     0.070 C 
HETATM   17  N5  UNL     1      26.732   0.209  53.103  1.00  0.00     0.026 NA
ENDBRANCH   6   8
ENDBRANCH   3   6
BRANCH   3  18
HETATM   18  O2  UNL     1      23.181   0.730  53.922  1.00  0.00    -0.358 OA
HETATM   19  C14 UNL     1      22.228  -0.267  54.019  1.00  0.00     0.205 C 
ENDBRANCH   3  18
BRANCH   1  20
HETATM   20  N1  UNL     1      24.806   3.704  50.891  1.00  0.00    -0.322 N 
HETATM   21  C3  UNL     1      25.862   3.753  49.946  1.00  0.00     0.244 C 
HETATM   22  O1  UNL     1      26.568   2.845  49.408  1.00  0.00    -0.268 OA
HETATM   23  H4  UNL     1      24.437   4.654  51.121  1.00  0.00     0.169 HD
BRANCH  21  24
HETATM   24  C2  UNL     1      26.464   4.900  49.299  1.00  0.00     0.064 C 
HETATM   25  C1  UNL     1      27.615   4.753  48.673  1.00  0.00     0.017 C 
ENDBRANCH  21  24
ENDBRANCH   1  20
BRANCH   5  26
HETATM   26  N6  UNL     1      22.145   2.218  49.875  1.00  0.00    -0.379 N 
HETATM   27  C17 UNL     1      22.391   2.817  48.580  1.00  0.00     0.125 C 
HETATM   28  C18 UNL     1      21.283   3.699  48.107  1.00  0.00     0.044 C 
HETATM   29  C19 UNL     1      19.916   3.285  48.532  1.00  0.00     0.081 C 
HETATM   30  C22 UNL     1      19.833   2.034  49.317  1.00  0.00     0.044 C 
HETATM   31  C23 UNL     1      20.854   1.795  50.356  1.00  0.00     0.125 C 
BRANCH  29  32
HETATM   32  N7  UNL     1      19.192   4.349  49.153  1.00  0.00    -0.416 N 
HETATM   33  C20 UNL     1      18.064   4.861  48.472  1.00  0.00     0.143 C 
HETATM   34  C21 UNL     1      19.999   5.300  49.862  1.00  0.00     0.143 C 
ENDBRANCH  29  32
ENDBRANCH   5  26
TORSDOF 7
ENDMDL
