MODEL 1
REMARK VINA RESULT:      -9.9      0.000      0.000
REMARK  3 active torsions:
REMARK  status: ('A' for Active; 'I' for Inactive)
REMARK    1  A    between atoms: N1_1  and  C1_2 
REMARK    2  A    between atoms: C2_3  and  C3_4 
REMARK    3  A    between atoms: N2_11  and  C7_12 
ROOT
HETATM    1  C7  UNL     1      21.549   1.260  52.358  1.00  0.00     0.038 C 
HETATM    2  C8  UNL     1      22.456   0.280  52.514  1.00  0.00     0.042 C 
HETATM    3  C9  UNL     1      23.862   0.323  52.967  1.00  0.00     0.012 A 
HETATM    4  C10 UNL     1      24.584  -0.664  53.406  1.00  0.00     0.014 A 
HETATM    5  C11 UNL     1      25.941  -0.188  53.754  1.00  0.00     0.118 A 
HETATM    6  C12 UNL     1      26.946  -0.688  52.812  1.00  0.00     0.056 C 
HETATM    7  C13 UNL     1      27.496  -2.012  52.816  1.00  0.00    -0.024 C 
HETATM    8  C14 UNL     1      28.786  -1.810  53.154  1.00  0.00    -0.004 C 
HETATM    9  C15 UNL     1      29.466  -0.569  53.489  1.00  0.00    -0.000 C 
HETATM   10  C16 UNL     1      29.399   0.757  53.722  1.00  0.00     0.001 C 
HETATM   11  C17 UNL     1      28.365   1.828  53.782  1.00  0.00     0.017 C 
HETATM   12  C18 UNL     1      27.064   2.041  53.681  1.00  0.00     0.093 C 
HETATM   13  N3  UNL     1      25.873   1.282  53.445  1.00  0.00    -0.331 N 
HETATM   14  C19 UNL     1      24.589   1.585  52.955  1.00  0.00     0.160 A 
HETATM   15  N4  UNL     1      24.265   2.793  52.598  1.00  0.00    -0.160 NA
HETATM   16  N5  UNL     1      22.997   3.180  52.088  1.00  0.00    -0.306 N 
HETATM   17  C20 UNL     1      21.733   2.712  52.615  1.00  0.00     0.199 C 
HETATM   18  H16 UNL     1      22.933   3.852  51.272  1.00  0.00     0.182 HD
ENDROOT
BRANCH   1  19
HETATM   19  N2  UNL     1      20.274   0.779  51.888  1.00  0.00    -0.309 N 
HETATM   20  C1  UNL     1      19.437  -0.106  52.612  1.00  0.00     0.120 C 
HETATM   21  C2  UNL     1      18.299  -0.463  52.065  1.00  0.00     0.092 C 
HETATM   22  C4  UNL     1      17.963   0.063  50.759  1.00  0.00     0.033 C 
HETATM   23  C5  UNL     1      18.891   0.612  50.034  1.00  0.00    -0.008 C 
HETATM   24  C6  UNL     1      19.869   1.256  50.601  1.00  0.00     0.111 C 
BRANCH  20  25
HETATM   25  N1  UNL     1      19.948  -0.505  53.870  1.00  0.00    -0.384 N 
HETATM   26  H1  UNL     1      20.944  -0.740  54.034  1.00  0.00     0.157 HD
HETATM   27  H2  UNL     1      19.653  -0.680  54.848  1.00  0.00     0.157 HD
ENDBRANCH  20  25
BRANCH  21  28
HETATM   28  C3  UNL     1      17.342  -1.377  52.712  1.00  0.00     0.421 C 
HETATM   29  F1  UNL     1      16.307  -1.717  51.834  1.00  0.00    -0.166 F 
HETATM   30  F2  UNL     1      16.706  -0.774  53.800  1.00  0.00    -0.166 F 
HETATM   31  F3  UNL     1      17.946  -2.541  53.110  1.00  0.00    -0.166 F 
ENDBRANCH  21  28
ENDBRANCH   1  19
TORSDOF 3
ENDMDL
MODEL 2
REMARK VINA RESULT:      -9.3      1.443      2.155
REMARK  3 active torsions:
REMARK  status: ('A' for Active; 'I' for Inactive)
REMARK    1  A    between atoms: N1_1  and  C1_2 
REMARK    2  A    between atoms: C2_3  and  C3_4 
REMARK    3  A    between atoms: N2_11  and  C7_12 
ROOT
HETATM    1  C7  UNL     1      20.662   0.661  52.877  1.00  0.00     0.038 C 
HETATM    2  C8  UNL     1      21.701  -0.180  53.020  1.00  0.00     0.042 C 
HETATM    3  C9  UNL     1      23.132   0.082  53.283  1.00  0.00     0.012 A 
HETATM    4  C10 UNL     1      24.021  -0.754  53.730  1.00  0.00     0.014 A 
HETATM    5  C11 UNL     1      25.335  -0.084  53.850  1.00  0.00     0.118 A 
HETATM    6  C12 UNL     1      26.284  -0.573  52.846  1.00  0.00     0.056 C 
HETATM    7  C13 UNL     1      26.999  -1.813  52.920  1.00  0.00    -0.024 C 
HETATM    8  C14 UNL     1      28.282  -1.422  53.068  1.00  0.00    -0.004 C 
HETATM    9  C15 UNL     1      28.827  -0.079  53.181  1.00  0.00    -0.000 C 
HETATM   10  C16 UNL     1      28.614   1.249  53.280  1.00  0.00     0.001 C 
HETATM   11  C17 UNL     1      27.463   2.191  53.357  1.00  0.00     0.017 C 
HETATM   12  C18 UNL     1      26.141   2.236  53.400  1.00  0.00     0.093 C 
HETATM   13  N3  UNL     1      25.041   1.320  53.398  1.00  0.00    -0.331 N 
HETATM   14  C19 UNL     1      23.682   1.409  53.045  1.00  0.00     0.160 A 
HETATM   15  N4  UNL     1      23.165   2.520  52.607  1.00  0.00    -0.160 NA
HETATM   16  N5  UNL     1      21.808   2.691  52.224  1.00  0.00    -0.306 N 
HETATM   17  C20 UNL     1      20.683   2.145  52.953  1.00  0.00     0.199 C 
HETATM   18  H16 UNL     1      21.564   3.248  51.357  1.00  0.00     0.182 HD
ENDROOT
BRANCH   1  19
HETATM   19  N2  UNL     1      19.416  -0.018  52.626  1.00  0.00    -0.309 N 
HETATM   20  C1  UNL     1      18.565   0.254  51.527  1.00  0.00     0.120 C 
HETATM   21  C2  UNL     1      17.458  -0.441  51.418  1.00  0.00     0.092 C 
HETATM   22  C4  UNL     1      17.167  -1.443  52.422  1.00  0.00     0.033 C 
HETATM   23  C5  UNL     1      17.821  -1.429  53.545  1.00  0.00    -0.008 C 
HETATM   24  C6  UNL     1      19.057  -1.026  53.577  1.00  0.00     0.111 C 
BRANCH  20  25
HETATM   25  N1  UNL     1      19.029   1.271  50.658  1.00  0.00    -0.384 N 
HETATM   26  H1  UNL     1      18.596   1.479  49.740  1.00  0.00     0.157 HD
HETATM   27  H2  UNL     1      19.756   2.005  50.583  1.00  0.00     0.157 HD
ENDBRANCH  20  25
BRANCH  21  28
HETATM   28  C3  UNL     1      16.489  -0.255  50.324  1.00  0.00     0.421 C 
HETATM   29  F1  UNL     1      15.426  -1.157  50.442  1.00  0.00    -0.166 F 
HETATM   30  F2  UNL     1      17.057  -0.530  49.078  1.00  0.00    -0.166 F 
HETATM   31  F3  UNL     1      15.961   1.010  50.327  1.00  0.00    -0.166 F 
ENDBRANCH  21  28
ENDBRANCH   1  19
TORSDOF 3
ENDMDL
MODEL 3
REMARK VINA RESULT:      -9.3      8.609     10.745
REMARK  3 active torsions:
REMARK  status: ('A' for Active; 'I' for Inactive)
REMARK    1  A    between atoms: N1_1  and  C1_2 
REMARK    2  A    between atoms: C2_3  and  C3_4 
REMARK    3  A    between atoms: N2_11  and  C7_12 
ROOT
HETATM    1  C7  UNL     1      26.515   7.550  48.867  1.00  0.00     0.038 C 
HETATM    2  C8  UNL     1      26.847   6.264  49.074  1.00  0.00     0.042 C 
HETATM    3  C9  UNL     1      26.086   5.151  49.679  1.00  0.00     0.012 A 
HETATM    4  C10 UNL     1      26.317   3.877  49.563  1.00  0.00     0.014 A 
HETATM    5  C11 UNL     1      25.315   3.105  50.331  1.00  0.00     0.118 A 
HETATM    6  C12 UNL     1      25.909   2.474  51.512  1.00  0.00     0.056 C 
HETATM    7  C13 UNL     1      26.702   1.279  51.500  1.00  0.00    -0.024 C 
HETATM    8  C14 UNL     1      25.929   0.389  52.155  1.00  0.00    -0.004 C 
HETATM    9  C15 UNL     1      24.593   0.557  52.702  1.00  0.00    -0.000 C 
HETATM   10  C16 UNL     1      23.499   1.329  52.862  1.00  0.00     0.001 C 
HETATM   11  C17 UNL     1      23.014   2.675  52.444  1.00  0.00     0.017 C 
HETATM   12  C18 UNL     1      23.345   3.737  51.729  1.00  0.00     0.093 C 
HETATM   13  N3  UNL     1      24.435   4.178  50.913  1.00  0.00    -0.331 N 
HETATM   14  C19 UNL     1      24.923   5.434  50.510  1.00  0.00     0.160 A 
HETATM   15  N4  UNL     1      24.350   6.539  50.887  1.00  0.00    -0.160 NA
HETATM   16  N5  UNL     1      24.782   7.845  50.531  1.00  0.00    -0.306 N 
HETATM   17  C20 UNL     1      25.232   8.218  49.208  1.00  0.00     0.199 C 
HETATM   18  H16 UNL     1      24.789   8.620  51.253  1.00  0.00     0.182 HD
ENDROOT
BRANCH   1  19
HETATM   19  N2  UNL     1      27.566   8.310  48.238  1.00  0.00    -0.309 N 
HETATM   20  C1  UNL     1      28.410   9.221  48.920  1.00  0.00     0.120 C 
HETATM   21  C2  UNL     1      29.329   9.848  48.224  1.00  0.00     0.092 C 
HETATM   22  C4  UNL     1      29.429   9.577  46.805  1.00  0.00     0.033 C 
HETATM   23  C5  UNL     1      28.448   8.978  46.200  1.00  0.00    -0.008 C 
HETATM   24  C6  UNL     1      27.729   8.097  46.833  1.00  0.00     0.111 C 
BRANCH  20  25
HETATM   25  N1  UNL     1      28.150   9.344  50.306  1.00  0.00    -0.384 N 
HETATM   26  H1  UNL     1      28.033   8.533  50.940  1.00  0.00     0.157 HD
HETATM   27  H2  UNL     1      28.009  10.057  51.046  1.00  0.00     0.157 HD
ENDBRANCH  20  25
BRANCH  21  28
HETATM   28  C3  UNL     1      30.268  10.819  48.813  1.00  0.00     0.421 C 
HETATM   29  F1  UNL     1      31.284  11.140  47.906  1.00  0.00    -0.166 F 
HETATM   30  F2  UNL     1      30.930  10.290  49.922  1.00  0.00    -0.166 F 
HETATM   31  F3  UNL     1      29.637  11.986  49.157  1.00  0.00    -0.166 F 
ENDBRANCH  21  28
ENDBRANCH   1  19
TORSDOF 3
ENDMDL
MODEL 4
REMARK VINA RESULT:      -9.1      2.127      2.509
REMARK  3 active torsions:
REMARK  status: ('A' for Active; 'I' for Inactive)
REMARK    1  A    between atoms: N1_1  and  C1_2 
REMARK    2  A    between atoms: C2_3  and  C3_4 
REMARK    3  A    between atoms: N2_11  and  C7_12 
ROOT
HETATM    1  C7  UNL     1      22.815   2.664  51.217  1.00  0.00     0.038 C 
HETATM    2  C8  UNL     1      23.314   1.450  51.509  1.00  0.00     0.042 C 
HETATM    3  C9  UNL     1      24.583   1.052  52.153  1.00  0.00     0.012 A 
HETATM    4  C10 UNL     1      24.870  -0.092  52.700  1.00  0.00     0.014 A 
HETATM    5  C11 UNL     1      26.251  -0.072  53.229  1.00  0.00     0.118 A 
HETATM    6  C12 UNL     1      27.143  -0.928  52.442  1.00  0.00     0.056 C 
HETATM    7  C13 UNL     1      27.212  -2.358  52.537  1.00  0.00    -0.024 C 
HETATM    8  C14 UNL     1      28.441  -2.573  53.050  1.00  0.00    -0.004 C 
HETATM    9  C15 UNL     1      29.448  -1.610  53.463  1.00  0.00    -0.000 C 
HETATM   10  C16 UNL     1      29.800  -0.326  53.671  1.00  0.00     0.001 C 
HETATM   11  C17 UNL     1      29.186   1.029  53.574  1.00  0.00     0.017 C 
HETATM   12  C18 UNL     1      28.055   1.653  53.290  1.00  0.00     0.093 C 
HETATM   13  N3  UNL     1      26.720   1.318  52.898  1.00  0.00    -0.331 N 
HETATM   14  C19 UNL     1      25.686   2.000  52.229  1.00  0.00     0.160 A 
HETATM   15  N4  UNL     1      25.834   3.225  51.818  1.00  0.00    -0.160 NA
HETATM   16  N5  UNL     1      24.846   3.979  51.132  1.00  0.00    -0.306 N 
HETATM   17  C20 UNL     1      23.442   3.986  51.481  1.00  0.00     0.199 C 
HETATM   18  H16 UNL     1      25.115   4.588  50.308  1.00  0.00     0.182 HD
ENDROOT
BRANCH   1  19
HETATM   19  N2  UNL     1      21.525   2.606  50.578  1.00  0.00    -0.309 N 
HETATM   20  C1  UNL     1      20.291   2.571  51.273  1.00  0.00     0.120 C 
HETATM   21  C2  UNL     1      19.187   2.520  50.566  1.00  0.00     0.092 C 
HETATM   22  C4  UNL     1      19.289   2.501  49.122  1.00  0.00     0.033 C 
HETATM   23  C5  UNL     1      20.433   2.230  48.567  1.00  0.00    -0.008 C 
HETATM   24  C6  UNL     1      21.542   2.584  49.148  1.00  0.00     0.111 C 
BRANCH  20  25
HETATM   25  N1  UNL     1      20.406   2.597  52.684  1.00  0.00    -0.384 N 
HETATM   26  H1  UNL     1      20.289   1.759  53.282  1.00  0.00     0.157 HD
HETATM   27  H2  UNL     1      20.593   3.244  53.472  1.00  0.00     0.157 HD
ENDBRANCH  20  25
BRANCH  21  28
HETATM   28  C3  UNL     1      17.842   2.479  51.166  1.00  0.00     0.421 C 
HETATM   29  F1  UNL     1      16.854   2.490  50.175  1.00  0.00    -0.166 F 
HETATM   30  F2  UNL     1      17.586   3.613  51.940  1.00  0.00    -0.166 F 
HETATM   31  F3  UNL     1      17.659   1.348  51.918  1.00  0.00    -0.166 F 
ENDBRANCH  21  28
ENDBRANCH   1  19
TORSDOF 3
ENDMDL
MODEL 5
REMARK VINA RESULT:      -9.1      2.778      3.467
REMARK  3 active torsions:
REMARK  status: ('A' for Active; 'I' for Inactive)
REMARK    1  A    between atoms: N1_1  and  C1_2 
REMARK    2  A    between atoms: C2_3  and  C3_4 
REMARK    3  A    between atoms: N2_11  and  C7_12 
ROOT
HETATM    1  C7  UNL     1      22.568   2.592  52.005  1.00  0.00     0.038 C 
HETATM    2  C8  UNL     1      23.112   1.370  52.137  1.00  0.00     0.042 C 
HETATM    3  C9  UNL     1      24.428   0.944  52.657  1.00  0.00     0.012 A 
HETATM    4  C10 UNL     1      24.775  -0.240  53.063  1.00  0.00     0.014 A 
HETATM    5  C11 UNL     1      26.187  -0.235  53.505  1.00  0.00     0.118 A 
HETATM    6  C12 UNL     1      27.045  -0.979  52.580  1.00  0.00     0.056 C 
HETATM    7  C13 UNL     1      27.153  -2.408  52.520  1.00  0.00    -0.024 C 
HETATM    8  C14 UNL     1      28.416  -2.639  52.931  1.00  0.00    -0.004 C 
HETATM    9  C15 UNL     1      29.426  -1.695  53.381  1.00  0.00    -0.000 C 
HETATM   10  C16 UNL     1      29.762  -0.429  53.699  1.00  0.00     0.001 C 
HETATM   11  C17 UNL     1      29.112   0.910  53.783  1.00  0.00     0.017 C 
HETATM   12  C18 UNL     1      27.952   1.527  53.635  1.00  0.00     0.093 C 
HETATM   13  N3  UNL     1      26.602   1.195  53.293  1.00  0.00    -0.331 N 
HETATM   14  C19 UNL     1      25.512   1.912  52.764  1.00  0.00     0.160 A 
HETATM   15  N4  UNL     1      25.606   3.176  52.475  1.00  0.00    -0.160 NA
HETATM   16  N5  UNL     1      24.558   3.968  51.933  1.00  0.00    -0.306 N 
HETATM   17  C20 UNL     1      23.180   3.898  52.367  1.00  0.00     0.199 C 
HETATM   18  H16 UNL     1      24.761   4.666  51.163  1.00  0.00     0.182 HD
ENDROOT
BRANCH   1  19
HETATM   19  N2  UNL     1      21.241   2.563  51.445  1.00  0.00    -0.309 N 
HETATM   20  C1  UNL     1      20.932   2.900  50.104  1.00  0.00     0.120 C 
HETATM   21  C2  UNL     1      19.678   2.829  49.724  1.00  0.00     0.092 C 
HETATM   22  C4  UNL     1      18.684   2.413  50.690  1.00  0.00     0.033 C 
HETATM   23  C5  UNL     1      18.983   2.415  51.955  1.00  0.00    -0.008 C 
HETATM   24  C6  UNL     1      20.199   2.160  52.339  1.00  0.00     0.111 C 
BRANCH  20  25
HETATM   25  N1  UNL     1      22.047   3.283  49.319  1.00  0.00    -0.384 N 
HETATM   26  H1  UNL     1      22.906   3.705  49.715  1.00  0.00     0.157 HD
HETATM   27  H2  UNL     1      22.380   3.303  48.338  1.00  0.00     0.157 HD
ENDBRANCH  20  25
BRANCH  21  28
HETATM   28  C3  UNL     1      19.226   3.154  48.360  1.00  0.00     0.421 C 
HETATM   29  F1  UNL     1      17.881   2.809  48.186  1.00  0.00    -0.166 F 
HETATM   30  F2  UNL     1      19.914   2.412  47.397  1.00  0.00    -0.166 F 
HETATM   31  F3  UNL     1      19.347   4.492  48.093  1.00  0.00    -0.166 F 
ENDBRANCH  21  28
ENDBRANCH   1  19
TORSDOF 3
ENDMDL
MODEL 6
REMARK VINA RESULT:      -8.9      6.491      8.822
REMARK  3 active torsions:
REMARK  status: ('A' for Active; 'I' for Inactive)
REMARK    1  A    between atoms: N1_1  and  C1_2 
REMARK    2  A    between atoms: C2_3  and  C3_4 
REMARK    3  A    between atoms: N2_11  and  C7_12 
ROOT
HETATM    1  C7  UNL     1      24.519   5.306  50.163  1.00  0.00     0.038 C 
HETATM    2  C8  UNL     1      24.854   4.121  50.702  1.00  0.00     0.042 C 
HETATM    3  C9  UNL     1      24.020   3.053  51.292  1.00  0.00     0.012 A 
HETATM    4  C10 UNL     1      24.348   1.812  51.496  1.00  0.00     0.014 A 
HETATM    5  C11 UNL     1      23.218   1.080  52.109  1.00  0.00     0.118 A 
HETATM    6  C12 UNL     1      23.492   0.735  53.506  1.00  0.00     0.056 C 
HETATM    7  C13 UNL     1      24.325  -0.348  53.941  1.00  0.00    -0.024 C 
HETATM    8  C14 UNL     1      23.453  -1.191  54.532  1.00  0.00    -0.004 C 
HETATM    9  C15 UNL     1      22.009  -1.079  54.662  1.00  0.00    -0.000 C 
HETATM   10  C16 UNL     1      20.872  -0.417  54.369  1.00  0.00     0.001 C 
HETATM   11  C17 UNL     1      20.445   0.772  53.579  1.00  0.00     0.017 C 
HETATM   12  C18 UNL     1      20.901   1.724  52.782  1.00  0.00     0.093 C 
HETATM   13  N3  UNL     1      22.149   2.133  52.212  1.00  0.00    -0.331 N 
HETATM   14  C19 UNL     1      22.656   3.346  51.712  1.00  0.00     0.160 A 
HETATM   15  N4  UNL     1      21.936   4.430  51.696  1.00  0.00    -0.160 NA
HETATM   16  N5  UNL     1      22.374   5.692  51.216  1.00  0.00    -0.306 N 
HETATM   17  C20 UNL     1      23.155   5.877  50.012  1.00  0.00     0.199 C 
HETATM   18  H16 UNL     1      22.132   6.578  51.745  1.00  0.00     0.182 HD
ENDROOT
BRANCH   1  19
HETATM   19  N2  UNL     1      25.657   6.057  49.697  1.00  0.00    -0.309 N 
HETATM   20  C1  UNL     1      25.910   7.411  50.025  1.00  0.00     0.120 C 
HETATM   21  C2  UNL     1      26.987   7.975  49.532  1.00  0.00     0.092 C 
HETATM   22  C4  UNL     1      27.854   7.186  48.682  1.00  0.00     0.033 C 
HETATM   23  C5  UNL     1      27.414   6.070  48.183  1.00  0.00    -0.008 C 
HETATM   24  C6  UNL     1      26.564   5.345  48.850  1.00  0.00     0.111 C 
BRANCH  20  25
HETATM   25  N1  UNL     1      24.940   8.005  50.869  1.00  0.00    -0.384 N 
HETATM   26  H1  UNL     1      24.182   8.620  50.523  1.00  0.00     0.157 HD
HETATM   27  H2  UNL     1      24.658   8.066  51.865  1.00  0.00     0.157 HD
ENDBRANCH  20  25
BRANCH  21  28
HETATM   28  C3  UNL     1      27.362   9.374  49.796  1.00  0.00     0.421 C 
HETATM   29  F1  UNL     1      26.347  10.247  49.389  1.00  0.00    -0.166 F 
HETATM   30  F2  UNL     1      28.483   9.758  49.057  1.00  0.00    -0.166 F 
HETATM   31  F3  UNL     1      27.585   9.594  51.131  1.00  0.00    -0.166 F 
ENDBRANCH  21  28
ENDBRANCH   1  19
TORSDOF 3
ENDMDL
MODEL 7
REMARK VINA RESULT:      -8.9      4.101      8.793
REMARK  3 active torsions:
REMARK  status: ('A' for Active; 'I' for Inactive)
REMARK    1  A    between atoms: N1_1  and  C1_2 
REMARK    2  A    between atoms: C2_3  and  C3_4 
REMARK    3  A    between atoms: N2_11  and  C7_12 
ROOT
HETATM    1  C7  UNL     1      23.439   0.075  53.470  1.00  0.00     0.038 C 
HETATM    2  C8  UNL     1      22.531   0.525  52.586  1.00  0.00     0.042 C 
HETATM    3  C9  UNL     1      21.064   0.357  52.531  1.00  0.00     0.012 A 
HETATM    4  C10 UNL     1      20.209   1.067  51.858  1.00  0.00     0.014 A 
HETATM    5  C11 UNL     1      18.837   0.561  52.083  1.00  0.00     0.118 A 
HETATM    6  C12 UNL     1      18.299  -0.089  50.885  1.00  0.00     0.056 C 
HETATM    7  C13 UNL     1      17.773   0.595  49.739  1.00  0.00    -0.024 C 
HETATM    8  C14 UNL     1      16.462   0.281  49.767  1.00  0.00    -0.004 C 
HETATM    9  C15 UNL     1      15.725  -0.511  50.739  1.00  0.00    -0.000 C 
HETATM   10  C16 UNL     1      15.712  -1.187  51.905  1.00  0.00     0.001 C 
HETATM   11  C17 UNL     1      16.648  -1.507  53.019  1.00  0.00     0.017 C 
HETATM   12  C18 UNL     1      17.880  -1.295  53.452  1.00  0.00     0.093 C 
HETATM   13  N3  UNL     1      19.050  -0.583  53.036  1.00  0.00    -0.331 N 
HETATM   14  C19 UNL     1      20.427  -0.704  53.300  1.00  0.00     0.160 A 
HETATM   15  N4  UNL     1      20.889  -1.629  54.090  1.00  0.00    -0.160 NA
HETATM   16  N5  UNL     1      22.260  -1.822  54.403  1.00  0.00    -0.306 N 
HETATM   17  C20 UNL     1      23.189  -0.748  54.682  1.00  0.00     0.199 C 
HETATM   18  H16 UNL     1      22.665  -2.800  54.445  1.00  0.00     0.182 HD
ENDROOT
BRANCH   1  19
HETATM   19  N2  UNL     1      24.786   0.472  53.148  1.00  0.00    -0.309 N 
HETATM   20  C1  UNL     1      25.948  -0.109  53.714  1.00  0.00     0.120 C 
HETATM   21  C2  UNL     1      27.116   0.349  53.331  1.00  0.00     0.092 C 
HETATM   22  C4  UNL     1      27.154   1.418  52.355  1.00  0.00     0.033 C 
HETATM   23  C5  UNL     1      26.074   2.099  52.112  1.00  0.00    -0.008 C 
HETATM   24  C6  UNL     1      24.909   1.526  52.188  1.00  0.00     0.111 C 
BRANCH  20  25
HETATM   25  N1  UNL     1      25.696  -1.140  54.651  1.00  0.00    -0.384 N 
HETATM   26  H1  UNL     1      26.426  -1.548  55.262  1.00  0.00     0.157 HD
HETATM   27  H2  UNL     1      24.931  -1.738  55.014  1.00  0.00     0.157 HD
ENDBRANCH  20  25
BRANCH  21  28
HETATM   28  C3  UNL     1      28.396  -0.168  53.843  1.00  0.00     0.421 C 
HETATM   29  F1  UNL     1      29.472   0.555  53.315  1.00  0.00    -0.166 F 
HETATM   30  F2  UNL     1      28.619  -1.487  53.443  1.00  0.00    -0.166 F 
HETATM   31  F3  UNL     1      28.467  -0.075  55.209  1.00  0.00    -0.166 F 
ENDBRANCH  21  28
ENDBRANCH   1  19
TORSDOF 3
ENDMDL
MODEL 8
REMARK VINA RESULT:      -8.9      8.625     10.998
REMARK  3 active torsions:
REMARK  status: ('A' for Active; 'I' for Inactive)
REMARK    1  A    between atoms: N1_1  and  C1_2 
REMARK    2  A    between atoms: C2_3  and  C3_4 
REMARK    3  A    between atoms: N2_11  and  C7_12 
ROOT
HETATM    1  C7  UNL     1      27.696   6.798  48.139  1.00  0.00     0.038 C 
HETATM    2  C8  UNL     1      27.740   5.511  48.526  1.00  0.00     0.042 C 
HETATM    3  C9  UNL     1      26.764   4.688  49.270  1.00  0.00     0.012 A 
HETATM    4  C10 UNL     1      26.706   3.392  49.334  1.00  0.00     0.014 A 
HETATM    5  C11 UNL     1      25.573   2.973  50.189  1.00  0.00     0.118 A 
HETATM    6  C12 UNL     1      26.035   2.395  51.453  1.00  0.00     0.056 C 
HETATM    7  C13 UNL     1      26.545   1.065  51.616  1.00  0.00    -0.024 C 
HETATM    8  C14 UNL     1      25.608   0.466  52.379  1.00  0.00    -0.004 C 
HETATM    9  C15 UNL     1      24.353   0.999  52.882  1.00  0.00    -0.000 C 
HETATM   10  C16 UNL     1      23.459   2.008  52.919  1.00  0.00     0.001 C 
HETATM   11  C17 UNL     1      23.274   3.357  52.314  1.00  0.00     0.017 C 
HETATM   12  C18 UNL     1      23.818   4.211  51.463  1.00  0.00     0.093 C 
HETATM   13  N3  UNL     1      24.963   4.283  50.606  1.00  0.00    -0.331 N 
HETATM   14  C19 UNL     1      25.708   5.333  50.039  1.00  0.00     0.160 A 
HETATM   15  N4  UNL     1      25.399   6.579  50.252  1.00  0.00    -0.160 NA
HETATM   16  N5  UNL     1      26.102   7.695  49.725  1.00  0.00    -0.306 N 
HETATM   17  C20 UNL     1      26.598   7.774  48.368  1.00  0.00     0.199 C 
HETATM   18  H16 UNL     1      26.293   8.541  50.332  1.00  0.00     0.182 HD
ENDROOT
BRANCH   1  19
HETATM   19  N2  UNL     1      28.876   7.214  47.424  1.00  0.00    -0.309 N 
HETATM   20  C1  UNL     1      30.196   7.099  47.925  1.00  0.00     0.120 C 
HETATM   21  C2  UNL     1      31.182   7.517  47.167  1.00  0.00     0.092 C 
HETATM   22  C4  UNL     1      30.869   8.071  45.866  1.00  0.00     0.033 C 
HETATM   23  C5  UNL     1      29.646   8.423  45.600  1.00  0.00    -0.008 C 
HETATM   24  C6  UNL     1      28.649   7.773  46.126  1.00  0.00     0.111 C 
BRANCH  20  25
HETATM   25  N1  UNL     1      30.289   6.532  49.219  1.00  0.00    -0.384 N 
HETATM   26  H1  UNL     1      29.564   5.912  49.624  1.00  0.00     0.157 HD
HETATM   27  H2  UNL     1      30.910   6.497  50.048  1.00  0.00     0.157 HD
ENDBRANCH  20  25
BRANCH  21  28
HETATM   28  C3  UNL     1      32.597   7.455  47.572  1.00  0.00     0.421 C 
HETATM   29  F1  UNL     1      33.425   7.963  46.565  1.00  0.00    -0.166 F 
HETATM   30  F2  UNL     1      33.024   6.138  47.757  1.00  0.00    -0.166 F 
HETATM   31  F3  UNL     1      32.830   8.186  48.707  1.00  0.00    -0.166 F 
ENDBRANCH  21  28
ENDBRANCH   1  19
TORSDOF 3
ENDMDL
MODEL 9
REMARK VINA RESULT:      -8.6      4.059      6.114
REMARK  3 active torsions:
REMARK  status: ('A' for Active; 'I' for Inactive)
REMARK    1  A    between atoms: N1_1  and  C1_2 
REMARK    2  A    between atoms: C2_3  and  C3_4 
REMARK    3  A    between atoms: N2_11  and  C7_12 
ROOT
HETATM    1  C7  UNL     1      25.061   0.934  52.317  1.00  0.00     0.038 C 
HETATM    2  C8  UNL     1      24.397   1.903  51.662  1.00  0.00     0.042 C 
HETATM    3  C9  UNL     1      24.862   2.901  50.676  1.00  0.00     0.012 A 
HETATM    4  C10 UNL     1      24.140   3.588  49.843  1.00  0.00     0.014 A 
HETATM    5  C11 UNL     1      25.002   4.476  49.032  1.00  0.00     0.118 A 
HETATM    6  C12 UNL     1      24.816   5.884  49.390  1.00  0.00     0.056 C 
HETATM    7  C13 UNL     1      23.715   6.704  48.972  1.00  0.00    -0.024 C 
HETATM    8  C14 UNL     1      24.297   7.610  48.160  1.00  0.00    -0.004 C 
HETATM    9  C15 UNL     1      25.687   7.720  47.749  1.00  0.00    -0.000 C 
HETATM   10  C16 UNL     1      26.935   7.211  47.752  1.00  0.00     0.001 C 
HETATM   11  C17 UNL     1      27.650   6.014  48.278  1.00  0.00     0.017 C 
HETATM   12  C18 UNL     1      27.464   4.884  48.941  1.00  0.00     0.093 C 
HETATM   13  N3  UNL     1      26.382   4.165  49.543  1.00  0.00    -0.331 N 
HETATM   14  C19 UNL     1      26.284   3.198  50.560  1.00  0.00     0.160 A 
HETATM   15  N4  UNL     1      27.337   2.758  51.184  1.00  0.00    -0.160 NA
HETATM   16  N5  UNL     1      27.323   1.791  52.224  1.00  0.00    -0.306 N 
HETATM   17  C20 UNL     1      26.505   0.598  52.212  1.00  0.00     0.199 C 
HETATM   18  H16 UNL     1      27.937   1.916  53.078  1.00  0.00     0.182 HD
ENDROOT
BRANCH   1  19
HETATM   19  N2  UNL     1      24.217   0.172  53.203  1.00  0.00    -0.309 N 
HETATM   20  C1  UNL     1      22.803   0.140  53.129  1.00  0.00     0.120 C 
HETATM   21  C2  UNL     1      22.157  -0.598  54.000  1.00  0.00     0.092 C 
HETATM   22  C4  UNL     1      22.921  -1.335  54.986  1.00  0.00     0.033 C 
HETATM   23  C5  UNL     1      24.166  -1.026  55.189  1.00  0.00    -0.008 C 
HETATM   24  C6  UNL     1      24.899  -0.585  54.208  1.00  0.00     0.111 C 
BRANCH  20  25
HETATM   25  N1  UNL     1      22.247   0.930  52.094  1.00  0.00    -0.384 N 
HETATM   26  H1  UNL     1      22.377   0.725  51.087  1.00  0.00     0.157 HD
HETATM   27  H2  UNL     1      21.665   1.774  51.940  1.00  0.00     0.157 HD
ENDBRANCH  20  25
BRANCH  21  28
HETATM   28  C3  UNL     1      20.689  -0.717  54.030  1.00  0.00     0.421 C 
HETATM   29  F1  UNL     1      20.300  -1.923  54.625  1.00  0.00    -0.166 F 
HETATM   30  F2  UNL     1      20.147  -0.760  52.744  1.00  0.00    -0.166 F 
HETATM   31  F3  UNL     1      20.115   0.301  54.746  1.00  0.00    -0.166 F 
ENDBRANCH  21  28
ENDBRANCH   1  19
TORSDOF 3
ENDMDL
