MODEL 1
REMARK VINA RESULT:      -7.7      0.000      0.000
REMARK  6 active torsions:
REMARK  status: ('A' for Active; 'I' for Inactive)
REMARK    1  A    between atoms: C3_3  and  C4_4 
REMARK    2  A    between atoms: C5_5  and  N1_6 
REMARK    3  A    between atoms: C8_10  and  N3_11 
REMARK    4  A    between atoms: N3_11  and  C9_12 
REMARK    5  A    between atoms: C9_12  and  C10_13 
REMARK    6  A    between atoms: C15_19  and  O2_20 
ROOT
HETATM    1  N1  UNL     1      25.848   3.231  50.472  1.00  0.00    -0.226 N 
HETATM    2  N2  UNL     1      24.607   2.941  50.119  1.00  0.00    -0.178 NA
HETATM    3  C6  UNL     1      24.139   1.880  50.842  1.00  0.00     0.158 A 
HETATM    4  C7  UNL     1      25.170   1.529  51.668  1.00  0.00     0.076 A 
HETATM    5  C8  UNL     1      25.512   0.625  52.650  1.00  0.00     0.140 A 
HETATM    6  N4  UNL     1      26.708   0.609  53.256  1.00  0.00    -0.224 NA
HETATM    7  C18 UNL     1      27.687   1.475  52.959  1.00  0.00     0.237 A 
HETATM    8  N5  UNL     1      27.388   2.382  51.996  1.00  0.00    -0.221 NA
HETATM    9  C19 UNL     1      26.185   2.384  51.401  1.00  0.00     0.167 A 
ENDROOT
BRANCH   5  10
HETATM   10  N3  UNL     1      24.484  -0.319  53.004  1.00  0.00    -0.373 N 
HETATM   11  H9  UNL     1      24.479  -1.311  52.706  1.00  0.00     0.161 HD
BRANCH  10  12
HETATM   12  C9  UNL     1      23.402   0.175  53.827  1.00  0.00     0.134 C 
BRANCH  12  13
HETATM   13  C10 UNL     1      22.049   0.030  53.185  1.00  0.00     0.051 C 
HETATM   14  C11 UNL     1      21.135  -0.726  54.083  1.00  0.00    -0.018 C 
HETATM   15  C12 UNL     1      19.845  -1.006  53.857  1.00  0.00    -0.004 C 
HETATM   16  C13 UNL     1      18.745  -0.819  52.856  1.00  0.00     0.195 C 
HETATM   17  O1  UNL     1      19.117   0.041  51.845  1.00  0.00    -0.381 OA
HETATM   18  C14 UNL     1      18.998   1.379  52.148  1.00  0.00     0.232 C 
HETATM   19  C15 UNL     1      20.309   1.971  52.561  1.00  0.00     0.066 C 
HETATM   20  C17 UNL     1      21.436   1.365  52.948  1.00  0.00     0.018 C 
BRANCH  19  21
HETATM   21  O2  UNL     1      20.353   3.348  52.539  1.00  0.00    -0.358 OA
HETATM   22  C16 UNL     1      20.474   4.157  51.404  1.00  0.00     0.209 C 
ENDBRANCH  19  21
ENDBRANCH  12  13
ENDBRANCH  10  12
ENDBRANCH   5  10
BRANCH   1  23
HETATM   23  C5  UNL     1      26.348   4.347  49.725  1.00  0.00     0.120 C 
HETATM   24  C4  UNL     1      27.384   4.607  48.884  1.00  0.00     0.019 C 
BRANCH  24  25
HETATM   25  C3  UNL     1      27.182   6.010  48.538  1.00  0.00    -0.003 C 
HETATM   26  C2  UNL     1      28.212   6.661  48.083  1.00  0.00    -0.031 C 
HETATM   27  C1  UNL     1      29.483   5.860  47.976  1.00  0.00     0.036 C 
ENDBRANCH  24  25
ENDBRANCH   1  23
TORSDOF 6
ENDMDL
MODEL 2
REMARK VINA RESULT:      -7.7      3.763      5.643
REMARK  6 active torsions:
REMARK  status: ('A' for Active; 'I' for Inactive)
REMARK    1  A    between atoms: C3_3  and  C4_4 
REMARK    2  A    between atoms: C5_5  and  N1_6 
REMARK    3  A    between atoms: C8_10  and  N3_11 
REMARK    4  A    between atoms: N3_11  and  C9_12 
REMARK    5  A    between atoms: C9_12  and  C10_13 
REMARK    6  A    between atoms: C15_19  and  O2_20 
ROOT
HETATM    1  N1  UNL     1      24.864   0.501  53.188  1.00  0.00    -0.226 N 
HETATM    2  N2  UNL     1      24.622   1.498  52.352  1.00  0.00    -0.178 NA
HETATM    3  C6  UNL     1      23.280   1.738  52.270  1.00  0.00     0.158 A 
HETATM    4  C7  UNL     1      22.702   0.827  53.108  1.00  0.00     0.076 A 
HETATM    5  C8  UNL     1      21.475   0.412  53.579  1.00  0.00     0.140 A 
HETATM    6  N4  UNL     1      21.319  -0.590  54.456  1.00  0.00    -0.224 NA
HETATM    7  C18 UNL     1      22.349  -1.285  54.957  1.00  0.00     0.237 A 
HETATM    8  N5  UNL     1      23.575  -0.907  54.518  1.00  0.00    -0.221 NA
HETATM    9  C19 UNL     1      23.712   0.099  53.641  1.00  0.00     0.167 A 
ENDROOT
BRANCH   5  10
HETATM   10  N3  UNL     1      20.342   1.139  53.069  1.00  0.00    -0.373 N 
HETATM   11  H9  UNL     1      19.880   1.921  53.567  1.00  0.00     0.161 HD
BRANCH  10  12
HETATM   12  C9  UNL     1      19.835   0.732  51.776  1.00  0.00     0.134 C 
BRANCH  12  13
HETATM   13  C10 UNL     1      18.375   0.372  51.793  1.00  0.00     0.051 C 
HETATM   14  C11 UNL     1      17.876   0.187  50.404  1.00  0.00    -0.018 C 
HETATM   15  C12 UNL     1      16.640  -0.177  50.041  1.00  0.00    -0.004 C 
HETATM   16  C13 UNL     1      15.297  -0.545  50.597  1.00  0.00     0.195 C 
HETATM   17  O1  UNL     1      15.333  -0.682  51.968  1.00  0.00    -0.381 OA
HETATM   18  C14 UNL     1      15.795  -1.900  52.417  1.00  0.00     0.232 C 
HETATM   19  C15 UNL     1      17.238  -1.833  52.808  1.00  0.00     0.066 C 
HETATM   20  C17 UNL     1      18.161  -0.911  52.516  1.00  0.00     0.018 C 
BRANCH  19  21
HETATM   21  O2  UNL     1      17.674  -2.886  53.584  1.00  0.00    -0.358 OA
HETATM   22  C16 UNL     1      17.004  -4.094  53.797  1.00  0.00     0.209 C 
ENDBRANCH  19  21
ENDBRANCH  12  13
ENDBRANCH  10  12
ENDBRANCH   5  10
BRANCH   1  23
HETATM   23  C5  UNL     1      26.270   0.244  53.288  1.00  0.00     0.120 C 
HETATM   24  C4  UNL     1      27.133  -0.750  52.949  1.00  0.00     0.019 C 
BRANCH  24  25
HETATM   25  C3  UNL     1      28.423  -0.231  53.396  1.00  0.00    -0.003 C 
HETATM   26  C2  UNL     1      29.391  -1.089  53.531  1.00  0.00    -0.031 C 
HETATM   27  C1  UNL     1      29.037  -2.516  53.201  1.00  0.00     0.036 C 
ENDBRANCH  24  25
ENDBRANCH   1  23
TORSDOF 6
ENDMDL
MODEL 3
REMARK VINA RESULT:      -7.7      3.911      5.894
REMARK  6 active torsions:
REMARK  status: ('A' for Active; 'I' for Inactive)
REMARK    1  A    between atoms: C3_3  and  C4_4 
REMARK    2  A    between atoms: C5_5  and  N1_6 
REMARK    3  A    between atoms: C8_10  and  N3_11 
REMARK    4  A    between atoms: N3_11  and  C9_12 
REMARK    5  A    between atoms: C9_12  and  C10_13 
REMARK    6  A    between atoms: C15_19  and  O2_20 
ROOT
HETATM    1  N1  UNL     1      24.335  -0.460  54.238  1.00  0.00    -0.226 N 
HETATM    2  N2  UNL     1      23.885  -1.226  55.219  1.00  0.00    -0.178 NA
HETATM    3  C6  UNL     1      22.534  -1.396  55.113  1.00  0.00     0.158 A 
HETATM    4  C7  UNL     1      22.171  -0.686  54.004  1.00  0.00     0.076 A 
HETATM    5  C8  UNL     1      21.072  -0.352  53.242  1.00  0.00     0.140 A 
HETATM    6  N4  UNL     1      21.138   0.424  52.149  1.00  0.00    -0.224 NA
HETATM    7  C18 UNL     1      22.284   0.948  51.696  1.00  0.00     0.237 A 
HETATM    8  N5  UNL     1      23.390   0.642  52.420  1.00  0.00    -0.221 NA
HETATM    9  C19 UNL     1      23.306  -0.136  53.509  1.00  0.00     0.167 A 
ENDROOT
BRANCH   5  10
HETATM   10  N3  UNL     1      19.820  -0.902  53.691  1.00  0.00    -0.373 N 
HETATM   11  H9  UNL     1      19.727  -1.563  54.483  1.00  0.00     0.161 HD
BRANCH  10  12
HETATM   12  C9  UNL     1      18.633  -0.490  52.974  1.00  0.00     0.134 C 
BRANCH  12  13
HETATM   13  C10 UNL     1      17.714  -1.631  52.635  1.00  0.00     0.051 C 
HETATM   14  C11 UNL     1      17.783  -2.676  53.693  1.00  0.00    -0.018 C 
HETATM   15  C12 UNL     1      17.071  -3.809  53.743  1.00  0.00    -0.004 C 
HETATM   16  C13 UNL     1      16.026  -4.591  53.006  1.00  0.00     0.195 C 
HETATM   17  O1  UNL     1      15.496  -3.870  51.958  1.00  0.00    -0.381 OA
HETATM   18  C14 UNL     1      14.507  -2.978  52.308  1.00  0.00     0.232 C 
HETATM   19  C15 UNL     1      15.041  -1.586  52.443  1.00  0.00     0.066 C 
HETATM   20  C17 UNL     1      16.303  -1.163  52.565  1.00  0.00     0.018 C 
BRANCH  19  21
HETATM   21  O2  UNL     1      14.081  -0.597  52.441  1.00  0.00    -0.358 OA
HETATM   22  C16 UNL     1      13.924   0.410  53.398  1.00  0.00     0.209 C 
ENDBRANCH  19  21
ENDBRANCH  12  13
ENDBRANCH  10  12
ENDBRANCH   5  10
BRANCH   1  23
HETATM   23  C5  UNL     1      25.753  -0.280  54.335  1.00  0.00     0.120 C 
HETATM   24  C4  UNL     1      26.629   0.757  54.398  1.00  0.00     0.019 C 
BRANCH  24  25
HETATM   25  C3  UNL     1      27.924   0.088  54.489  1.00  0.00    -0.003 C 
HETATM   26  C2  UNL     1      28.971   0.774  54.134  1.00  0.00    -0.031 C 
HETATM   27  C1  UNL     1      28.691   2.181  53.673  1.00  0.00     0.036 C 
ENDBRANCH  24  25
ENDBRANCH   1  23
TORSDOF 6
ENDMDL
MODEL 4
REMARK VINA RESULT:      -7.6      2.665      4.920
REMARK  6 active torsions:
REMARK  status: ('A' for Active; 'I' for Inactive)
REMARK    1  A    between atoms: C3_3  and  C4_4 
REMARK    2  A    between atoms: C5_5  and  N1_6 
REMARK    3  A    between atoms: C8_10  and  N3_11 
REMARK    4  A    between atoms: N3_11  and  C9_12 
REMARK    5  A    between atoms: C9_12  and  C10_13 
REMARK    6  A    between atoms: C15_19  and  O2_20 
ROOT
HETATM    1  N1  UNL     1      27.023   5.458  48.720  1.00  0.00    -0.226 N 
HETATM    2  N2  UNL     1      27.527   4.275  49.030  1.00  0.00    -0.178 NA
HETATM    3  C6  UNL     1      26.539   3.428  49.448  1.00  0.00     0.158 A 
HETATM    4  C7  UNL     1      25.388   4.162  49.380  1.00  0.00     0.076 A 
HETATM    5  C8  UNL     1      24.032   4.074  49.606  1.00  0.00     0.140 A 
HETATM    6  N4  UNL     1      23.181   5.090  49.403  1.00  0.00    -0.224 NA
HETATM    7  C18 UNL     1      23.573   6.291  48.958  1.00  0.00     0.237 A 
HETATM    8  N5  UNL     1      24.903   6.417  48.722  1.00  0.00    -0.221 NA
HETATM    9  C19 UNL     1      25.740   5.390  48.931  1.00  0.00     0.167 A 
ENDROOT
BRANCH   5  10
HETATM   10  N3  UNL     1      23.568   2.795  50.079  1.00  0.00    -0.373 N 
HETATM   11  H9  UNL     1      23.387   1.980  49.466  1.00  0.00     0.161 HD
BRANCH  10  12
HETATM   12  C9  UNL     1      23.349   2.668  51.503  1.00  0.00     0.134 C 
BRANCH  12  13
HETATM   13  C10 UNL     1      24.321   1.740  52.177  1.00  0.00     0.051 C 
HETATM   14  C11 UNL     1      25.176   2.497  53.131  1.00  0.00    -0.018 C 
HETATM   15  C12 UNL     1      26.120   1.989  53.933  1.00  0.00    -0.004 C 
HETATM   16  C13 UNL     1      26.783   0.703  54.324  1.00  0.00     0.195 C 
HETATM   17  O1  UNL     1      26.147  -0.386  53.769  1.00  0.00    -0.381 OA
HETATM   18  C14 UNL     1      25.030  -0.816  54.451  1.00  0.00     0.232 C 
HETATM   19  C15 UNL     1      23.771  -0.297  53.830  1.00  0.00     0.066 C 
HETATM   20  C17 UNL     1      23.596   0.701  52.958  1.00  0.00     0.018 C 
BRANCH  19  21
HETATM   21  O2  UNL     1      22.623  -0.950  54.223  1.00  0.00    -0.358 OA
HETATM   22  C16 UNL     1      21.418  -0.354  54.608  1.00  0.00     0.209 C 
ENDBRANCH  19  21
ENDBRANCH  12  13
ENDBRANCH  10  12
ENDBRANCH   5  10
BRANCH   1  23
HETATM   23  C5  UNL     1      28.049   6.354  48.274  1.00  0.00     0.120 C 
HETATM   24  C4  UNL     1      29.407   6.383  48.236  1.00  0.00     0.019 C 
BRANCH  24  25
HETATM   25  C3  UNL     1      29.691   7.670  47.610  1.00  0.00    -0.003 C 
HETATM   26  C2  UNL     1      30.667   8.370  48.111  1.00  0.00    -0.031 C 
HETATM   27  C1  UNL     1      31.373   7.740  49.283  1.00  0.00     0.036 C 
ENDBRANCH  24  25
ENDBRANCH   1  23
TORSDOF 6
ENDMDL
MODEL 5
REMARK VINA RESULT:      -7.5      3.528      4.823
REMARK  6 active torsions:
REMARK  status: ('A' for Active; 'I' for Inactive)
REMARK    1  A    between atoms: C3_3  and  C4_4 
REMARK    2  A    between atoms: C5_5  and  N1_6 
REMARK    3  A    between atoms: C8_10  and  N3_11 
REMARK    4  A    between atoms: N3_11  and  C9_12 
REMARK    5  A    between atoms: C9_12  and  C10_13 
REMARK    6  A    between atoms: C15_19  and  O2_20 
ROOT
HETATM    1  N1  UNL     1      25.026   0.390  53.435  1.00  0.00    -0.226 N 
HETATM    2  N2  UNL     1      24.520   1.280  52.596  1.00  0.00    -0.178 NA
HETATM    3  C6  UNL     1      23.156   1.290  52.673  1.00  0.00     0.158 A 
HETATM    4  C7  UNL     1      22.845   0.349  53.614  1.00  0.00     0.076 A 
HETATM    5  C8  UNL     1      21.771  -0.232  54.253  1.00  0.00     0.140 A 
HETATM    6  N4  UNL     1      21.893  -1.190  55.183  1.00  0.00    -0.224 NA
HETATM    7  C18 UNL     1      23.078  -1.674  55.579  1.00  0.00     0.237 A 
HETATM    8  N5  UNL     1      24.161  -1.126  54.974  1.00  0.00    -0.221 NA
HETATM    9  C19 UNL     1      24.020  -0.168  54.046  1.00  0.00     0.167 A 
ENDROOT
BRANCH   5  10
HETATM   10  N3  UNL     1      20.479   0.266  53.860  1.00  0.00    -0.373 N 
HETATM   11  H9  UNL     1      20.109   1.197  54.125  1.00  0.00     0.161 HD
BRANCH  10  12
HETATM   12  C9  UNL     1      19.664  -0.609  53.045  1.00  0.00     0.134 C 
BRANCH  12  13
HETATM   13  C10 UNL     1      19.115   0.059  51.816  1.00  0.00     0.051 C 
HETATM   14  C11 UNL     1      17.654  -0.199  51.701  1.00  0.00    -0.018 C 
HETATM   15  C12 UNL     1      16.831   0.275  50.756  1.00  0.00    -0.004 C 
HETATM   16  C13 UNL     1      16.799   1.132  49.528  1.00  0.00     0.195 C 
HETATM   17  O1  UNL     1      18.000   1.778  49.327  1.00  0.00    -0.381 OA
HETATM   18  C14 UNL     1      18.169   2.930  50.063  1.00  0.00     0.232 C 
HETATM   19  C15 UNL     1      18.989   2.685  51.291  1.00  0.00     0.066 C 
HETATM   20  C17 UNL     1      19.300   1.534  51.895  1.00  0.00     0.018 C 
BRANCH  19  21
HETATM   21  O2  UNL     1      19.495   3.822  51.882  1.00  0.00    -0.358 OA
HETATM   22  C16 UNL     1      20.834   4.227  51.895  1.00  0.00     0.209 C 
ENDBRANCH  19  21
ENDBRANCH  12  13
ENDBRANCH  10  12
ENDBRANCH   5  10
BRANCH   1  23
HETATM   23  C5  UNL     1      26.457   0.374  53.368  1.00  0.00     0.120 C 
HETATM   24  C4  UNL     1      27.425  -0.394  52.803  1.00  0.00     0.019 C 
BRANCH  24  25
HETATM   25  C3  UNL     1      28.656   0.278  53.208  1.00  0.00    -0.003 C 
HETATM   26  C2  UNL     1      29.678  -0.477  53.488  1.00  0.00    -0.031 C 
HETATM   27  C1  UNL     1      29.439  -1.959  53.350  1.00  0.00     0.036 C 
ENDBRANCH  24  25
ENDBRANCH   1  23
TORSDOF 6
ENDMDL
MODEL 6
REMARK VINA RESULT:      -7.5      3.515      5.285
REMARK  6 active torsions:
REMARK  status: ('A' for Active; 'I' for Inactive)
REMARK    1  A    between atoms: C3_3  and  C4_4 
REMARK    2  A    between atoms: C5_5  and  N1_6 
REMARK    3  A    between atoms: C8_10  and  N3_11 
REMARK    4  A    between atoms: N3_11  and  C9_12 
REMARK    5  A    between atoms: C9_12  and  C10_13 
REMARK    6  A    between atoms: C15_19  and  O2_20 
ROOT
HETATM    1  N1  UNL     1      24.976   0.284  53.322  1.00  0.00    -0.226 N 
HETATM    2  N2  UNL     1      24.635   1.201  52.432  1.00  0.00    -0.178 NA
HETATM    3  C6  UNL     1      23.278   1.358  52.401  1.00  0.00     0.158 A 
HETATM    4  C7  UNL     1      22.796   0.478  53.330  1.00  0.00     0.076 A 
HETATM    5  C8  UNL     1      21.620   0.030  53.891  1.00  0.00     0.140 A 
HETATM    6  N4  UNL     1      21.567  -0.912  54.844  1.00  0.00    -0.224 NA
HETATM    7  C18 UNL     1      22.660  -1.509  55.340  1.00  0.00     0.237 A 
HETATM    8  N5  UNL     1      23.838  -1.094  54.813  1.00  0.00    -0.221 NA
HETATM    9  C19 UNL     1      23.873  -0.149  53.861  1.00  0.00     0.167 A 
ENDROOT
BRANCH   5  10
HETATM   10  N3  UNL     1      20.423   0.652  53.390  1.00  0.00    -0.373 N 
HETATM   11  H9  UNL     1      20.076   1.579  53.698  1.00  0.00     0.161 HD
BRANCH  10  12
HETATM   12  C9  UNL     1      19.673  -0.085  52.397  1.00  0.00     0.134 C 
BRANCH  12  13
HETATM   13  C10 UNL     1      19.208   0.765  51.247  1.00  0.00     0.051 C 
HETATM   14  C11 UNL     1      18.803   2.111  51.735  1.00  0.00    -0.018 C 
HETATM   15  C12 UNL     1      18.379   3.137  50.988  1.00  0.00    -0.004 C 
HETATM   16  C13 UNL     1      18.097   3.541  49.572  1.00  0.00     0.195 C 
HETATM   17  O1  UNL     1      18.521   2.584  48.675  1.00  0.00    -0.381 OA
HETATM   18  C14 UNL     1      19.863   2.633  48.367  1.00  0.00     0.232 C 
HETATM   19  C15 UNL     1      20.648   1.634  49.159  1.00  0.00     0.066 C 
HETATM   20  C17 UNL     1      20.308   0.962  50.264  1.00  0.00     0.018 C 
BRANCH  19  21
HETATM   21  O2  UNL     1      21.910   1.373  48.669  1.00  0.00    -0.358 OA
HETATM   22  C16 UNL     1      22.516   1.986  47.569  1.00  0.00     0.209 C 
ENDBRANCH  19  21
ENDBRANCH  12  13
ENDBRANCH  10  12
ENDBRANCH   5  10
BRANCH   1  23
HETATM   23  C5  UNL     1      26.398   0.115  53.367  1.00  0.00     0.120 C 
HETATM   24  C4  UNL     1      27.346  -0.589  52.694  1.00  0.00     0.019 C 
BRANCH  24  25
HETATM   25  C3  UNL     1      28.583  -0.199  53.364  1.00  0.00    -0.003 C 
HETATM   26  C2  UNL     1      29.441  -1.143  53.618  1.00  0.00    -0.031 C 
HETATM   27  C1  UNL     1      29.027  -2.523  53.178  1.00  0.00     0.036 C 
ENDBRANCH  24  25
ENDBRANCH   1  23
TORSDOF 6
ENDMDL
MODEL 7
REMARK VINA RESULT:      -7.4      3.645      5.077
REMARK  6 active torsions:
REMARK  status: ('A' for Active; 'I' for Inactive)
REMARK    1  A    between atoms: C3_3  and  C4_4 
REMARK    2  A    between atoms: C5_5  and  N1_6 
REMARK    3  A    between atoms: C8_10  and  N3_11 
REMARK    4  A    between atoms: N3_11  and  C9_12 
REMARK    5  A    between atoms: C9_12  and  C10_13 
REMARK    6  A    between atoms: C15_19  and  O2_20 
ROOT
HETATM    1  N1  UNL     1      24.895   0.341  52.998  1.00  0.00    -0.226 N 
HETATM    2  N2  UNL     1      24.635   1.196  52.022  1.00  0.00    -0.178 NA
HETATM    3  C6  UNL     1      23.287   1.389  51.901  1.00  0.00     0.158 A 
HETATM    4  C7  UNL     1      22.726   0.600  52.865  1.00  0.00     0.076 A 
HETATM    5  C8  UNL     1      21.506   0.232  53.390  1.00  0.00     0.140 A 
HETATM    6  N4  UNL     1      21.368  -0.631  54.407  1.00  0.00    -0.224 NA
HETATM    7  C18 UNL     1      22.411  -1.219  55.009  1.00  0.00     0.237 A 
HETATM    8  N5  UNL     1      23.630  -0.882  54.521  1.00  0.00    -0.221 NA
HETATM    9  C19 UNL     1      23.749  -0.015  53.504  1.00  0.00     0.167 A 
ENDROOT
BRANCH   5  10
HETATM   10  N3  UNL     1      20.360   0.848  52.774  1.00  0.00    -0.373 N 
HETATM   11  H9  UNL     1      19.810   1.614  53.204  1.00  0.00     0.161 HD
BRANCH  10  12
HETATM   12  C9  UNL     1      19.971   0.347  51.474  1.00  0.00     0.134 C 
BRANCH  12  13
HETATM   13  C10 UNL     1      18.518  -0.031  51.389  1.00  0.00     0.051 C 
HETATM   14  C11 UNL     1      18.156  -0.931  52.517  1.00  0.00    -0.018 C 
HETATM   15  C12 UNL     1      16.942  -1.430  52.782  1.00  0.00    -0.004 C 
HETATM   16  C13 UNL     1      15.526  -1.437  52.291  1.00  0.00     0.195 C 
HETATM   17  O1  UNL     1      15.335  -0.527  51.274  1.00  0.00    -0.381 OA
HETATM   18  C14 UNL     1      15.131   0.771  51.686  1.00  0.00     0.232 C 
HETATM   19  C15 UNL     1      16.387   1.580  51.605  1.00  0.00     0.066 C 
HETATM   20  C17 UNL     1      17.657   1.179  51.492  1.00  0.00     0.018 C 
BRANCH  19  21
HETATM   21  O2  UNL     1      16.198   2.945  51.657  1.00  0.00    -0.358 OA
HETATM   22  C16 UNL     1      17.178   3.926  51.479  1.00  0.00     0.209 C 
ENDBRANCH  19  21
ENDBRANCH  12  13
ENDBRANCH  10  12
ENDBRANCH   5  10
BRANCH   1  23
HETATM   23  C5  UNL     1      26.306   0.135  53.138  1.00  0.00     0.120 C 
HETATM   24  C4  UNL     1      27.242  -0.736  52.677  1.00  0.00     0.019 C 
BRANCH  24  25
HETATM   25  C3  UNL     1      28.473  -0.253  53.295  1.00  0.00    -0.003 C 
HETATM   26  C2  UNL     1      29.382  -1.140  53.574  1.00  0.00    -0.031 C 
HETATM   27  C1  UNL     1      29.028  -2.559  53.215  1.00  0.00     0.036 C 
ENDBRANCH  24  25
ENDBRANCH   1  23
TORSDOF 6
ENDMDL
MODEL 8
REMARK VINA RESULT:      -7.4      3.344      5.599
REMARK  6 active torsions:
REMARK  status: ('A' for Active; 'I' for Inactive)
REMARK    1  A    between atoms: C3_3  and  C4_4 
REMARK    2  A    between atoms: C5_5  and  N1_6 
REMARK    3  A    between atoms: C8_10  and  N3_11 
REMARK    4  A    between atoms: N3_11  and  C9_12 
REMARK    5  A    between atoms: C9_12  and  C10_13 
REMARK    6  A    between atoms: C15_19  and  O2_20 
ROOT
HETATM    1  N1  UNL     1      25.279   0.634  52.779  1.00  0.00    -0.226 N 
HETATM    2  N2  UNL     1      25.168   1.522  51.805  1.00  0.00    -0.178 NA
HETATM    3  C6  UNL     1      23.852   1.764  51.526  1.00  0.00     0.158 A 
HETATM    4  C7  UNL     1      23.152   0.969  52.389  1.00  0.00     0.076 A 
HETATM    5  C8  UNL     1      21.867   0.628  52.749  1.00  0.00     0.140 A 
HETATM    6  N4  UNL     1      21.579  -0.257  53.715  1.00  0.00    -0.224 NA
HETATM    7  C18 UNL     1      22.521  -0.896  54.422  1.00  0.00     0.237 A 
HETATM    8  N5  UNL     1      23.801  -0.586  54.097  1.00  0.00    -0.221 NA
HETATM    9  C19 UNL     1      24.070   0.302  53.129  1.00  0.00     0.167 A 
ENDROOT
BRANCH   5  10
HETATM   10  N3  UNL     1      20.824   1.299  52.017  1.00  0.00    -0.373 N 
HETATM   11  H9  UNL     1      20.402   0.936  51.143  1.00  0.00     0.161 HD
BRANCH  10  12
HETATM   12  C9  UNL     1      20.356   2.557  52.556  1.00  0.00     0.134 C 
BRANCH  12  13
HETATM   13  C10 UNL     1      20.434   3.693  51.575  1.00  0.00     0.051 C 
HETATM   14  C11 UNL     1      21.464   4.676  52.008  1.00  0.00    -0.018 C 
HETATM   15  C12 UNL     1      21.832   5.787  51.357  1.00  0.00    -0.004 C 
HETATM   16  C13 UNL     1      21.559   6.584  50.118  1.00  0.00     0.195 C 
HETATM   17  O1  UNL     1      20.719   5.914  49.255  1.00  0.00    -0.381 OA
HETATM   18  C14 UNL     1      21.337   4.979  48.454  1.00  0.00     0.232 C 
HETATM   19  C15 UNL     1      21.188   3.595  49.004  1.00  0.00     0.066 C 
HETATM   20  C17 UNL     1      20.833   3.196  50.230  1.00  0.00     0.018 C 
BRANCH  19  21
HETATM   21  O2  UNL     1      21.460   2.585  48.107  1.00  0.00    -0.358 OA
HETATM   22  C16 UNL     1      21.674   1.237  48.412  1.00  0.00     0.209 C 
ENDBRANCH  19  21
ENDBRANCH  12  13
ENDBRANCH  10  12
ENDBRANCH   5  10
BRANCH   1  23
HETATM   23  C5  UNL     1      26.655   0.376  53.084  1.00  0.00     0.120 C 
HETATM   24  C4  UNL     1      27.530  -0.658  52.973  1.00  0.00     0.019 C 
BRANCH  24  25
HETATM   25  C3  UNL     1      28.766  -0.104  53.518  1.00  0.00    -0.003 C 
HETATM   26  C2  UNL     1      29.758  -0.927  53.691  1.00  0.00    -0.031 C 
HETATM   27  C1  UNL     1      29.484  -2.355  53.298  1.00  0.00     0.036 C 
ENDBRANCH  24  25
ENDBRANCH   1  23
TORSDOF 6
ENDMDL
MODEL 9
REMARK VINA RESULT:      -7.4      3.210      5.176
REMARK  6 active torsions:
REMARK  status: ('A' for Active; 'I' for Inactive)
REMARK    1  A    between atoms: C3_3  and  C4_4 
REMARK    2  A    between atoms: C5_5  and  N1_6 
REMARK    3  A    between atoms: C8_10  and  N3_11 
REMARK    4  A    between atoms: N3_11  and  C9_12 
REMARK    5  A    between atoms: C9_12  and  C10_13 
REMARK    6  A    between atoms: C15_19  and  O2_20 
ROOT
HETATM    1  N1  UNL     1      27.447   5.862  48.643  1.00  0.00    -0.226 N 
HETATM    2  N2  UNL     1      27.742   4.573  48.626  1.00  0.00    -0.178 NA
HETATM    3  C6  UNL     1      26.816   3.861  49.335  1.00  0.00     0.158 A 
HETATM    4  C7  UNL     1      25.926   4.791  49.794  1.00  0.00     0.076 A 
HETATM    5  C8  UNL     1      24.772   4.913  50.538  1.00  0.00     0.140 A 
HETATM    6  N4  UNL     1      24.166   6.085  50.776  1.00  0.00    -0.224 NA
HETATM    7  C18 UNL     1      24.630   7.253  50.310  1.00  0.00     0.237 A 
HETATM    8  N5  UNL     1      25.766   7.174  49.572  1.00  0.00    -0.221 NA
HETATM    9  C19 UNL     1      26.358   5.993  49.343  1.00  0.00     0.167 A 
ENDROOT
BRANCH   5  10
HETATM   10  N3  UNL     1      24.237   3.679  51.050  1.00  0.00    -0.373 N 
HETATM   11  H9  UNL     1      24.163   2.804  50.500  1.00  0.00     0.161 HD
BRANCH  10  12
HETATM   12  C9  UNL     1      23.780   3.688  52.423  1.00  0.00     0.134 C 
BRANCH  12  13
HETATM   13  C10 UNL     1      24.213   2.479  53.205  1.00  0.00     0.051 C 
HETATM   14  C11 UNL     1      23.536   1.261  52.683  1.00  0.00    -0.018 C 
HETATM   15  C12 UNL     1      23.713   0.005  53.110  1.00  0.00    -0.004 C 
HETATM   16  C13 UNL     1      24.478  -0.818  54.102  1.00  0.00     0.195 C 
HETATM   17  O1  UNL     1      25.439  -0.071  54.750  1.00  0.00    -0.381 OA
HETATM   18  C14 UNL     1      26.617   0.089  54.053  1.00  0.00     0.232 C 
HETATM   19  C15 UNL     1      26.667   1.409  53.350  1.00  0.00     0.066 C 
HETATM   20  C17 UNL     1      25.679   2.265  53.067  1.00  0.00     0.018 C 
BRANCH  19  21
HETATM   21  O2  UNL     1      27.923   1.793  52.933  1.00  0.00    -0.358 OA
HETATM   22  C16 UNL     1      28.861   2.514  53.678  1.00  0.00     0.209 C 
ENDBRANCH  19  21
ENDBRANCH  12  13
ENDBRANCH  10  12
ENDBRANCH   5  10
BRANCH   1  23
HETATM   23  C5  UNL     1      28.409   6.619  47.897  1.00  0.00     0.120 C 
HETATM   24  C4  UNL     1      29.734   6.912  47.976  1.00  0.00     0.019 C 
BRANCH  24  25
HETATM   25  C3  UNL     1      29.954   7.757  46.806  1.00  0.00    -0.003 C 
HETATM   26  C2  UNL     1      31.035   7.540  46.116  1.00  0.00    -0.031 C 
HETATM   27  C1  UNL     1      31.917   6.433  46.631  1.00  0.00     0.036 C 
ENDBRANCH  24  25
ENDBRANCH   1  23
TORSDOF 6
ENDMDL
