MODEL 1
REMARK VINA RESULT:      -7.4      0.000      0.000
REMARK  6 active torsions:
REMARK  status: ('A' for Active; 'I' for Inactive)
REMARK    1  A    between atoms: O1_2  and  C2_3 
REMARK    2  A    between atoms: C4_5  and  O2_6 
REMARK    3  A    between atoms: C6_8  and  N1_9 
REMARK    4  A    between atoms: C11_15  and  O3_16 
REMARK    5  A    between atoms: C13_18  and  O4_19 
REMARK    6  A    between atoms: O4_19  and  C14_20 
ROOT
HETATM    1  N1  UNL     1      24.583   3.165  50.699  1.00  0.00    -0.308 N 
HETATM    2  C7  UNL     1      25.928   3.307  50.480  1.00  0.00     0.385 A 
HETATM    3  N2  UNL     1      26.017   2.609  51.273  1.00  0.00     0.120 N 
HETATM    4  C8  UNL     1      24.811   2.310  51.663  1.00  0.00     0.317 A 
HETATM    5  C9  UNL     1      25.612   1.529  52.521  1.00  0.00     0.045 A 
HETATM    6  C10 UNL     1      25.173   0.655  53.536  1.00  0.00     0.051 A 
HETATM    7  C11 UNL     1      26.150  -0.033  54.279  1.00  0.00     0.101 A 
HETATM    8  C13 UNL     1      27.449   0.232  53.924  1.00  0.00     0.103 A 
HETATM    9  C15 UNL     1      27.923   1.068  52.952  1.00  0.00     0.077 A 
HETATM   10  C16 UNL     1      26.970   1.801  52.154  1.00  0.00     0.288 A 
HETATM   11  N3  UNL     1      26.913   2.679  51.155  1.00  0.00    -0.023 NA
ENDROOT
BRANCH   1  12
HETATM   12  C6  UNL     1      23.274   3.643  50.212  1.00  0.00     0.142 A 
HETATM   13  C4  UNL     1      22.926   5.001  50.700  1.00  0.00     0.172 A 
HETATM   14  C3  UNL     1      22.531   5.958  49.655  1.00  0.00     0.043 A 
HETATM   15  C2  UNL     1      22.425   5.831  48.324  1.00  0.00     0.066 A 
HETATM   16  C18 UNL     1      22.771   4.493  47.868  1.00  0.00     0.034 A 
HETATM   17  C17 UNL     1      23.121   3.630  48.759  1.00  0.00     0.004 A 
BRANCH  13  18
HETATM   18  O2  UNL     1      24.037   5.466  51.432  1.00  0.00    -0.384 OA
HETATM   19  C5  UNL     1      24.245   6.817  51.186  1.00  0.00     0.202 C 
ENDBRANCH  13  18
BRANCH  15  20
HETATM   20  O1  UNL     1      22.035   6.837  47.457  1.00  0.00    -0.356 OA
HETATM   21  C1  UNL     1      22.568   6.899  46.130  1.00  0.00     0.210 C 
ENDBRANCH  15  20
ENDBRANCH   1  12
BRANCH   7  22
HETATM   22  O3  UNL     1      25.772  -0.885  55.267  1.00  0.00    -0.353 OA
HETATM   23  C12 UNL     1      24.407  -1.230  55.414  1.00  0.00     0.210 C 
ENDBRANCH   7  22
BRANCH   8  24
HETATM   24  O4  UNL     1      28.488  -0.388  54.588  1.00  0.00    -0.334 OA
BRANCH  24  25
HETATM   25  C14 UNL     1      29.626  -0.909  53.973  1.00  0.00     0.290 C 
HETATM   26 CL1  UNL     1      29.163  -2.461  53.204  1.00  0.00    -0.102 Cl
ENDBRANCH  24  25
ENDBRANCH   8  24
TORSDOF 6
ENDMDL
MODEL 2
REMARK VINA RESULT:      -7.3      2.211      3.081
REMARK  6 active torsions:
REMARK  status: ('A' for Active; 'I' for Inactive)
REMARK    1  A    between atoms: O1_2  and  C2_3 
REMARK    2  A    between atoms: C4_5  and  O2_6 
REMARK    3  A    between atoms: C6_8  and  N1_9 
REMARK    4  A    between atoms: C11_15  and  O3_16 
REMARK    5  A    between atoms: C13_18  and  O4_19 
REMARK    6  A    between atoms: O4_19  and  C14_20 
ROOT
HETATM    1  N1  UNL     1      24.263   3.219  50.863  1.00  0.00    -0.308 N 
HETATM    2  C7  UNL     1      25.549   3.080  50.412  1.00  0.00     0.385 A 
HETATM    3  N2  UNL     1      25.613   2.333  51.162  1.00  0.00     0.120 N 
HETATM    4  C8  UNL     1      24.454   2.281  51.755  1.00  0.00     0.317 A 
HETATM    5  C9  UNL     1      25.193   1.296  52.440  1.00  0.00     0.045 A 
HETATM    6  C10 UNL     1      24.747   0.480  53.501  1.00  0.00     0.051 A 
HETATM    7  C11 UNL     1      25.657  -0.445  54.045  1.00  0.00     0.101 A 
HETATM    8  C13 UNL     1      26.904  -0.448  53.469  1.00  0.00     0.103 A 
HETATM    9  C15 UNL     1      27.381   0.321  52.446  1.00  0.00     0.077 A 
HETATM   10  C16 UNL     1      26.496   1.288  51.844  1.00  0.00     0.288 A 
HETATM   11  N3  UNL     1      26.468   2.215  50.889  1.00  0.00    -0.023 NA
ENDROOT
BRANCH   1  12
HETATM   12  C6  UNL     1      23.032   3.997  50.626  1.00  0.00     0.142 A 
HETATM   13  C4  UNL     1      22.025   3.272  49.811  1.00  0.00     0.172 A 
HETATM   14  C3  UNL     1      20.674   3.217  50.390  1.00  0.00     0.043 A 
HETATM   15  C2  UNL     1      20.174   3.706  51.534  1.00  0.00     0.066 A 
HETATM   16  C18 UNL     1      21.177   4.413  52.317  1.00  0.00     0.034 A 
HETATM   17  C17 UNL     1      22.371   4.480  51.837  1.00  0.00     0.004 A 
BRANCH  13  18
HETATM   18  O2  UNL     1      22.543   1.980  49.584  1.00  0.00    -0.384 OA
HETATM   19  C5  UNL     1      21.548   1.141  49.099  1.00  0.00     0.202 C 
ENDBRANCH  13  18
BRANCH  15  20
HETATM   20  O1  UNL     1      18.861   3.571  51.950  1.00  0.00    -0.356 OA
HETATM   21  C1  UNL     1      17.872   3.027  51.069  1.00  0.00     0.210 C 
ENDBRANCH  15  20
ENDBRANCH   1  12
BRANCH   7  22
HETATM   22  O3  UNL     1      25.271  -1.251  55.067  1.00  0.00    -0.353 OA
HETATM   23  C12 UNL     1      23.916  -1.268  55.476  1.00  0.00     0.210 C 
ENDBRANCH   7  22
BRANCH   8  24
HETATM   24  O4  UNL     1      27.874  -1.316  53.927  1.00  0.00    -0.334 OA
BRANCH  24  25
HETATM   25  C14 UNL     1      28.978  -1.736  53.184  1.00  0.00     0.290 C 
HETATM   26 CL1  UNL     1      30.420  -0.891  53.833  1.00  0.00    -0.102 Cl
ENDBRANCH  24  25
ENDBRANCH   8  24
TORSDOF 6
ENDMDL
MODEL 3
REMARK VINA RESULT:      -7.2      3.785      7.460
REMARK  6 active torsions:
REMARK  status: ('A' for Active; 'I' for Inactive)
REMARK    1  A    between atoms: O1_2  and  C2_3 
REMARK    2  A    between atoms: C4_5  and  O2_6 
REMARK    3  A    between atoms: C6_8  and  N1_9 
REMARK    4  A    between atoms: C11_15  and  O3_16 
REMARK    5  A    between atoms: C13_18  and  O4_19 
REMARK    6  A    between atoms: O4_19  and  C14_20 
ROOT
HETATM    1  N1  UNL     1      24.166   3.185  51.074  1.00  0.00    -0.308 N 
HETATM    2  C7  UNL     1      23.651   4.372  51.524  1.00  0.00     0.385 A 
HETATM    3  N2  UNL     1      24.412   4.802  50.923  1.00  0.00     0.120 N 
HETATM    4  C8  UNL     1      25.065   3.821  50.367  1.00  0.00     0.317 A 
HETATM    5  C9  UNL     1      25.731   4.956  49.863  1.00  0.00     0.045 A 
HETATM    6  C10 UNL     1      26.829   4.978  48.979  1.00  0.00     0.051 A 
HETATM    7  C11 UNL     1      27.343   6.232  48.600  1.00  0.00     0.101 A 
HETATM    8  C13 UNL     1      26.704   7.316  49.148  1.00  0.00     0.103 A 
HETATM    9  C15 UNL     1      25.641   7.346  50.006  1.00  0.00     0.077 A 
HETATM   10  C16 UNL     1      25.067   6.092  50.431  1.00  0.00     0.288 A 
HETATM   11  N3  UNL     1      24.097   5.604  51.200  1.00  0.00    -0.023 NA
ENDROOT
BRANCH   1  12
HETATM   12  C6  UNL     1      23.978   1.726  51.187  1.00  0.00     0.142 A 
HETATM   13  C4  UNL     1      24.924   1.082  52.133  1.00  0.00     0.172 A 
HETATM   14  C3  UNL     1      24.301   0.224  53.153  1.00  0.00     0.043 A 
HETATM   15  C2  UNL     1      23.019  -0.089  53.392  1.00  0.00     0.066 A 
HETATM   16  C18 UNL     1      22.109   0.552  52.454  1.00  0.00     0.034 A 
HETATM   17  C17 UNL     1      22.623   1.310  51.547  1.00  0.00     0.004 A 
BRANCH  13  18
HETATM   18  O2  UNL     1      25.678   2.119  52.720  1.00  0.00    -0.384 OA
HETATM   19  C5  UNL     1      26.286   1.671  53.885  1.00  0.00     0.202 C 
ENDBRANCH  13  18
BRANCH  15  20
HETATM   20  O1  UNL     1      22.579  -0.923  54.406  1.00  0.00    -0.356 OA
HETATM   21  C1  UNL     1      21.208  -1.326  54.470  1.00  0.00     0.210 C 
ENDBRANCH  15  20
ENDBRANCH   1  12
BRANCH   7  22
HETATM   22  O3  UNL     1      28.400   6.300  47.751  1.00  0.00    -0.353 OA
HETATM   23  C12 UNL     1      29.643   5.738  48.128  1.00  0.00     0.210 C 
ENDBRANCH   7  22
BRANCH   8  24
HETATM   24  O4  UNL     1      27.127   8.594  48.845  1.00  0.00    -0.334 OA
BRANCH  24  25
HETATM   25  C14 UNL     1      27.848   9.418  49.709  1.00  0.00     0.290 C 
HETATM   26 CL1  UNL     1      29.590   9.172  49.362  1.00  0.00    -0.102 Cl
ENDBRANCH  24  25
ENDBRANCH   8  24
TORSDOF 6
ENDMDL
MODEL 4
REMARK VINA RESULT:      -7.2      2.244      3.429
REMARK  6 active torsions:
REMARK  status: ('A' for Active; 'I' for Inactive)
REMARK    1  A    between atoms: O1_2  and  C2_3 
REMARK    2  A    between atoms: C4_5  and  O2_6 
REMARK    3  A    between atoms: C6_8  and  N1_9 
REMARK    4  A    between atoms: C11_15  and  O3_16 
REMARK    5  A    between atoms: C13_18  and  O4_19 
REMARK    6  A    between atoms: O4_19  and  C14_20 
ROOT
HETATM    1  N1  UNL     1      24.141   3.516  50.092  1.00  0.00    -0.308 N 
HETATM    2  C7  UNL     1      23.248   2.482  50.198  1.00  0.00     0.385 A 
HETATM    3  N2  UNL     1      23.893   2.151  50.972  1.00  0.00     0.120 N 
HETATM    4  C8  UNL     1      24.864   3.015  51.062  1.00  0.00     0.317 A 
HETATM    5  C9  UNL     1      25.194   2.080  52.063  1.00  0.00     0.045 A 
HETATM    6  C10 UNL     1      26.310   2.111  52.924  1.00  0.00     0.051 A 
HETATM    7  C11 UNL     1      26.449   1.068  53.858  1.00  0.00     0.101 A 
HETATM    8  C13 UNL     1      25.460   0.115  53.823  1.00  0.00     0.103 A 
HETATM    9  C15 UNL     1      24.365   0.042  53.009  1.00  0.00     0.077 A 
HETATM   10  C16 UNL     1      24.165   1.083  52.031  1.00  0.00     0.288 A 
HETATM   11  N3  UNL     1      23.323   1.454  51.069  1.00  0.00    -0.023 NA
ENDROOT
BRANCH   1  12
HETATM   12  C6  UNL     1      24.398   4.747  49.322  1.00  0.00     0.142 A 
HETATM   13  C4  UNL     1      23.759   5.952  49.908  1.00  0.00     0.172 A 
HETATM   14  C3  UNL     1      24.658   7.098  50.115  1.00  0.00     0.043 A 
HETATM   15  C2  UNL     1      25.966   7.260  49.871  1.00  0.00     0.066 A 
HETATM   16  C18 UNL     1      26.573   6.068  49.297  1.00  0.00     0.034 A 
HETATM   17  C17 UNL     1      25.812   5.046  49.102  1.00  0.00     0.004 A 
BRANCH  13  18
HETATM   18  O2  UNL     1      23.156   5.544  51.115  1.00  0.00    -0.384 OA
HETATM   19  C5  UNL     1      21.888   6.101  51.231  1.00  0.00     0.202 C 
ENDBRANCH  13  18
BRANCH  15  20
HETATM   20  O1  UNL     1      26.686   8.415  50.123  1.00  0.00    -0.356 OA
HETATM   21  C1  UNL     1      27.825   8.750  49.324  1.00  0.00     0.210 C 
ENDBRANCH  15  20
ENDBRANCH   1  12
BRANCH   7  22
HETATM   22  O3  UNL     1      27.508   1.058  54.707  1.00  0.00    -0.353 OA
HETATM   23  C12 UNL     1      28.739   0.496  54.290  1.00  0.00     0.210 C 
ENDBRANCH   7  22
BRANCH   8  24
HETATM   24  O4  UNL     1      25.499  -0.953  54.695  1.00  0.00    -0.334 OA
BRANCH  24  25
HETATM   25  C14 UNL     1      24.870  -0.986  55.940  1.00  0.00     0.290 C 
HETATM   26 CL1  UNL     1      23.175  -1.505  55.677  1.00  0.00    -0.102 Cl
ENDBRANCH  24  25
ENDBRANCH   8  24
TORSDOF 6
ENDMDL
MODEL 5
REMARK VINA RESULT:      -7.2      3.565      4.290
REMARK  6 active torsions:
REMARK  status: ('A' for Active; 'I' for Inactive)
REMARK    1  A    between atoms: O1_2  and  C2_3 
REMARK    2  A    between atoms: C4_5  and  O2_6 
REMARK    3  A    between atoms: C6_8  and  N1_9 
REMARK    4  A    between atoms: C11_15  and  O3_16 
REMARK    5  A    between atoms: C13_18  and  O4_19 
REMARK    6  A    between atoms: O4_19  and  C14_20 
ROOT
HETATM    1  N1  UNL     1      22.180   2.094  51.721  1.00  0.00    -0.308 N 
HETATM    2  C7  UNL     1      22.805   3.189  52.257  1.00  0.00     0.385 A 
HETATM    3  N2  UNL     1      23.545   2.487  52.545  1.00  0.00     0.120 N 
HETATM    4  C8  UNL     1      23.154   1.318  52.124  1.00  0.00     0.317 A 
HETATM    5  C9  UNL     1      24.380   1.022  52.752  1.00  0.00     0.045 A 
HETATM    6  C10 UNL     1      24.993  -0.243  52.872  1.00  0.00     0.051 A 
HETATM    7  C11 UNL     1      26.228  -0.312  53.544  1.00  0.00     0.101 A 
HETATM    8  C13 UNL     1      26.706   0.884  54.017  1.00  0.00     0.103 A 
HETATM    9  C15 UNL     1      26.150   2.129  53.927  1.00  0.00     0.077 A 
HETATM   10  C16 UNL     1      24.884   2.268  53.249  1.00  0.00     0.288 A 
HETATM   11  N3  UNL     1      23.985   3.189  52.911  1.00  0.00    -0.023 NA
ENDROOT
BRANCH   1  12
HETATM   12  C6  UNL     1      20.965   1.701  50.982  1.00  0.00     0.142 A 
HETATM   13  C4  UNL     1      19.950   1.030  51.833  1.00  0.00     0.172 A 
HETATM   14  C3  UNL     1      18.595   1.595  51.754  1.00  0.00     0.043 A 
HETATM   15  C2  UNL     1      18.097   2.621  51.048  1.00  0.00     0.066 A 
HETATM   16  C18 UNL     1      19.107   3.264  50.221  1.00  0.00     0.034 A 
HETATM   17  C17 UNL     1      20.305   2.792  50.266  1.00  0.00     0.004 A 
BRANCH  13  18
HETATM   18  O2  UNL     1      20.446   1.057  53.152  1.00  0.00    -0.384 OA
HETATM   19  C5  UNL     1      20.157  -0.137  53.800  1.00  0.00     0.202 C 
ENDBRANCH  13  18
BRANCH  15  20
HETATM   20  O1  UNL     1      16.779   3.042  51.079  1.00  0.00    -0.356 OA
HETATM   21  C1  UNL     1      16.399   4.180  51.861  1.00  0.00     0.210 C 
ENDBRANCH  15  20
ENDBRANCH   1  12
BRANCH   7  22
HETATM   22  O3  UNL     1      26.854  -1.510  53.683  1.00  0.00    -0.353 OA
HETATM   23  C12 UNL     1      27.158  -2.281  52.536  1.00  0.00     0.210 C 
ENDBRANCH   7  22
BRANCH   8  24
HETATM   24  O4  UNL     1      27.908   0.930  54.692  1.00  0.00    -0.334 OA
BRANCH  24  25
HETATM   25  C14 UNL     1      29.110   1.382  54.146  1.00  0.00     0.290 C 
HETATM   26 CL1  UNL     1      30.002  -0.051  53.541  1.00  0.00    -0.102 Cl
ENDBRANCH  24  25
ENDBRANCH   8  24
TORSDOF 6
ENDMDL
MODEL 6
REMARK VINA RESULT:      -7.1      4.897      7.093
REMARK  6 active torsions:
REMARK  status: ('A' for Active; 'I' for Inactive)
REMARK    1  A    between atoms: O1_2  and  C2_3 
REMARK    2  A    between atoms: C4_5  and  O2_6 
REMARK    3  A    between atoms: C6_8  and  N1_9 
REMARK    4  A    between atoms: C11_15  and  O3_16 
REMARK    5  A    between atoms: C13_18  and  O4_19 
REMARK    6  A    between atoms: O4_19  and  C14_20 
ROOT
HETATM    1  N1  UNL     1      24.007   0.741  53.483  1.00  0.00    -0.308 N 
HETATM    2  C7  UNL     1      23.779  -0.426  54.164  1.00  0.00     0.385 A 
HETATM    3  N2  UNL     1      22.788  -0.310  53.807  1.00  0.00     0.120 N 
HETATM    4  C8  UNL     1      22.757   0.783  53.099  1.00  0.00     0.317 A 
HETATM    5  C9  UNL     1      21.427   0.325  53.012  1.00  0.00     0.045 A 
HETATM    6  C10 UNL     1      20.360   0.932  52.319  1.00  0.00     0.051 A 
HETATM    7  C11 UNL     1      19.103   0.301  52.364  1.00  0.00     0.101 A 
HETATM    8  C13 UNL     1      19.057  -0.861  53.094  1.00  0.00     0.103 A 
HETATM    9  C15 UNL     1      20.060  -1.486  53.781  1.00  0.00     0.077 A 
HETATM   10  C16 UNL     1      21.373  -0.889  53.772  1.00  0.00     0.288 A 
HETATM   11  N3  UNL     1      22.602  -1.080  54.246  1.00  0.00    -0.023 NA
ENDROOT
BRANCH   1  12
HETATM   12  C6  UNL     1      25.077   1.709  53.172  1.00  0.00     0.142 A 
HETATM   13  C4  UNL     1      26.292   1.079  52.598  1.00  0.00     0.172 A 
HETATM   14  C3  UNL     1      26.773   1.677  51.343  1.00  0.00     0.043 A 
HETATM   15  C2  UNL     1      26.311   2.701  50.609  1.00  0.00     0.066 A 
HETATM   16  C18 UNL     1      25.120   3.303  51.190  1.00  0.00     0.034 A 
HETATM   17  C17 UNL     1      24.673   2.803  52.290  1.00  0.00     0.004 A 
BRANCH  13  18
HETATM   18  O2  UNL     1      26.001  -0.291  52.438  1.00  0.00    -0.384 OA
HETATM   19  C5  UNL     1      27.119  -1.059  52.741  1.00  0.00     0.202 C 
ENDBRANCH  13  18
BRANCH  15  20
HETATM   20  O1  UNL     1      26.879   3.155  49.431  1.00  0.00    -0.356 OA
HETATM   21  C1  UNL     1      26.866   4.550  49.111  1.00  0.00     0.210 C 
ENDBRANCH  15  20
ENDBRANCH   1  12
BRANCH   7  22
HETATM   22  O3  UNL     1      18.047   0.851  51.711  1.00  0.00    -0.353 OA
HETATM   23  C12 UNL     1      18.272   1.762  50.651  1.00  0.00     0.210 C 
ENDBRANCH   7  22
BRANCH   8  24
HETATM   24  O4  UNL     1      17.874  -1.561  53.205  1.00  0.00    -0.334 OA
BRANCH  24  25
HETATM   25  C14 UNL     1      17.757  -2.843  53.745  1.00  0.00     0.290 C 
HETATM   26 CL1  UNL     1      16.283  -3.590  53.050  1.00  0.00    -0.102 Cl
ENDBRANCH  24  25
ENDBRANCH   8  24
TORSDOF 6
ENDMDL
MODEL 7
REMARK VINA RESULT:      -7.1      4.491      5.515
REMARK  6 active torsions:
REMARK  status: ('A' for Active; 'I' for Inactive)
REMARK    1  A    between atoms: O1_2  and  C2_3 
REMARK    2  A    between atoms: C4_5  and  O2_6 
REMARK    3  A    between atoms: C6_8  and  N1_9 
REMARK    4  A    between atoms: C11_15  and  O3_16 
REMARK    5  A    between atoms: C13_18  and  O4_19 
REMARK    6  A    between atoms: O4_19  and  C14_20 
ROOT
HETATM    1  N1  UNL     1      21.445   0.237  52.813  1.00  0.00    -0.308 N 
HETATM    2  C7  UNL     1      22.026  -0.836  53.434  1.00  0.00     0.385 A 
HETATM    3  N2  UNL     1      22.934  -0.360  53.162  1.00  0.00     0.120 N 
HETATM    4  C8  UNL     1      22.621   0.735  52.529  1.00  0.00     0.317 A 
HETATM    5  C9  UNL     1      24.030   0.766  52.516  1.00  0.00     0.045 A 
HETATM    6  C10 UNL     1      24.856   1.757  51.945  1.00  0.00     0.051 A 
HETATM    7  C11 UNL     1      26.249   1.588  52.047  1.00  0.00     0.101 A 
HETATM    8  C13 UNL     1      26.656   0.454  52.703  1.00  0.00     0.103 A 
HETATM    9  C15 UNL     1      25.897  -0.532  53.269  1.00  0.00     0.077 A 
HETATM   10  C16 UNL     1      24.461  -0.417  53.200  1.00  0.00     0.288 A 
HETATM   11  N3  UNL     1      23.351  -1.055  53.565  1.00  0.00    -0.023 NA
ENDROOT
BRANCH   1  12
HETATM   12  C6  UNL     1      20.124   0.804  52.478  1.00  0.00     0.142 A 
HETATM   13  C4  UNL     1      19.996   1.194  51.051  1.00  0.00     0.172 A 
HETATM   14  C3  UNL     1      18.815   0.653  50.360  1.00  0.00     0.043 A 
HETATM   15  C2  UNL     1      17.819  -0.138  50.783  1.00  0.00     0.066 A 
HETATM   16  C18 UNL     1      17.964  -0.508  52.183  1.00  0.00     0.034 A 
HETATM   17  C17 UNL     1      18.988  -0.050  52.819  1.00  0.00     0.004 A 
BRANCH  13  18
HETATM   18  O2  UNL     1      21.191   0.802  50.415  1.00  0.00    -0.384 OA
HETATM   19  C5  UNL     1      21.152   1.138  49.068  1.00  0.00     0.202 C 
ENDBRANCH  13  18
BRANCH  15  20
HETATM   20  O1  UNL     1      16.760  -0.571  50.003  1.00  0.00    -0.356 OA
HETATM   21  C1  UNL     1      15.522   0.148  49.997  1.00  0.00     0.210 C 
ENDBRANCH  15  20
ENDBRANCH   1  12
BRANCH   7  22
HETATM   22  O3  UNL     1      27.082   2.518  51.511  1.00  0.00    -0.353 OA
HETATM   23  C12 UNL     1      26.661   3.280  50.395  1.00  0.00     0.210 C 
ENDBRANCH   7  22
BRANCH   8  24
HETATM   24  O4  UNL     1      28.001   0.190  52.858  1.00  0.00    -0.334 OA
BRANCH  24  25
HETATM   25  C14 UNL     1      28.640   0.017  54.087  1.00  0.00     0.290 C 
HETATM   26 CL1  UNL     1      30.034  -1.080  53.821  1.00  0.00    -0.102 Cl
ENDBRANCH  24  25
ENDBRANCH   8  24
TORSDOF 6
ENDMDL
MODEL 8
REMARK VINA RESULT:      -6.8      3.653      4.489
REMARK  6 active torsions:
REMARK  status: ('A' for Active; 'I' for Inactive)
REMARK    1  A    between atoms: O1_2  and  C2_3 
REMARK    2  A    between atoms: C4_5  and  O2_6 
REMARK    3  A    between atoms: C6_8  and  N1_9 
REMARK    4  A    between atoms: C11_15  and  O3_16 
REMARK    5  A    between atoms: C13_18  and  O4_19 
REMARK    6  A    between atoms: O4_19  and  C14_20 
ROOT
HETATM    1  N1  UNL     1      20.750   0.392  53.166  1.00  0.00    -0.308 N 
HETATM    2  C7  UNL     1      21.070  -0.390  54.245  1.00  0.00     0.385 A 
HETATM    3  N2  UNL     1      22.068  -0.230  53.925  1.00  0.00     0.120 N 
HETATM    4  C8  UNL     1      22.017   0.523  52.862  1.00  0.00     0.317 A 
HETATM    5  C9  UNL     1      23.402   0.317  53.025  1.00  0.00     0.045 A 
HETATM    6  C10 UNL     1      24.439   0.820  52.214  1.00  0.00     0.051 A 
HETATM    7  C11 UNL     1      25.762   0.489  52.559  1.00  0.00     0.101 A 
HETATM    8  C13 UNL     1      25.896  -0.304  53.672  1.00  0.00     0.103 A 
HETATM    9  C15 UNL     1      24.925  -0.815  54.486  1.00  0.00     0.077 A 
HETATM   10  C16 UNL     1      23.548  -0.511  54.186  1.00  0.00     0.288 A 
HETATM   11  N3  UNL     1      22.314  -0.742  54.629  1.00  0.00    -0.023 NA
ENDROOT
BRANCH   1  12
HETATM   12  C6  UNL     1      19.591   0.966  52.456  1.00  0.00     0.142 A 
HETATM   13  C4  UNL     1      19.680   2.437  52.278  1.00  0.00     0.172 A 
HETATM   14  C3  UNL     1      19.480   2.913  50.900  1.00  0.00     0.043 A 
HETATM   15  C2  UNL     1      19.230   2.257  49.758  1.00  0.00     0.066 A 
HETATM   16  C18 UNL     1      19.147   0.817  49.955  1.00  0.00     0.034 A 
HETATM   17  C17 UNL     1      19.317   0.367  51.151  1.00  0.00     0.004 A 
BRANCH  13  18
HETATM   18  O2  UNL     1      20.936   2.832  52.783  1.00  0.00    -0.384 OA
HETATM   19  C5  UNL     1      21.378   3.978  52.135  1.00  0.00     0.202 C 
ENDBRANCH  13  18
BRANCH  15  20
HETATM   20  O1  UNL     1      19.064   2.851  48.519  1.00  0.00    -0.356 OA
HETATM   21  C1  UNL     1      18.781   4.251  48.417  1.00  0.00     0.210 C 
ENDBRANCH  15  20
ENDBRANCH   1  12
BRANCH   7  22
HETATM   22  O3  UNL     1      26.793   0.952  51.806  1.00  0.00    -0.353 OA
HETATM   23  C12 UNL     1      26.803   2.302  51.380  1.00  0.00     0.210 C 
ENDBRANCH   7  22
BRANCH   8  24
HETATM   24  O4  UNL     1      27.150  -0.689  54.099  1.00  0.00    -0.334 OA
BRANCH  24  25
HETATM   25  C14 UNL     1      28.059   0.146  54.750  1.00  0.00     0.290 C 
HETATM   26 CL1  UNL     1      29.573   0.150  53.790  1.00  0.00    -0.102 Cl
ENDBRANCH  24  25
ENDBRANCH   8  24
TORSDOF 6
ENDMDL
MODEL 9
REMARK VINA RESULT:      -6.7      4.117      7.359
REMARK  6 active torsions:
REMARK  status: ('A' for Active; 'I' for Inactive)
REMARK    1  A    between atoms: O1_2  and  C2_3 
REMARK    2  A    between atoms: C4_5  and  O2_6 
REMARK    3  A    between atoms: C6_8  and  N1_9 
REMARK    4  A    between atoms: C11_15  and  O3_16 
REMARK    5  A    between atoms: C13_18  and  O4_19 
REMARK    6  A    between atoms: O4_19  and  C14_20 
ROOT
HETATM    1  N1  UNL     1      25.017   3.563  50.585  1.00  0.00    -0.308 N 
HETATM    2  C7  UNL     1      26.196   2.992  50.182  1.00  0.00     0.385 A 
HETATM    3  N2  UNL     1      26.383   3.946  49.758  1.00  0.00     0.120 N 
HETATM    4  C8  UNL     1      25.353   4.697  50.024  1.00  0.00     0.317 A 
HETATM    5  C9  UNL     1      26.188   5.570  49.300  1.00  0.00     0.045 A 
HETATM    6  C10 UNL     1      25.930   6.916  48.967  1.00  0.00     0.051 A 
HETATM    7  C11 UNL     1      26.909   7.610  48.231  1.00  0.00     0.101 A 
HETATM    8  C13 UNL     1      28.028   6.882  47.913  1.00  0.00     0.103 A 
HETATM    9  C15 UNL     1      28.321   5.581  48.211  1.00  0.00     0.077 A 
HETATM   10  C16 UNL     1      27.359   4.815  48.964  1.00  0.00     0.288 A 
HETATM   11  N3  UNL     1      27.172   3.601  49.477  1.00  0.00    -0.023 NA
ENDROOT
BRANCH   1  12
HETATM   12  C6  UNL     1      23.774   3.255  51.319  1.00  0.00     0.142 A 
HETATM   13  C4  UNL     1      22.732   2.622  50.472  1.00  0.00     0.172 A 
HETATM   14  C3  UNL     1      22.163   1.376  51.008  1.00  0.00     0.043 A 
HETATM   15  C2  UNL     1      22.414   0.694  52.135  1.00  0.00     0.066 A 
HETATM   16  C18 UNL     1      23.438   1.332  52.950  1.00  0.00     0.034 A 
HETATM   17  C17 UNL     1      23.957   2.426  52.509  1.00  0.00     0.004 A 
BRANCH  13  18
HETATM   18  O2  UNL     1      23.309   2.422  49.201  1.00  0.00    -0.384 OA
HETATM   19  C5  UNL     1      22.323   2.396  48.223  1.00  0.00     0.202 C 
ENDBRANCH  13  18
BRANCH  15  20
HETATM   20  O1  UNL     1      21.788  -0.482  52.509  1.00  0.00    -0.356 OA
HETATM   21  C1  UNL     1      22.165  -1.152  53.717  1.00  0.00     0.210 C 
ENDBRANCH  15  20
ENDBRANCH   1  12
BRANCH   7  22
HETATM   22  O3  UNL     1      26.703   8.908  47.889  1.00  0.00    -0.353 OA
HETATM   23  C12 UNL     1      27.105   9.940  48.771  1.00  0.00     0.210 C 
ENDBRANCH   7  22
BRANCH   8  24
HETATM   24  O4  UNL     1      29.050   7.464  47.192  1.00  0.00    -0.334 OA
BRANCH  24  25
HETATM   25  C14 UNL     1      30.409   7.290  47.458  1.00  0.00     0.290 C 
HETATM   26 CL1  UNL     1      30.823   8.328  48.860  1.00  0.00    -0.102 Cl
ENDBRANCH  24  25
ENDBRANCH   8  24
TORSDOF 6
ENDMDL
