MODEL 1
REMARK VINA RESULT:      -7.6      0.000      0.000
REMARK  6 active torsions:
REMARK  status: ('A' for Active; 'I' for Inactive)
REMARK    1  A    between atoms: C5_5  and  N1_6 
REMARK    2  A    between atoms: C6_7  and  C7_8 
REMARK    3  A    between atoms: C8_11  and  C9_12 
REMARK    4  A    between atoms: C9_12  and  C10_13 
REMARK    5  A    between atoms: C10_13  and  C11_14 
REMARK    6  A    between atoms: C11_14  and  O3_16 
ROOT
HETATM    1  C1  UNL     1      21.055   2.208  48.669  1.00  0.00     0.046 C 
HETATM    2  C2  UNL     1      22.151   1.981  49.706  1.00  0.00    -0.057 C 
HETATM    3  C3  UNL     1      23.105   2.759  49.268  1.00  0.00     0.007 C 
HETATM    4  C4  UNL     1      24.447   3.256  49.473  1.00  0.00     0.026 C 
HETATM    5  C5  UNL     1      25.510   3.172  50.286  1.00  0.00     0.023 C 
HETATM    6  C6  UNL     1      25.163   2.226  51.326  1.00  0.00     0.162 C 
HETATM    7  S1  UNL     1      26.594   1.450  52.177  1.00  0.00    -0.115 SA
HETATM    8  C8  UNL     1      25.745   0.231  53.265  1.00  0.00    -0.005 C 
HETATM    9  C12 UNL     1      24.560  -0.245  53.588  1.00  0.00     0.099 C 
HETATM   10  N2  UNL     1      23.376  -0.848  54.034  1.00  0.00    -0.375 N 
HETATM   11  C13 UNL     1      22.311  -1.196  53.114  1.00  0.00     0.332 C 
HETATM   12  O4  UNL     1      21.691  -0.186  52.472  1.00  0.00    -0.221 OA
HETATM   13  O5  UNL     1      22.333   0.599  51.689  1.00  0.00    -0.235 OA
HETATM   14  C14 UNL     1      21.577   1.026  50.628  1.00  0.00     0.244 C 
HETATM   15  H16 UNL     1      23.751  -0.817  55.002  1.00  0.00     0.161 HD
ENDROOT
BRANCH   8  16
HETATM   16  C9  UNL     1      26.881  -0.336  53.941  1.00  0.00     0.057 C 
BRANCH  16  17
HETATM   17  C10 UNL     1      28.018  -0.747  53.027  1.00  0.00     0.115 C 
BRANCH  17  18
HETATM   18  C11 UNL     1      27.984  -2.243  52.960  1.00  0.00     0.139 C 
HETATM   19  O2  UNL     1      27.057  -2.577  52.142  1.00  0.00    -0.650 OA
BRANCH  18  20
HETATM   20  O3  UNL     1      28.551  -3.431  53.434  1.00  0.00    -0.776 OA
HETATM   21  H14 UNL     1      29.561  -3.407  53.637  1.00  0.00     0.167 HD
ENDBRANCH  18  20
ENDBRANCH  17  18
ENDBRANCH  16  17
ENDBRANCH   8  16
BRANCH   6  22
HETATM   22  C7  UNL     1      24.366   2.962  52.373  1.00  0.00     0.252 C 
HETATM   23  O1  UNL     1      24.220   3.532  53.446  1.00  0.00    -0.305 OA
ENDBRANCH   6  22
BRANCH   5  24
HETATM   24  N1  UNL     1      26.814   3.647  50.502  1.00  0.00    -0.401 N 
HETATM   25  H6  UNL     1      27.273   3.834  49.562  1.00  0.00     0.156 HD
HETATM   26  H7  UNL     1      27.163   3.756  51.482  1.00  0.00     0.156 HD
ENDBRANCH   5  24
TORSDOF 6
ENDMDL
MODEL 2
REMARK VINA RESULT:      -7.4      2.367      3.130
REMARK  6 active torsions:
REMARK  status: ('A' for Active; 'I' for Inactive)
REMARK    1  A    between atoms: C5_5  and  N1_6 
REMARK    2  A    between atoms: C6_7  and  C7_8 
REMARK    3  A    between atoms: C8_11  and  C9_12 
REMARK    4  A    between atoms: C9_12  and  C10_13 
REMARK    5  A    between atoms: C10_13  and  C11_14 
REMARK    6  A    between atoms: C11_14  and  O3_16 
ROOT
HETATM    1  C1  UNL     1      19.605   0.148  52.416  1.00  0.00     0.046 C 
HETATM    2  C2  UNL     1      21.109   0.379  52.528  1.00  0.00    -0.057 C 
HETATM    3  C3  UNL     1      21.350   1.112  51.472  1.00  0.00     0.007 C 
HETATM    4  C4  UNL     1      22.343   1.817  50.693  1.00  0.00     0.026 C 
HETATM    5  C5  UNL     1      23.649   2.114  50.636  1.00  0.00     0.023 C 
HETATM    6  C6  UNL     1      24.270   1.479  51.780  1.00  0.00     0.162 C 
HETATM    7  S1  UNL     1      26.075   1.181  51.617  1.00  0.00    -0.115 SA
HETATM    8  C8  UNL     1      26.422   0.236  53.159  1.00  0.00    -0.005 C 
HETATM    9  C12 UNL     1      25.852  -0.273  54.232  1.00  0.00     0.099 C 
HETATM   10  N2  UNL     1      25.392  -0.866  55.415  1.00  0.00    -0.375 N 
HETATM   11  C13 UNL     1      24.145  -1.605  55.456  1.00  0.00     0.332 C 
HETATM   12  O4  UNL     1      23.009  -0.918  55.222  1.00  0.00    -0.221 OA
HETATM   13  O5  UNL     1      22.809  -0.321  54.107  1.00  0.00    -0.235 OA
HETATM   14  C14 UNL     1      21.491  -0.328  53.730  1.00  0.00     0.244 C 
HETATM   15  H16 UNL     1      26.236  -0.504  55.899  1.00  0.00     0.161 HD
ENDROOT
BRANCH   8  16
HETATM   16  C9  UNL     1      27.841   0.045  53.023  1.00  0.00     0.057 C 
BRANCH  16  17
HETATM   17  C10 UNL     1      28.655   0.487  54.222  1.00  0.00     0.115 C 
BRANCH  17  18
HETATM   18  C11 UNL     1      29.015   1.921  53.981  1.00  0.00     0.139 C 
HETATM   19  O2  UNL     1      29.634   2.348  55.018  1.00  0.00    -0.650 OA
BRANCH  18  20
HETATM   20  O3  UNL     1      28.945   2.993  53.085  1.00  0.00    -0.776 OA
HETATM   21  H14 UNL     1      28.167   2.973  52.408  1.00  0.00     0.167 HD
ENDBRANCH  18  20
ENDBRANCH  17  18
ENDBRANCH  16  17
ENDBRANCH   8  16
BRANCH   6  22
HETATM   22  C7  UNL     1      24.072   2.381  52.972  1.00  0.00     0.252 C 
HETATM   23  O1  UNL     1      24.390   3.285  53.733  1.00  0.00    -0.305 OA
ENDBRANCH   6  22
BRANCH   5  24
HETATM   24  N1  UNL     1      24.626   2.796  49.892  1.00  0.00    -0.401 N 
HETATM   25  H6  UNL     1      25.138   2.099  49.274  1.00  0.00     0.156 HD
HETATM   26  H7  UNL     1      24.735   3.829  50.018  1.00  0.00     0.156 HD
ENDBRANCH   5  24
TORSDOF 6
ENDMDL
MODEL 3
REMARK VINA RESULT:      -6.9      3.038      5.507
REMARK  6 active torsions:
REMARK  status: ('A' for Active; 'I' for Inactive)
REMARK    1  A    between atoms: C5_5  and  N1_6 
REMARK    2  A    between atoms: C6_7  and  C7_8 
REMARK    3  A    between atoms: C8_11  and  C9_12 
REMARK    4  A    between atoms: C9_12  and  C10_13 
REMARK    5  A    between atoms: C10_13  and  C11_14 
REMARK    6  A    between atoms: C11_14  and  O3_16 
ROOT
HETATM    1  C1  UNL     1      21.938  -1.450  54.145  1.00  0.00     0.046 C 
HETATM    2  C2  UNL     1      22.671  -0.344  53.391  1.00  0.00    -0.057 C 
HETATM    3  C3  UNL     1      21.701   0.212  52.714  1.00  0.00     0.007 C 
HETATM    4  C4  UNL     1      21.322   1.243  51.774  1.00  0.00     0.026 C 
HETATM    5  C5  UNL     1      21.804   2.254  51.038  1.00  0.00     0.023 C 
HETATM    6  C6  UNL     1      23.229   2.307  51.289  1.00  0.00     0.162 C 
HETATM    7  S1  UNL     1      24.217   3.137  49.982  1.00  0.00    -0.115 SA
HETATM    8  C8  UNL     1      25.931   2.843  50.589  1.00  0.00    -0.005 C 
HETATM    9  C12 UNL     1      26.623   2.266  51.549  1.00  0.00     0.099 C 
HETATM   10  N2  UNL     1      27.491   1.706  52.497  1.00  0.00    -0.375 N 
HETATM   11  C13 UNL     1      27.262   0.382  53.042  1.00  0.00     0.332 C 
HETATM   12  O4  UNL     1      26.150   0.199  53.782  1.00  0.00    -0.221 OA
HETATM   13  O5  UNL     1      24.983   0.374  53.284  1.00  0.00    -0.235 OA
HETATM   14  C14 UNL     1      24.049  -0.483  53.805  1.00  0.00     0.244 C 
HETATM   15  H16 UNL     1      28.061   2.572  52.455  1.00  0.00     0.161 HD
ENDROOT
BRANCH   8  16
HETATM   16  C9  UNL     1      26.679   3.529  49.569  1.00  0.00     0.057 C 
BRANCH  16  17
HETATM   17  C10 UNL     1      26.205   4.939  49.280  1.00  0.00     0.115 C 
BRANCH  17  18
HETATM   18  C11 UNL     1      27.330   5.623  48.566  1.00  0.00     0.139 C 
HETATM   19  O2  UNL     1      28.330   4.823  48.555  1.00  0.00    -0.650 OA
BRANCH  18  20
HETATM   20  O3  UNL     1      27.739   6.788  47.908  1.00  0.00    -0.776 OA
HETATM   21  H14 UNL     1      27.296   6.978  46.997  1.00  0.00     0.167 HD
ENDBRANCH  18  20
ENDBRANCH  17  18
ENDBRANCH  16  17
ENDBRANCH   8  16
BRANCH   6  22
HETATM   22  C7  UNL     1      23.444   3.077  52.568  1.00  0.00     0.252 C 
HETATM   23  O1  UNL     1      23.797   4.051  53.221  1.00  0.00    -0.305 OA
ENDBRANCH   6  22
BRANCH   5  24
HETATM   24  N1  UNL     1      21.453   3.263  50.127  1.00  0.00    -0.401 N 
HETATM   25  H6  UNL     1      20.433   3.524  50.277  1.00  0.00     0.156 HD
HETATM   26  H7  UNL     1      22.172   3.619  49.455  1.00  0.00     0.156 HD
ENDBRANCH   5  24
TORSDOF 6
ENDMDL
MODEL 4
REMARK VINA RESULT:      -6.8      2.769      3.622
REMARK  6 active torsions:
REMARK  status: ('A' for Active; 'I' for Inactive)
REMARK    1  A    between atoms: C5_5  and  N1_6 
REMARK    2  A    between atoms: C6_7  and  C7_8 
REMARK    3  A    between atoms: C8_11  and  C9_12 
REMARK    4  A    between atoms: C9_12  and  C10_13 
REMARK    5  A    between atoms: C10_13  and  C11_14 
REMARK    6  A    between atoms: C11_14  and  O3_16 
ROOT
HETATM    1  C1  UNL     1      17.064   0.003  50.240  1.00  0.00     0.046 C 
HETATM    2  C2  UNL     1      18.448   0.409  50.738  1.00  0.00    -0.057 C 
HETATM    3  C3  UNL     1      18.830   1.256  49.819  1.00  0.00     0.007 C 
HETATM    4  C4  UNL     1      19.871   2.144  49.355  1.00  0.00     0.026 C 
HETATM    5  C5  UNL     1      21.097   2.605  49.644  1.00  0.00     0.023 C 
HETATM    6  C6  UNL     1      21.507   1.953  50.870  1.00  0.00     0.162 C 
HETATM    7  S1  UNL     1      23.321   1.896  51.149  1.00  0.00    -0.115 SA
HETATM    8  C8  UNL     1      23.416   0.868  52.675  1.00  0.00    -0.005 C 
HETATM    9  C12 UNL     1      22.683   0.200  53.540  1.00  0.00     0.099 C 
HETATM   10  N2  UNL     1      22.039  -0.549  54.535  1.00  0.00    -0.375 N 
HETATM   11  C13 UNL     1      20.938  -1.437  54.220  1.00  0.00     0.332 C 
HETATM   12  O4  UNL     1      19.806  -0.878  53.748  1.00  0.00    -0.221 OA
HETATM   13  O5  UNL     1      19.799  -0.214  52.652  1.00  0.00    -0.235 OA
HETATM   14  C14 UNL     1      18.625  -0.350  51.956  1.00  0.00     0.244 C 
HETATM   15  H16 UNL     1      22.681  -0.129  55.235  1.00  0.00     0.161 HD
ENDROOT
BRANCH   8  16
HETATM   16  C9  UNL     1      24.839   0.868  52.889  1.00  0.00     0.057 C 
BRANCH  16  17
HETATM   17  C10 UNL     1      25.389  -0.422  53.462  1.00  0.00     0.115 C 
BRANCH  17  18
HETATM   18  C11 UNL     1      26.246  -0.033  54.628  1.00  0.00     0.139 C 
HETATM   19  O2  UNL     1      25.842  -0.695  55.648  1.00  0.00    -0.650 OA
BRANCH  18  20
HETATM   20  O3  UNL     1      27.307   0.767  55.062  1.00  0.00    -0.776 OA
HETATM   21  H14 UNL     1      28.100   0.276  55.502  1.00  0.00     0.167 HD
ENDBRANCH  18  20
ENDBRANCH  17  18
ENDBRANCH  16  17
ENDBRANCH   8  16
BRANCH   6  22
HETATM   22  C7  UNL     1      20.902   2.714  52.022  1.00  0.00     0.252 C 
HETATM   23  O1  UNL     1      20.015   2.977  52.823  1.00  0.00    -0.305 OA
ENDBRANCH   6  22
BRANCH   5  24
HETATM   24  N1  UNL     1      22.118   3.466  49.208  1.00  0.00    -0.401 N 
HETATM   25  H6  UNL     1      23.055   2.982  49.336  1.00  0.00     0.156 HD
HETATM   26  H7  UNL     1      21.866   4.411  48.837  1.00  0.00     0.156 HD
ENDBRANCH   5  24
TORSDOF 6
ENDMDL
MODEL 5
REMARK VINA RESULT:      -6.6      3.242      4.735
REMARK  6 active torsions:
REMARK  status: ('A' for Active; 'I' for Inactive)
REMARK    1  A    between atoms: C5_5  and  N1_6 
REMARK    2  A    between atoms: C6_7  and  C7_8 
REMARK    3  A    between atoms: C8_11  and  C9_12 
REMARK    4  A    between atoms: C9_12  and  C10_13 
REMARK    5  A    between atoms: C10_13  and  C11_14 
REMARK    6  A    between atoms: C11_14  and  O3_16 
ROOT
HETATM    1  C1  UNL     1      17.098  -1.648  52.843  1.00  0.00     0.046 C 
HETATM    2  C2  UNL     1      18.395  -0.877  52.611  1.00  0.00    -0.057 C 
HETATM    3  C3  UNL     1      18.119  -0.202  51.527  1.00  0.00     0.007 C 
HETATM    4  C4  UNL     1      18.592   0.745  50.542  1.00  0.00     0.026 C 
HETATM    5  C5  UNL     1      19.650   1.490  50.191  1.00  0.00     0.023 C 
HETATM    6  C6  UNL     1      20.686   1.225  51.166  1.00  0.00     0.162 C 
HETATM    7  S1  UNL     1      22.395   1.590  50.601  1.00  0.00    -0.115 SA
HETATM    8  C8  UNL     1      23.383   0.973  52.027  1.00  0.00    -0.005 C 
HETATM    9  C12 UNL     1      23.282   0.386  53.202  1.00  0.00     0.099 C 
HETATM   10  N2  UNL     1      23.334  -0.229  54.461  1.00  0.00    -0.375 N 
HETATM   11  C13 UNL     1      22.491  -1.363  54.783  1.00  0.00     0.332 C 
HETATM   12  O4  UNL     1      21.159  -1.158  54.811  1.00  0.00    -0.221 OA
HETATM   13  O5  UNL     1      20.523  -0.774  53.767  1.00  0.00    -0.235 OA
HETATM   14  C14 UNL     1      19.255  -1.291  53.697  1.00  0.00     0.244 C 
HETATM   15  H16 UNL     1      24.063   0.455  54.740  1.00  0.00     0.161 HD
ENDROOT
BRANCH   8  16
HETATM   16  C9  UNL     1      24.709   1.299  51.574  1.00  0.00     0.057 C 
BRANCH  16  17
HETATM   17  C10 UNL     1      25.656   1.749  52.669  1.00  0.00     0.115 C 
BRANCH  17  18
HETATM   18  C11 UNL     1      26.803   2.423  51.981  1.00  0.00     0.139 C 
HETATM   19  O2  UNL     1      27.884   2.020  52.538  1.00  0.00    -0.650 OA
BRANCH  18  20
HETATM   20  O3  UNL     1      27.179   3.324  50.979  1.00  0.00    -0.776 OA
HETATM   21  H14 UNL     1      28.012   3.071  50.426  1.00  0.00     0.167 HD
ENDBRANCH  18  20
ENDBRANCH  17  18
ENDBRANCH  16  17
ENDBRANCH   8  16
BRANCH   6  22
HETATM   22  C7  UNL     1      20.420   2.094  52.370  1.00  0.00     0.252 C 
HETATM   23  O1  UNL     1      20.094   3.134  52.927  1.00  0.00    -0.305 OA
ENDBRANCH   6  22
BRANCH   5  24
HETATM   24  N1  UNL     1      20.123   2.414  49.244  1.00  0.00    -0.401 N 
HETATM   25  H6  UNL     1      19.295   2.840  48.733  1.00  0.00     0.156 HD
HETATM   26  H7  UNL     1      21.154   2.568  49.152  1.00  0.00     0.156 HD
ENDBRANCH   5  24
TORSDOF 6
ENDMDL
MODEL 6
REMARK VINA RESULT:      -6.6      2.951      6.940
REMARK  6 active torsions:
REMARK  status: ('A' for Active; 'I' for Inactive)
REMARK    1  A    between atoms: C5_5  and  N1_6 
REMARK    2  A    between atoms: C6_7  and  C7_8 
REMARK    3  A    between atoms: C8_11  and  C9_12 
REMARK    4  A    between atoms: C9_12  and  C10_13 
REMARK    5  A    between atoms: C10_13  and  C11_14 
REMARK    6  A    between atoms: C11_14  and  O3_16 
ROOT
HETATM    1  C1  UNL     1      27.570  -0.405  53.378  1.00  0.00     0.046 C 
HETATM    2  C2  UNL     1      26.440   0.381  52.719  1.00  0.00    -0.057 C 
HETATM    3  C3  UNL     1      25.381  -0.244  53.162  1.00  0.00     0.007 C 
HETATM    4  C4  UNL     1      23.937  -0.321  53.162  1.00  0.00     0.026 C 
HETATM    5  C5  UNL     1      22.832   0.253  52.666  1.00  0.00     0.023 C 
HETATM    6  C6  UNL     1      23.274   1.340  51.817  1.00  0.00     0.162 C 
HETATM    7  S1  UNL     1      22.061   1.873  50.545  1.00  0.00    -0.115 SA
HETATM    8  C8  UNL     1      23.050   3.111  49.605  1.00  0.00    -0.005 C 
HETATM    9  C12 UNL     1      24.239   3.671  49.532  1.00  0.00     0.099 C 
HETATM   10  N2  UNL     1      25.448   4.352  49.332  1.00  0.00    -0.375 N 
HETATM   11  C13 UNL     1      26.724   3.672  49.430  1.00  0.00     0.332 C 
HETATM   12  O4  UNL     1      27.071   3.176  50.635  1.00  0.00    -0.221 OA
HETATM   13  O5  UNL     1      26.363   2.279  51.214  1.00  0.00    -0.235 OA
HETATM   14  C14 UNL     1      27.117   1.399  51.947  1.00  0.00     0.244 C 
HETATM   15  H16 UNL     1      24.905   5.221  49.162  1.00  0.00     0.161 HD
ENDROOT
BRANCH   8  16
HETATM   16  C9  UNL     1      22.070   3.534  48.640  1.00  0.00     0.057 C 
BRANCH  16  17
HETATM   17  C10 UNL     1      21.976   2.655  47.410  1.00  0.00     0.115 C 
BRANCH  17  18
HETATM   18  C11 UNL     1      21.950   3.580  46.232  1.00  0.00     0.139 C 
HETATM   19  O2  UNL     1      21.977   4.781  46.678  1.00  0.00    -0.650 OA
BRANCH  18  20
HETATM   20  O3  UNL     1      21.902   3.670  44.837  1.00  0.00    -0.776 OA
HETATM   21  H14 UNL     1      22.564   3.073  44.317  1.00  0.00     0.167 HD
ENDBRANCH  18  20
ENDBRANCH  17  18
ENDBRANCH  16  17
ENDBRANCH   8  16
BRANCH   6  22
HETATM   22  C7  UNL     1      23.549   2.531  52.699  1.00  0.00     0.252 C 
HETATM   23  O1  UNL     1      24.253   3.234  53.412  1.00  0.00    -0.305 OA
ENDBRANCH   6  22
BRANCH   5  24
HETATM   24  N1  UNL     1      21.429   0.194  52.657  1.00  0.00    -0.401 N 
HETATM   25  H6  UNL     1      21.126  -0.811  52.492  1.00  0.00     0.156 HD
HETATM   26  H7  UNL     1      20.879   1.073  52.802  1.00  0.00     0.156 HD
ENDBRANCH   5  24
TORSDOF 6
ENDMDL
MODEL 7
REMARK VINA RESULT:      -6.5      3.316      5.781
REMARK  6 active torsions:
REMARK  status: ('A' for Active; 'I' for Inactive)
REMARK    1  A    between atoms: C5_5  and  N1_6 
REMARK    2  A    between atoms: C6_7  and  C7_8 
REMARK    3  A    between atoms: C8_11  and  C9_12 
REMARK    4  A    between atoms: C9_12  and  C10_13 
REMARK    5  A    between atoms: C10_13  and  C11_14 
REMARK    6  A    between atoms: C11_14  and  O3_16 
ROOT
HETATM    1  C1  UNL     1      26.752   3.901  49.332  1.00  0.00     0.046 C 
HETATM    2  C2  UNL     1      25.722   3.234  50.239  1.00  0.00    -0.057 C 
HETATM    3  C3  UNL     1      26.411   2.252  50.757  1.00  0.00     0.007 C 
HETATM    4  C4  UNL     1      26.409   1.117  51.652  1.00  0.00     0.026 C 
HETATM    5  C5  UNL     1      25.635   0.413  52.489  1.00  0.00     0.023 C 
HETATM    6  C6  UNL     1      24.326   1.031  52.465  1.00  0.00     0.162 C 
HETATM    7  S1  UNL     1      22.944  -0.057  52.992  1.00  0.00    -0.115 SA
HETATM    8  C8  UNL     1      21.491   1.026  52.660  1.00  0.00    -0.005 C 
HETATM    9  C12 UNL     1      21.143   2.205  52.190  1.00  0.00     0.099 C 
HETATM   10  N2  UNL     1      20.622   3.419  51.720  1.00  0.00    -0.375 N 
HETATM   11  C13 UNL     1      21.141   4.052  50.523  1.00  0.00     0.332 C 
HETATM   12  O4  UNL     1      22.419   4.480  50.552  1.00  0.00    -0.221 OA
HETATM   13  O5  UNL     1      23.390   3.665  50.740  1.00  0.00    -0.235 OA
HETATM   14  C14 UNL     1      24.523   4.022  50.056  1.00  0.00     0.244 C 
HETATM   15  H16 UNL     1      19.960   3.419  52.519  1.00  0.00     0.161 HD
ENDROOT
BRANCH   8  16
HETATM   16  C9  UNL     1      20.429   0.166  53.110  1.00  0.00     0.057 C 
BRANCH  16  17
HETATM   17  C10 UNL     1      19.268   0.040  52.145  1.00  0.00     0.115 C 
BRANCH  17  18
HETATM   18  C11 UNL     1      18.221  -0.769  52.848  1.00  0.00     0.139 C 
HETATM   19  O2  UNL     1      17.381  -1.171  51.969  1.00  0.00    -0.650 OA
BRANCH  18  20
HETATM   20  O3  UNL     1      17.781  -1.262  54.081  1.00  0.00    -0.776 OA
HETATM   21  H14 UNL     1      16.796  -1.072  54.324  1.00  0.00     0.167 HD
ENDBRANCH  18  20
ENDBRANCH  17  18
ENDBRANCH  16  17
ENDBRANCH   8  16
BRANCH   6  22
HETATM   22  C7  UNL     1      24.354   2.206  53.410  1.00  0.00     0.252 C 
HETATM   23  O1  UNL     1      24.764   3.288  53.810  1.00  0.00    -0.305 OA
ENDBRANCH   6  22
BRANCH   5  24
HETATM   24  N1  UNL     1      25.617  -0.686  53.365  1.00  0.00    -0.401 N 
HETATM   25  H6  UNL     1      26.009  -1.535  52.861  1.00  0.00     0.156 HD
HETATM   26  H7  UNL     1      25.249  -0.559  54.336  1.00  0.00     0.156 HD
ENDBRANCH   5  24
TORSDOF 6
ENDMDL
MODEL 8
REMARK VINA RESULT:      -6.4      2.446      2.827
REMARK  6 active torsions:
REMARK  status: ('A' for Active; 'I' for Inactive)
REMARK    1  A    between atoms: C5_5  and  N1_6 
REMARK    2  A    between atoms: C6_7  and  C7_8 
REMARK    3  A    between atoms: C8_11  and  C9_12 
REMARK    4  A    between atoms: C9_12  and  C10_13 
REMARK    5  A    between atoms: C10_13  and  C11_14 
REMARK    6  A    between atoms: C11_14  and  O3_16 
ROOT
HETATM    1  C1  UNL     1      20.346   4.159  48.106  1.00  0.00     0.046 C 
HETATM    2  C2  UNL     1      21.564   3.828  48.963  1.00  0.00    -0.057 C 
HETATM    3  C3  UNL     1      22.460   4.656  48.493  1.00  0.00     0.007 C 
HETATM    4  C4  UNL     1      23.821   5.137  48.577  1.00  0.00     0.026 C 
HETATM    5  C5  UNL     1      24.978   4.972  49.233  1.00  0.00     0.023 C 
HETATM    6  C6  UNL     1      24.761   3.917  50.200  1.00  0.00     0.162 C 
HETATM    7  S1  UNL     1      26.283   3.064  50.773  1.00  0.00    -0.115 SA
HETATM    8  C8  UNL     1      25.571   1.729  51.823  1.00  0.00    -0.005 C 
HETATM    9  C12 UNL     1      24.434   1.213  52.242  1.00  0.00     0.099 C 
HETATM   10  N2  UNL     1      23.312   0.558  52.769  1.00  0.00    -0.375 N 
HETATM   11  C13 UNL     1      22.136   0.304  51.960  1.00  0.00     0.332 C 
HETATM   12  O4  UNL     1      21.446   1.373  51.515  1.00  0.00    -0.221 OA
HETATM   13  O5  UNL     1      21.988   2.243  50.746  1.00  0.00    -0.235 OA
HETATM   14  C14 UNL     1      21.106   2.776  49.843  1.00  0.00     0.244 C 
HETATM   15  H16 UNL     1      23.808   0.486  53.678  1.00  0.00     0.161 HD
ENDROOT
BRANCH   8  16
HETATM   16  C9  UNL     1      26.780   1.099  52.283  1.00  0.00     0.057 C 
BRANCH  16  17
HETATM   17  C10 UNL     1      27.136   1.398  53.725  1.00  0.00     0.115 C 
BRANCH  17  18
HETATM   18  C11 UNL     1      28.442   2.132  53.693  1.00  0.00     0.139 C 
HETATM   19  O2  UNL     1      29.082   1.839  54.763  1.00  0.00    -0.650 OA
BRANCH  18  20
HETATM   20  O3  UNL     1      29.250   3.016  52.971  1.00  0.00    -0.776 OA
HETATM   21  H14 UNL     1      28.810   3.903  52.679  1.00  0.00     0.167 HD
ENDBRANCH  18  20
ENDBRANCH  17  18
ENDBRANCH  16  17
ENDBRANCH   8  16
BRANCH   6  22
HETATM   22  C7  UNL     1      24.110   4.531  51.414  1.00  0.00     0.252 C 
HETATM   23  O1  UNL     1      23.731   5.468  52.105  1.00  0.00    -0.305 OA
ENDBRANCH   6  22
BRANCH   5  24
HETATM   24  N1  UNL     1      26.303   5.429  49.330  1.00  0.00    -0.401 N 
HETATM   25  H6  UNL     1      26.961   4.640  49.060  1.00  0.00     0.156 HD
HETATM   26  H7  UNL     1      26.483   6.415  49.631  1.00  0.00     0.156 HD
ENDBRANCH   5  24
TORSDOF 6
ENDMDL
MODEL 9
REMARK VINA RESULT:      -6.2      3.595      6.559
REMARK  6 active torsions:
REMARK  status: ('A' for Active; 'I' for Inactive)
REMARK    1  A    between atoms: C5_5  and  N1_6 
REMARK    2  A    between atoms: C6_7  and  C7_8 
REMARK    3  A    between atoms: C8_11  and  C9_12 
REMARK    4  A    between atoms: C9_12  and  C10_13 
REMARK    5  A    between atoms: C10_13  and  C11_14 
REMARK    6  A    between atoms: C11_14  and  O3_16 
ROOT
HETATM    1  C1  UNL     1      21.398  -1.656  54.111  1.00  0.00     0.046 C 
HETATM    2  C2  UNL     1      21.634  -0.310  53.430  1.00  0.00    -0.057 C 
HETATM    3  C3  UNL     1      22.911  -0.122  53.638  1.00  0.00     0.007 C 
HETATM    4  C4  UNL     1      24.051   0.745  53.441  1.00  0.00     0.026 C 
HETATM    5  C5  UNL     1      24.431   1.911  52.898  1.00  0.00     0.023 C 
HETATM    6  C6  UNL     1      23.248   2.499  52.306  1.00  0.00     0.162 C 
HETATM    7  S1  UNL     1      23.322   4.318  52.067  1.00  0.00    -0.115 SA
HETATM    8  C8  UNL     1      21.614   4.670  51.473  1.00  0.00    -0.005 C 
HETATM    9  C12 UNL     1      20.455   4.106  51.210  1.00  0.00     0.099 C 
HETATM   10  N2  UNL     1      19.168   3.650  50.888  1.00  0.00    -0.375 N 
HETATM   11  C13 UNL     1      18.488   2.666  51.707  1.00  0.00     0.332 C 
HETATM   12  O4  UNL     1      19.032   1.434  51.776  1.00  0.00    -0.221 OA
HETATM   13  O5  UNL     1      20.209   1.252  52.246  1.00  0.00    -0.235 OA
HETATM   14  C14 UNL     1      20.336   0.062  52.915  1.00  0.00     0.244 C 
HETATM   15  H16 UNL     1      19.177   4.276  50.060  1.00  0.00     0.161 HD
ENDROOT
BRANCH   8  16
HETATM   16  C9  UNL     1      21.710   6.090  51.263  1.00  0.00     0.057 C 
BRANCH  16  17
HETATM   17  C10 UNL     1      22.521   6.495  50.048  1.00  0.00     0.115 C 
BRANCH  17  18
HETATM   18  C11 UNL     1      23.447   7.582  50.503  1.00  0.00     0.139 C 
HETATM   19  O2  UNL     1      23.507   8.459  49.572  1.00  0.00    -0.650 OA
BRANCH  18  20
HETATM   20  O3  UNL     1      24.282   8.029  51.532  1.00  0.00    -0.776 OA
HETATM   21  H14 UNL     1      25.075   8.625  51.251  1.00  0.00     0.167 HD
ENDBRANCH  18  20
ENDBRANCH  17  18
ENDBRANCH  16  17
ENDBRANCH   8  16
BRANCH   6  22
HETATM   22  C7  UNL     1      23.056   1.878  50.945  1.00  0.00     0.252 C 
HETATM   23  O1  UNL     1      22.386   1.465  50.008  1.00  0.00    -0.305 OA
ENDBRANCH   6  22
BRANCH   5  24
HETATM   24  N1  UNL     1      25.528   2.764  52.695  1.00  0.00    -0.401 N 
HETATM   25  H6  UNL     1      26.159   2.724  53.550  1.00  0.00     0.156 HD
HETATM   26  H7  UNL     1      25.600   3.300  51.800  1.00  0.00     0.156 HD
ENDBRANCH   5  24
TORSDOF 6
ENDMDL
