MODEL 1
REMARK VINA RESULT:      -7.9      0.000      0.000
REMARK  5 active torsions:
REMARK  status: ('A' for Active; 'I' for Inactive)
REMARK    1  A    between atoms: C2_2  and  C3_3 
REMARK    2  A    between atoms: C3_3  and  N1_4 
REMARK       I    between atoms: N1_4  and  C4_5 
REMARK    3  A    between atoms: N1_4  and  C11_14 
REMARK       I    between atoms: C4_5  and  N2_7 
REMARK    4  A    between atoms: N2_7  and  C5_8 
REMARK    5  A    between atoms: C16_21  and  O2_22 
ROOT
HETATM    1  N1  UNL     1      23.412   0.912  53.011  1.00  0.00    -0.297 N 
HETATM    2  C4  UNL     1      24.637   0.308  53.402  1.00  0.00     0.327 C 
HETATM    3  O1  UNL     1      24.633  -0.546  54.323  1.00  0.00    -0.246 OA
HETATM    4  N2  UNL     1      25.890   0.611  52.810  1.00  0.00    -0.309 N 
HETATM    5  H8  UNL     1      25.780   1.338  52.050  1.00  0.00     0.170 HD
ENDROOT
BRANCH   1   6
HETATM    6  C3  UNL     1      22.187   0.560  53.646  1.00  0.00     0.134 C 
BRANCH   6   7
HETATM    7  C2  UNL     1      21.580  -0.740  53.193  1.00  0.00     0.016 C 
HETATM    8  C1  UNL     1      21.268  -1.558  54.446  1.00  0.00     0.006 C 
ENDBRANCH   6   7
ENDBRANCH   1   6
BRANCH   1   9
HETATM    9  C11 UNL     1      23.433   1.877  51.966  1.00  0.00     0.075 A 
HETATM   10  C12 UNL     1      22.818   1.355  50.831  1.00  0.00     0.056 A 
HETATM   11  C13 UNL     1      22.707   2.110  49.658  1.00  0.00     0.038 A 
HETATM   12 CL1  UNL     1      21.950   1.521  48.200  1.00  0.00    -0.084 Cl
HETATM   13  C14 UNL     1      23.224   3.389  49.652  1.00  0.00     0.050 A 
HETATM   14  C15 UNL     1      23.831   3.900  50.780  1.00  0.00     0.071 A 
HETATM   15 CL2  UNL     1      24.505   5.506  50.842  1.00  0.00    -0.081 Cl
HETATM   16  C16 UNL     1      23.938   3.154  51.932  1.00  0.00     0.114 A 
BRANCH  16  17
HETATM   17  O2  UNL     1      24.519   3.532  53.134  1.00  0.00    -0.357 OA
HETATM   18  H16 UNL     1      25.544   3.587  53.111  1.00  0.00     0.218 HD
ENDBRANCH  16  17
ENDBRANCH   1   9
BRANCH   4  19
HETATM   19  C5  UNL     1      27.177   0.121  53.066  1.00  0.00     0.036 A 
HETATM   20  C6  UNL     1      28.151   0.969  53.525  1.00  0.00     0.029 A 
HETATM   21  C7  UNL     1      29.425   0.571  53.798  1.00  0.00     0.002 A 
HETATM   22  C8  UNL     1      29.814  -0.736  53.623  1.00  0.00     0.000 A 
HETATM   23  C9  UNL     1      28.873  -1.632  53.162  1.00  0.00     0.002 A 
HETATM   24  C10 UNL     1      27.610  -1.173  52.906  1.00  0.00     0.029 A 
ENDBRANCH   4  19
TORSDOF 5
ENDMDL
MODEL 2
REMARK VINA RESULT:      -7.2      1.953      3.637
REMARK  5 active torsions:
REMARK  status: ('A' for Active; 'I' for Inactive)
REMARK    1  A    between atoms: C2_2  and  C3_3 
REMARK    2  A    between atoms: C3_3  and  N1_4 
REMARK       I    between atoms: N1_4  and  C4_5 
REMARK    3  A    between atoms: N1_4  and  C11_14 
REMARK       I    between atoms: C4_5  and  N2_7 
REMARK    4  A    between atoms: N2_7  and  C5_8 
REMARK    5  A    between atoms: C16_21  and  O2_22 
ROOT
HETATM    1  N1  UNL     1      24.241   2.474  52.830  1.00  0.00    -0.297 N 
HETATM    2  C4  UNL     1      25.460   1.795  53.093  1.00  0.00     0.327 C 
HETATM    3  O1  UNL     1      26.373   2.392  53.715  1.00  0.00    -0.246 OA
HETATM    4  N2  UNL     1      25.720   0.458  52.694  1.00  0.00    -0.309 N 
HETATM    5  H8  UNL     1      24.890   0.052  52.181  1.00  0.00     0.170 HD
ENDROOT
BRANCH   1   6
HETATM    6  C3  UNL     1      24.044   3.817  53.261  1.00  0.00     0.134 C 
BRANCH   6   7
HETATM    7  C2  UNL     1      22.927   4.554  52.573  1.00  0.00     0.016 C 
HETATM    8  C1  UNL     1      23.566   5.614  51.676  1.00  0.00     0.006 C 
ENDBRANCH   6   7
ENDBRANCH   1   6
BRANCH   1   9
HETATM    9  C11 UNL     1      23.216   1.785  52.125  1.00  0.00     0.075 A 
HETATM   10  C12 UNL     1      22.425   1.071  53.022  1.00  0.00     0.056 A 
HETATM   11  C13 UNL     1      21.342   0.305  52.579  1.00  0.00     0.038 A 
HETATM   12 CL1  UNL     1      20.309  -0.613  53.645  1.00  0.00    -0.084 Cl
HETATM   13  C14 UNL     1      21.075   0.271  51.225  1.00  0.00     0.050 A 
HETATM   14  C15 UNL     1      21.862   0.979  50.343  1.00  0.00     0.071 A 
HETATM   15 CL2  UNL     1      21.581   0.981  48.623  1.00  0.00    -0.081 Cl
HETATM   16  C16 UNL     1      22.926   1.733  50.783  1.00  0.00     0.114 A 
BRANCH  16  17
HETATM   17  O2  UNL     1      23.801   2.492  50.017  1.00  0.00    -0.357 OA
HETATM   18  H16 UNL     1      23.506   3.464  49.875  1.00  0.00     0.218 HD
ENDBRANCH  16  17
ENDBRANCH   1   9
BRANCH   4  19
HETATM   19  C5  UNL     1      26.847  -0.356  52.867  1.00  0.00     0.036 A 
HETATM   20  C6  UNL     1      26.764  -1.698  52.605  1.00  0.00     0.029 A 
HETATM   21  C7  UNL     1      27.813  -2.557  52.747  1.00  0.00     0.002 A 
HETATM   22  C8  UNL     1      29.042  -2.112  53.174  1.00  0.00     0.000 A 
HETATM   23  C9  UNL     1      29.180  -0.769  53.452  1.00  0.00     0.002 A 
HETATM   24  C10 UNL     1      28.091   0.043  53.289  1.00  0.00     0.029 A 
ENDBRANCH   4  19
TORSDOF 5
ENDMDL
MODEL 3
REMARK VINA RESULT:      -7.2      3.037      4.063
REMARK  5 active torsions:
REMARK  status: ('A' for Active; 'I' for Inactive)
REMARK    1  A    between atoms: C2_2  and  C3_3 
REMARK    2  A    between atoms: C3_3  and  N1_4 
REMARK       I    between atoms: N1_4  and  C4_5 
REMARK    3  A    between atoms: N1_4  and  C11_14 
REMARK       I    between atoms: C4_5  and  N2_7 
REMARK    4  A    between atoms: N2_7  and  C5_8 
REMARK    5  A    between atoms: C16_21  and  O2_22 
ROOT
HETATM    1  N1  UNL     1      24.496   3.130  50.622  1.00  0.00    -0.297 N 
HETATM    2  C4  UNL     1      25.235   2.255  51.463  1.00  0.00     0.327 C 
HETATM    3  O1  UNL     1      24.696   1.196  51.869  1.00  0.00    -0.246 OA
HETATM    4  N2  UNL     1      26.568   2.502  51.881  1.00  0.00    -0.309 N 
HETATM    5  H8  UNL     1      26.922   3.416  51.484  1.00  0.00     0.170 HD
ENDROOT
BRANCH   1   6
HETATM    6  C3  UNL     1      23.161   2.820  50.237  1.00  0.00     0.134 C 
BRANCH   6   7
HETATM    7  C2  UNL     1      22.956   2.584  48.765  1.00  0.00     0.016 C 
HETATM    8  C1  UNL     1      21.863   1.525  48.621  1.00  0.00     0.006 C 
ENDBRANCH   6   7
ENDBRANCH   1   6
BRANCH   1   9
HETATM    9  C11 UNL     1      25.120   4.325  50.169  1.00  0.00     0.075 A 
HETATM   10  C12 UNL     1      24.393   5.430  50.608  1.00  0.00     0.056 A 
HETATM   11  C13 UNL     1      24.800   6.732  50.295  1.00  0.00     0.038 A 
HETATM   12 CL1  UNL     1      23.940   8.160  50.810  1.00  0.00    -0.084 Cl
HETATM   13  C14 UNL     1      25.941   6.897  49.537  1.00  0.00     0.050 A 
HETATM   14  C15 UNL     1      26.655   5.799  49.107  1.00  0.00     0.071 A 
HETATM   15 CL2  UNL     1      28.104   5.935  48.148  1.00  0.00    -0.081 Cl
HETATM   16  C16 UNL     1      26.253   4.520  49.417  1.00  0.00     0.114 A 
BRANCH  16  17
HETATM   17  O2  UNL     1      26.865   3.328  49.055  1.00  0.00    -0.357 OA
HETATM   18  H16 UNL     1      26.836   3.124  48.050  1.00  0.00     0.218 HD
ENDBRANCH  16  17
ENDBRANCH   1   9
BRANCH   4  19
HETATM   19  C5  UNL     1      27.434   1.761  52.696  1.00  0.00     0.036 A 
HETATM   20  C6  UNL     1      27.408   0.392  52.649  1.00  0.00     0.029 A 
HETATM   21  C7  UNL     1      28.217  -0.400  53.408  1.00  0.00     0.002 A 
HETATM   22  C8  UNL     1      29.125   0.145  54.284  1.00  0.00     0.000 A 
HETATM   23  C9  UNL     1      29.192   1.519  54.371  1.00  0.00     0.002 A 
HETATM   24  C10 UNL     1      28.355   2.261  53.583  1.00  0.00     0.029 A 
ENDBRANCH   4  19
TORSDOF 5
ENDMDL
MODEL 4
REMARK VINA RESULT:      -7.2      1.410      2.652
REMARK  5 active torsions:
REMARK  status: ('A' for Active; 'I' for Inactive)
REMARK    1  A    between atoms: C2_2  and  C3_3 
REMARK    2  A    between atoms: C3_3  and  N1_4 
REMARK       I    between atoms: N1_4  and  C4_5 
REMARK    3  A    between atoms: N1_4  and  C11_14 
REMARK       I    between atoms: C4_5  and  N2_7 
REMARK    4  A    between atoms: N2_7  and  C5_8 
REMARK    5  A    between atoms: C16_21  and  O2_22 
ROOT
HETATM    1  N1  UNL     1      22.657   0.514  53.289  1.00  0.00    -0.297 N 
HETATM    2  C4  UNL     1      23.892  -0.114  53.599  1.00  0.00     0.327 C 
HETATM    3  O1  UNL     1      23.961  -0.869  54.600  1.00  0.00    -0.246 OA
HETATM    4  N2  UNL     1      25.076   0.056  52.836  1.00  0.00    -0.309 N 
HETATM    5  H8  UNL     1      24.907   0.707  52.021  1.00  0.00     0.170 HD
ENDROOT
BRANCH   1   6
HETATM    6  C3  UNL     1      21.503   0.298  54.096  1.00  0.00     0.134 C 
BRANCH   6   7
HETATM    7  C2  UNL     1      20.766  -0.986  53.831  1.00  0.00     0.016 C 
HETATM    8  C1  UNL     1      19.374  -0.616  53.321  1.00  0.00     0.006 C 
ENDBRANCH   6   7
ENDBRANCH   1   6
BRANCH   1   9
HETATM    9  C11 UNL     1      22.593   1.366  52.152  1.00  0.00     0.075 A 
HETATM   10  C12 UNL     1      23.068   2.632  52.485  1.00  0.00     0.056 A 
HETATM   11  C13 UNL     1      23.111   3.660  51.537  1.00  0.00     0.038 A 
HETATM   12 CL1  UNL     1      23.692   5.269  51.883  1.00  0.00    -0.084 Cl
HETATM   13  C14 UNL     1      22.669   3.389  50.258  1.00  0.00     0.050 A 
HETATM   14  C15 UNL     1      22.201   2.133  49.935  1.00  0.00     0.071 A 
HETATM   15 CL2  UNL     1      21.628   1.723  48.341  1.00  0.00    -0.081 Cl
HETATM   16  C16 UNL     1      22.161   1.125  50.870  1.00  0.00     0.114 A 
BRANCH  16  17
HETATM   17  O2  UNL     1      21.717  -0.178  50.692  1.00  0.00    -0.357 OA
HETATM   18  H16 UNL     1      21.776  -0.765  51.532  1.00  0.00     0.218 HD
ENDBRANCH  16  17
ENDBRANCH   1   9
BRANCH   4  19
HETATM   19  C5  UNL     1      26.362  -0.478  52.994  1.00  0.00     0.036 A 
HETATM   20  C6  UNL     1      26.627  -1.753  52.568  1.00  0.00     0.029 A 
HETATM   21  C7  UNL     1      27.849  -2.344  52.684  1.00  0.00     0.002 A 
HETATM   22  C8  UNL     1      28.910  -1.677  53.250  1.00  0.00     0.000 A 
HETATM   23  C9  UNL     1      28.698  -0.390  53.696  1.00  0.00     0.002 A 
HETATM   24  C10 UNL     1      27.449   0.150  53.551  1.00  0.00     0.029 A 
ENDBRANCH   4  19
TORSDOF 5
ENDMDL
MODEL 5
REMARK VINA RESULT:      -7.1      2.113      3.918
REMARK  5 active torsions:
REMARK  status: ('A' for Active; 'I' for Inactive)
REMARK    1  A    between atoms: C2_2  and  C3_3 
REMARK    2  A    between atoms: C3_3  and  N1_4 
REMARK       I    between atoms: N1_4  and  C4_5 
REMARK    3  A    between atoms: N1_4  and  C11_14 
REMARK       I    between atoms: C4_5  and  N2_7 
REMARK    4  A    between atoms: N2_7  and  C5_8 
REMARK    5  A    between atoms: C16_21  and  O2_22 
ROOT
HETATM    1  N1  UNL     1      24.959   2.336  51.443  1.00  0.00    -0.297 N 
HETATM    2  C4  UNL     1      26.142   1.618  51.762  1.00  0.00     0.327 C 
HETATM    3  O1  UNL     1      27.259   2.158  51.566  1.00  0.00    -0.246 OA
HETATM    4  N2  UNL     1      26.147   0.305  52.299  1.00  0.00    -0.309 N 
HETATM    5  H8  UNL     1      25.160  -0.053  52.422  1.00  0.00     0.170 HD
ENDROOT
BRANCH   1   6
HETATM    6  C3  UNL     1      25.026   3.655  50.909  1.00  0.00     0.134 C 
BRANCH   6   7
HETATM    7  C2  UNL     1      25.298   3.735  49.431  1.00  0.00     0.016 C 
HETATM    8  C1  UNL     1      26.444   4.726  49.232  1.00  0.00     0.006 C 
ENDBRANCH   6   7
ENDBRANCH   1   6
BRANCH   1   9
HETATM    9  C11 UNL     1      23.702   1.712  51.670  1.00  0.00     0.075 A 
HETATM   10  C12 UNL     1      22.953   1.721  50.496  1.00  0.00     0.056 A 
HETATM   11  C13 UNL     1      21.671   1.163  50.453  1.00  0.00     0.038 A 
HETATM   12 CL1  UNL     1      20.677   1.139  49.019  1.00  0.00    -0.084 Cl
HETATM   13  C14 UNL     1      21.162   0.602  51.607  1.00  0.00     0.050 A 
HETATM   14  C15 UNL     1      21.909   0.596  52.766  1.00  0.00     0.071 A 
HETATM   15 CL2  UNL     1      21.330  -0.095  54.257  1.00  0.00    -0.081 Cl
HETATM   16  C16 UNL     1      23.171   1.145  52.804  1.00  0.00     0.114 A 
BRANCH  16  17
HETATM   17  O2  UNL     1      24.033   1.213  53.890  1.00  0.00    -0.357 OA
HETATM   18  H16 UNL     1      23.564   1.305  54.798  1.00  0.00     0.218 HD
ENDBRANCH  16  17
ENDBRANCH   1   9
BRANCH   4  19
HETATM   19  C5  UNL     1      27.202  -0.541  52.667  1.00  0.00     0.036 A 
HETATM   20  C6  UNL     1      27.094  -1.892  52.466  1.00  0.00     0.029 A 
HETATM   21  C7  UNL     1      28.074  -2.780  52.796  1.00  0.00     0.002 A 
HETATM   22  C8  UNL     1      29.253  -2.358  53.363  1.00  0.00     0.000 A 
HETATM   23  C9  UNL     1      29.414  -1.007  53.587  1.00  0.00     0.002 A 
HETATM   24  C10 UNL     1      28.395  -0.165  53.234  1.00  0.00     0.029 A 
ENDBRANCH   4  19
TORSDOF 5
ENDMDL
MODEL 6
REMARK VINA RESULT:      -7.0      3.792      5.536
REMARK  5 active torsions:
REMARK  status: ('A' for Active; 'I' for Inactive)
REMARK    1  A    between atoms: C2_2  and  C3_3 
REMARK    2  A    between atoms: C3_3  and  N1_4 
REMARK       I    between atoms: N1_4  and  C4_5 
REMARK    3  A    between atoms: N1_4  and  C11_14 
REMARK       I    between atoms: C4_5  and  N2_7 
REMARK    4  A    between atoms: N2_7  and  C5_8 
REMARK    5  A    between atoms: C16_21  and  O2_22 
ROOT
HETATM    1  N1  UNL     1      22.633   2.506  49.061  1.00  0.00    -0.297 N 
HETATM    2  C4  UNL     1      22.236   1.594  50.075  1.00  0.00     0.327 C 
HETATM    3  O1  UNL     1      21.585   0.568  49.756  1.00  0.00    -0.246 OA
HETATM    4  N2  UNL     1      22.534   1.767  51.451  1.00  0.00    -0.309 N 
HETATM    5  H8  UNL     1      23.082   2.657  51.607  1.00  0.00     0.170 HD
ENDROOT
BRANCH   1   6
HETATM    6  C3  UNL     1      22.303   2.271  47.695  1.00  0.00     0.134 C 
BRANCH   6   7
HETATM    7  C2  UNL     1      21.303   3.226  47.104  1.00  0.00     0.016 C 
HETATM    8  C1  UNL     1      21.926   3.811  45.837  1.00  0.00     0.006 C 
ENDBRANCH   6   7
ENDBRANCH   1   6
BRANCH   1   9
HETATM    9  C11 UNL     1      23.369   3.663  49.437  1.00  0.00     0.075 A 
HETATM   10  C12 UNL     1      24.710   3.498  49.097  1.00  0.00     0.056 A 
HETATM   11  C13 UNL     1      25.651   4.500  49.361  1.00  0.00     0.038 A 
HETATM   12 CL1  UNL     1      27.344   4.362  48.963  1.00  0.00    -0.084 Cl
HETATM   13  C14 UNL     1      25.217   5.659  49.971  1.00  0.00     0.050 A 
HETATM   14  C15 UNL     1      23.889   5.816  50.305  1.00  0.00     0.071 A 
HETATM   15 CL2  UNL     1      23.274   7.253  51.076  1.00  0.00    -0.081 Cl
HETATM   16  C16 UNL     1      22.966   4.829  50.042  1.00  0.00     0.114 A 
BRANCH  16  17
HETATM   17  O2  UNL     1      21.607   4.844  50.320  1.00  0.00    -0.357 OA
HETATM   18  H16 UNL     1      21.223   5.777  50.509  1.00  0.00     0.218 HD
ENDBRANCH  16  17
ENDBRANCH   1   9
BRANCH   4  19
HETATM   19  C5  UNL     1      22.227   0.980  52.570  1.00  0.00     0.036 A 
HETATM   20  C6  UNL     1      23.147   0.083  53.045  1.00  0.00     0.029 A 
HETATM   21  C7  UNL     1      22.927  -0.716  54.126  1.00  0.00     0.002 A 
HETATM   22  C8  UNL     1      21.739  -0.667  54.816  1.00  0.00     0.000 A 
HETATM   23  C9  UNL     1      20.777   0.219  54.379  1.00  0.00     0.002 A 
HETATM   24  C10 UNL     1      21.057   0.996  53.289  1.00  0.00     0.029 A 
ENDBRANCH   4  19
TORSDOF 5
ENDMDL
MODEL 7
REMARK VINA RESULT:      -6.8      2.419      3.179
REMARK  5 active torsions:
REMARK  status: ('A' for Active; 'I' for Inactive)
REMARK    1  A    between atoms: C2_2  and  C3_3 
REMARK    2  A    between atoms: C3_3  and  N1_4 
REMARK       I    between atoms: N1_4  and  C4_5 
REMARK    3  A    between atoms: N1_4  and  C11_14 
REMARK       I    between atoms: C4_5  and  N2_7 
REMARK    4  A    between atoms: N2_7  and  C5_8 
REMARK    5  A    between atoms: C16_21  and  O2_22 
ROOT
HETATM    1  N1  UNL     1      23.905   2.963  51.612  1.00  0.00    -0.297 N 
HETATM    2  C4  UNL     1      24.845   2.111  52.250  1.00  0.00     0.327 C 
HETATM    3  O1  UNL     1      24.453   1.019  52.732  1.00  0.00    -0.246 OA
HETATM    4  N2  UNL     1      26.224   2.416  52.381  1.00  0.00    -0.309 N 
HETATM    5  H8  UNL     1      26.444   3.353  51.943  1.00  0.00     0.170 HD
ENDROOT
BRANCH   1   6
HETATM    6  C3  UNL     1      22.532   2.595  51.512  1.00  0.00     0.134 C 
BRANCH   6   7
HETATM    7  C2  UNL     1      22.124   1.992  50.196  1.00  0.00     0.016 C 
HETATM    8  C1  UNL     1      21.480   0.639  50.496  1.00  0.00     0.006 C 
ENDBRANCH   6   7
ENDBRANCH   1   6
BRANCH   1   9
HETATM    9  C11 UNL     1      24.363   4.196  51.070  1.00  0.00     0.075 A 
HETATM   10  C12 UNL     1      25.454   3.967  50.235  1.00  0.00     0.056 A 
HETATM   11  C13 UNL     1      26.092   5.023  49.575  1.00  0.00     0.038 A 
HETATM   12 CL1  UNL     1      27.461   4.811  48.515  1.00  0.00    -0.084 Cl
HETATM   13  C14 UNL     1      25.613   6.303  49.772  1.00  0.00     0.050 A 
HETATM   14  C15 UNL     1      24.533   6.522  50.600  1.00  0.00     0.071 A 
HETATM   15 CL2  UNL     1      23.878   8.110  50.894  1.00  0.00    -0.081 Cl
HETATM   16  C16 UNL     1      23.908   5.481  51.247  1.00  0.00     0.114 A 
BRANCH  16  17
HETATM   17  O2  UNL     1      22.819   5.548  52.105  1.00  0.00    -0.357 OA
HETATM   18  H16 UNL     1      21.916   5.340  51.663  1.00  0.00     0.218 HD
ENDBRANCH  16  17
ENDBRANCH   1   9
BRANCH   4  19
HETATM   19  C5  UNL     1      27.277   1.704  52.970  1.00  0.00     0.036 A 
HETATM   20  C6  UNL     1      27.378   0.351  52.775  1.00  0.00     0.029 A 
HETATM   21  C7  UNL     1      28.371  -0.412  53.311  1.00  0.00     0.002 A 
HETATM   22  C8  UNL     1      29.350   0.146  54.099  1.00  0.00     0.000 A 
HETATM   23  C9  UNL     1      29.295   1.505  54.329  1.00  0.00     0.002 A 
HETATM   24  C10 UNL     1      28.274   2.218  53.761  1.00  0.00     0.029 A 
ENDBRANCH   4  19
TORSDOF 5
ENDMDL
MODEL 8
REMARK VINA RESULT:      -6.7      8.540     11.202
REMARK  5 active torsions:
REMARK  status: ('A' for Active; 'I' for Inactive)
REMARK    1  A    between atoms: C2_2  and  C3_3 
REMARK    2  A    between atoms: C3_3  and  N1_4 
REMARK       I    between atoms: N1_4  and  C4_5 
REMARK    3  A    between atoms: N1_4  and  C11_14 
REMARK       I    between atoms: C4_5  and  N2_7 
REMARK    4  A    between atoms: N2_7  and  C5_8 
REMARK    5  A    between atoms: C16_21  and  O2_22 
ROOT
HETATM    1  N1  UNL     1      32.088   6.806  48.164  1.00  0.00    -0.297 N 
HETATM    2  C4  UNL     1      30.714   6.971  48.483  1.00  0.00     0.327 C 
HETATM    3  O1  UNL     1      30.372   7.897  49.259  1.00  0.00    -0.246 OA
HETATM    4  N2  UNL     1      29.681   6.144  47.971  1.00  0.00    -0.309 N 
HETATM    5  H8  UNL     1      30.077   5.401  47.332  1.00  0.00     0.170 HD
ENDROOT
BRANCH   1   6
HETATM    6  C3  UNL     1      33.076   7.674  48.711  1.00  0.00     0.134 C 
BRANCH   6   7
HETATM    7  C2  UNL     1      34.493   7.363  48.314  1.00  0.00     0.016 C 
HETATM    8  C1  UNL     1      34.986   8.516  47.441  1.00  0.00     0.006 C 
ENDBRANCH   6   7
ENDBRANCH   1   6
BRANCH   1   9
HETATM    9  C11 UNL     1      32.460   5.753  47.283  1.00  0.00     0.075 A 
HETATM   10  C12 UNL     1      32.638   4.575  48.006  1.00  0.00     0.056 A 
HETATM   11  C13 UNL     1      33.007   3.386  47.368  1.00  0.00     0.038 A 
HETATM   12 CL1  UNL     1      33.247   1.875  48.209  1.00  0.00    -0.084 Cl
HETATM   13  C14 UNL     1      33.194   3.407  46.001  1.00  0.00     0.050 A 
HETATM   14  C15 UNL     1      33.017   4.576  45.292  1.00  0.00     0.071 A 
HETATM   15 CL2  UNL     1      33.236   4.673  43.566  1.00  0.00    -0.081 Cl
HETATM   16  C16 UNL     1      32.652   5.744  45.923  1.00  0.00     0.114 A 
BRANCH  16  17
HETATM   17  O2  UNL     1      32.440   6.988  45.345  1.00  0.00    -0.357 OA
HETATM   18  H16 UNL     1      33.003   7.745  45.749  1.00  0.00     0.218 HD
ENDBRANCH  16  17
ENDBRANCH   1   9
BRANCH   4  19
HETATM   19  C5  UNL     1      28.295   6.163  48.175  1.00  0.00     0.036 A 
HETATM   20  C6  UNL     1      27.559   7.242  47.760  1.00  0.00     0.029 A 
HETATM   21  C7  UNL     1      26.210   7.337  47.921  1.00  0.00     0.002 A 
HETATM   22  C8  UNL     1      25.494   6.330  48.525  1.00  0.00     0.000 A 
HETATM   23  C9  UNL     1      26.185   5.220  48.962  1.00  0.00     0.002 A 
HETATM   24  C10 UNL     1      27.540   5.183  48.771  1.00  0.00     0.029 A 
ENDBRANCH   4  19
TORSDOF 5
ENDMDL
MODEL 9
REMARK VINA RESULT:      -6.6      1.889      5.608
REMARK  5 active torsions:
REMARK  status: ('A' for Active; 'I' for Inactive)
REMARK    1  A    between atoms: C2_2  and  C3_3 
REMARK    2  A    between atoms: C3_3  and  N1_4 
REMARK       I    between atoms: N1_4  and  C4_5 
REMARK    3  A    between atoms: N1_4  and  C11_14 
REMARK       I    between atoms: C4_5  and  N2_7 
REMARK    4  A    between atoms: N2_7  and  C5_8 
REMARK    5  A    between atoms: C16_21  and  O2_22 
ROOT
HETATM    1  N1  UNL     1      23.856   1.239  52.532  1.00  0.00    -0.297 N 
HETATM    2  C4  UNL     1      22.688   0.467  52.772  1.00  0.00     0.327 C 
HETATM    3  O1  UNL     1      22.770  -0.560  53.491  1.00  0.00    -0.246 OA
HETATM    4  N2  UNL     1      21.410   0.785  52.246  1.00  0.00    -0.309 N 
HETATM    5  H8  UNL     1      21.455   1.663  51.658  1.00  0.00     0.170 HD
ENDROOT
BRANCH   1   6
HETATM    6  C3  UNL     1      25.110   0.864  53.094  1.00  0.00     0.134 C 
BRANCH   6   7
HETATM    7  C2  UNL     1      26.144   0.402  52.104  1.00  0.00     0.016 C 
HETATM    8  C1  UNL     1      26.589  -0.997  52.531  1.00  0.00     0.006 C 
ENDBRANCH   6   7
ENDBRANCH   1   6
BRANCH   1   9
HETATM    9  C11 UNL     1      23.749   2.399  51.716  1.00  0.00     0.075 A 
HETATM   10  C12 UNL     1      23.378   2.033  50.424  1.00  0.00     0.056 A 
HETATM   11  C13 UNL     1      23.204   2.995  49.423  1.00  0.00     0.038 A 
HETATM   12 CL1  UNL     1      22.741   2.610  47.785  1.00  0.00    -0.084 Cl
HETATM   13  C14 UNL     1      23.409   4.321  49.747  1.00  0.00     0.050 A 
HETATM   14  C15 UNL     1      23.776   4.676  51.028  1.00  0.00     0.071 A 
HETATM   15 CL2  UNL     1      24.051   6.329  51.505  1.00  0.00    -0.081 Cl
HETATM   16  C16 UNL     1      23.945   3.727  52.010  1.00  0.00     0.114 A 
BRANCH  16  17
HETATM   17  O2  UNL     1      24.311   3.933  53.333  1.00  0.00    -0.357 OA
HETATM   18  H16 UNL     1      23.625   4.461  53.885  1.00  0.00     0.218 HD
ENDBRANCH  16  17
ENDBRANCH   1   9
BRANCH   4  19
HETATM   19  C5  UNL     1      20.170   0.147  52.378  1.00  0.00     0.036 A 
HETATM   20  C6  UNL     1      19.227   0.279  51.393  1.00  0.00     0.029 A 
HETATM   21  C7  UNL     1      17.999  -0.309  51.445  1.00  0.00     0.002 A 
HETATM   22  C8  UNL     1      17.629  -1.086  52.518  1.00  0.00     0.000 A 
HETATM   23  C9  UNL     1      18.540  -1.250  53.539  1.00  0.00     0.002 A 
HETATM   24  C10 UNL     1      19.758  -0.636  53.428  1.00  0.00     0.029 A 
ENDBRANCH   4  19
TORSDOF 5
ENDMDL
