MODEL 1
REMARK VINA RESULT:      -7.1      0.000      0.000
REMARK  6 active torsions:
REMARK  status: ('A' for Active; 'I' for Inactive)
REMARK    1  A    between atoms: N1_2  and  C2_3 
REMARK    2  A    between atoms: C2_3  and  C3_4 
REMARK    3  A    between atoms: C3_4  and  S1_5 
REMARK    4  A    between atoms: S1_5  and  C4_6 
REMARK    5  A    between atoms: C4_6  and  N2_7 
REMARK    6  A    between atoms: C13_16  and  C14_17 
ROOT
HETATM    1  N2  UNL     1      23.271   3.082  52.146  1.00  0.00    -0.367 N 
HETATM    2  C5  UNL     1      22.069   3.870  52.185  1.00  0.00     0.008 C 
HETATM    3  C6  UNL     1      22.269   5.174  52.069  1.00  0.00     0.063 C 
HETATM    4  C7  UNL     1      20.650   3.474  52.331  1.00  0.00     0.025 C 
HETATM    5  C8  UNL     1      19.996   2.306  52.237  1.00  0.00     0.008 C 
HETATM    6  C9  UNL     1      20.431   0.944  51.948  1.00  0.00    -0.066 C 
HETATM    7  C10 UNL     1      19.263   0.005  51.903  1.00  0.00     0.048 C 
HETATM    8  C11 UNL     1      21.616   0.393  51.725  1.00  0.00    -0.018 C 
HETATM    9  C12 UNL     1      23.071   0.674  51.624  1.00  0.00     0.058 C 
HETATM   10  C13 UNL     1      23.561   1.709  52.577  1.00  0.00     0.121 C 
ENDROOT
BRANCH   1  11
HETATM   11  C4  UNL     1      24.311   3.908  51.549  1.00  0.00     0.183 C 
BRANCH  11  12
HETATM   12  S1  UNL     1      24.648   3.434  49.840  1.00  0.00    -0.196 SA
BRANCH  12  13
HETATM   13  C3  UNL     1      26.159   4.118  49.242  1.00  0.00     0.159 C 
BRANCH  13  14
HETATM   14  C2  UNL     1      27.311   4.677  48.863  1.00  0.00     0.089 C 
BRANCH  14  15
HETATM   15  N1  UNL     1      27.582   6.055  49.087  1.00  0.00    -0.403 N 
HETATM   16  C1  UNL     1      27.188   7.454  48.930  1.00  0.00     0.145 C 
HETATM   17  H4  UNL     1      28.492   5.935  49.605  1.00  0.00     0.158 HD
ENDBRANCH  14  15
ENDBRANCH  13  14
ENDBRANCH  12  13
ENDBRANCH  11  12
ENDBRANCH   1  11
BRANCH  10  18
HETATM   18  C14 UNL     1      24.987   1.567  52.957  1.00  0.00    -0.035 A 
HETATM   19  C15 UNL     1      25.539   0.494  52.243  1.00  0.00     0.011 A 
HETATM   20  C16 UNL     1      26.880   0.135  52.415  1.00  0.00     0.024 A 
HETATM   21  C17 UNL     1      27.687   0.833  53.292  1.00  0.00     0.034 A 
HETATM   22 CL1  UNL     1      29.369   0.410  53.530  1.00  0.00    -0.084 Cl
HETATM   23  C18 UNL     1      27.115   1.883  53.979  1.00  0.00     0.024 A 
HETATM   24  C19 UNL     1      25.805   2.254  53.829  1.00  0.00     0.011 A 
ENDBRANCH  10  18
TORSDOF 6
ENDMDL
MODEL 2
REMARK VINA RESULT:      -6.7      2.731      5.873
REMARK  6 active torsions:
REMARK  status: ('A' for Active; 'I' for Inactive)
REMARK    1  A    between atoms: N1_2  and  C2_3 
REMARK    2  A    between atoms: C2_3  and  C3_4 
REMARK    3  A    between atoms: C3_4  and  S1_5 
REMARK    4  A    between atoms: S1_5  and  C4_6 
REMARK    5  A    between atoms: C4_6  and  N2_7 
REMARK    6  A    between atoms: C13_16  and  C14_17 
ROOT
HETATM    1  N2  UNL     1      23.056   1.789  51.298  1.00  0.00    -0.367 N 
HETATM    2  C5  UNL     1      22.038   1.966  50.298  1.00  0.00     0.008 C 
HETATM    3  C6  UNL     1      21.476   0.839  49.887  1.00  0.00     0.063 C 
HETATM    4  C7  UNL     1      21.510   3.188  49.652  1.00  0.00     0.025 C 
HETATM    5  C8  UNL     1      21.607   4.499  49.922  1.00  0.00     0.008 C 
HETATM    6  C9  UNL     1      22.280   5.249  50.977  1.00  0.00    -0.066 C 
HETATM    7  C10 UNL     1      22.013   6.719  50.846  1.00  0.00     0.048 C 
HETATM    8  C11 UNL     1      23.054   4.898  51.993  1.00  0.00    -0.018 C 
HETATM    9  C12 UNL     1      23.686   3.740  52.678  1.00  0.00     0.058 C 
HETATM   10  C13 UNL     1      24.143   2.661  51.759  1.00  0.00     0.121 C 
ENDROOT
BRANCH   1  11
HETATM   11  C4  UNL     1      22.862   0.471  51.884  1.00  0.00     0.183 C 
BRANCH  11  12
HETATM   12  S1  UNL     1      21.895   0.547  53.406  1.00  0.00    -0.196 SA
BRANCH  12  13
HETATM   13  C3  UNL     1      20.247  -0.041  53.181  1.00  0.00     0.159 C 
BRANCH  13  14
HETATM   14  C2  UNL     1      18.984  -0.416  52.965  1.00  0.00     0.089 C 
BRANCH  14  15
HETATM   15  N1  UNL     1      18.381  -1.469  53.706  1.00  0.00    -0.403 N 
HETATM   16  C1  UNL     1      17.796  -2.809  53.736  1.00  0.00     0.145 C 
HETATM   17  H4  UNL     1      18.394  -1.000  54.650  1.00  0.00     0.158 HD
ENDBRANCH  14  15
ENDBRANCH  13  14
ENDBRANCH  12  13
ENDBRANCH  11  12
ENDBRANCH   1  11
BRANCH  10  18
HETATM   18  C14 UNL     1      25.280   1.860  52.271  1.00  0.00    -0.035 A 
HETATM   19  C15 UNL     1      25.485   2.179  53.621  1.00  0.00     0.011 A 
HETATM   20  C16 UNL     1      26.506   1.564  54.354  1.00  0.00     0.024 A 
HETATM   21  C17 UNL     1      27.331   0.630  53.761  1.00  0.00     0.034 A 
HETATM   22 CL1  UNL     1      28.617  -0.158  54.649  1.00  0.00    -0.084 Cl
HETATM   23  C18 UNL     1      27.103   0.336  52.433  1.00  0.00     0.024 A 
HETATM   24  C19 UNL     1      26.112   0.924  51.693  1.00  0.00     0.011 A 
ENDBRANCH  10  18
TORSDOF 6
ENDMDL
MODEL 3
REMARK VINA RESULT:      -6.7      3.102      5.576
REMARK  6 active torsions:
REMARK  status: ('A' for Active; 'I' for Inactive)
REMARK    1  A    between atoms: N1_2  and  C2_3 
REMARK    2  A    between atoms: C2_3  and  C3_4 
REMARK    3  A    between atoms: C3_4  and  S1_5 
REMARK    4  A    between atoms: S1_5  and  C4_6 
REMARK    5  A    between atoms: C4_6  and  N2_7 
REMARK    6  A    between atoms: C13_16  and  C14_17 
ROOT
HETATM    1  N2  UNL     1      24.167   2.531  50.899  1.00  0.00    -0.367 N 
HETATM    2  C5  UNL     1      25.548   2.846  50.656  1.00  0.00     0.008 C 
HETATM    3  C6  UNL     1      25.740   3.795  49.752  1.00  0.00     0.063 C 
HETATM    4  C7  UNL     1      26.790   2.293  51.242  1.00  0.00     0.025 C 
HETATM    5  C8  UNL     1      27.053   1.529  52.313  1.00  0.00     0.008 C 
HETATM    6  C9  UNL     1      26.206   0.933  53.341  1.00  0.00    -0.066 C 
HETATM    7  C10 UNL     1      27.031   0.211  54.364  1.00  0.00     0.048 C 
HETATM    8  C11 UNL     1      24.897   0.907  53.541  1.00  0.00    -0.018 C 
HETATM    9  C12 UNL     1      23.590   1.358  52.996  1.00  0.00     0.058 C 
HETATM   10  C13 UNL     1      23.517   1.364  51.509  1.00  0.00     0.121 C 
ENDROOT
BRANCH   1  11
HETATM   11  C4  UNL     1      23.375   3.650  50.409  1.00  0.00     0.183 C 
BRANCH  11  12
HETATM   12  S1  UNL     1      23.107   4.896  51.687  1.00  0.00    -0.196 SA
BRANCH  12  13
HETATM   13  C3  UNL     1      23.688   6.488  51.201  1.00  0.00     0.159 C 
BRANCH  13  14
HETATM   14  C2  UNL     1      24.207   7.667  50.848  1.00  0.00     0.089 C 
BRANCH  14  15
HETATM   15  N1  UNL     1      25.608   7.850  50.690  1.00  0.00    -0.403 N 
HETATM   16  C1  UNL     1      26.719   8.561  50.061  1.00  0.00     0.145 C 
HETATM   17  H4  UNL     1      25.921   7.099  51.360  1.00  0.00     0.158 HD
ENDBRANCH  14  15
ENDBRANCH  13  14
ENDBRANCH  12  13
ENDBRANCH  11  12
ENDBRANCH   1  11
BRANCH  10  18
HETATM   18  C14 UNL     1      22.153   1.176  50.960  1.00  0.00    -0.035 A 
HETATM   19  C15 UNL     1      21.277   0.893  52.018  1.00  0.00     0.011 A 
HETATM   20  C16 UNL     1      19.917   0.667  51.779  1.00  0.00     0.024 A 
HETATM   21  C17 UNL     1      19.411   0.718  50.495  1.00  0.00     0.034 A 
HETATM   22 CL1  UNL     1      17.715   0.439  50.162  1.00  0.00    -0.084 Cl
HETATM   23  C18 UNL     1      20.297   0.998  49.477  1.00  0.00     0.024 A 
HETATM   24  C19 UNL     1      21.633   1.223  49.684  1.00  0.00     0.011 A 
ENDBRANCH  10  18
TORSDOF 6
ENDMDL
MODEL 4
REMARK VINA RESULT:      -6.6      1.968      2.854
REMARK  6 active torsions:
REMARK  status: ('A' for Active; 'I' for Inactive)
REMARK    1  A    between atoms: N1_2  and  C2_3 
REMARK    2  A    between atoms: C2_3  and  C3_4 
REMARK    3  A    between atoms: C3_4  and  S1_5 
REMARK    4  A    between atoms: S1_5  and  C4_6 
REMARK    5  A    between atoms: C4_6  and  N2_7 
REMARK    6  A    between atoms: C13_16  and  C14_17 
ROOT
HETATM    1  N2  UNL     1      23.206   3.141  52.064  1.00  0.00    -0.367 N 
HETATM    2  C5  UNL     1      22.005   3.931  52.089  1.00  0.00     0.008 C 
HETATM    3  C6  UNL     1      22.202   5.228  51.900  1.00  0.00     0.063 C 
HETATM    4  C7  UNL     1      20.590   3.546  52.287  1.00  0.00     0.025 C 
HETATM    5  C8  UNL     1      19.933   2.375  52.269  1.00  0.00     0.008 C 
HETATM    6  C9  UNL     1      20.362   0.999  52.042  1.00  0.00    -0.066 C 
HETATM    7  C10 UNL     1      19.192   0.061  52.072  1.00  0.00     0.048 C 
HETATM    8  C11 UNL     1      21.541   0.436  51.821  1.00  0.00    -0.018 C 
HETATM    9  C12 UNL     1      22.994   0.710  51.673  1.00  0.00     0.058 C 
HETATM   10  C13 UNL     1      23.505   1.792  52.559  1.00  0.00     0.121 C 
ENDROOT
BRANCH   1  11
HETATM   11  C4  UNL     1      24.232   3.933  51.401  1.00  0.00     0.183 C 
BRANCH  11  12
HETATM   12  S1  UNL     1      24.550   3.352  49.721  1.00  0.00    -0.196 SA
BRANCH  12  13
HETATM   13  C3  UNL     1      23.077   3.260  48.756  1.00  0.00     0.159 C 
BRANCH  13  14
HETATM   14  C2  UNL     1      21.942   3.119  48.066  1.00  0.00     0.089 C 
BRANCH  14  15
HETATM   15  N1  UNL     1      20.753   2.633  48.675  1.00  0.00    -0.403 N 
HETATM   16  C1  UNL     1      19.293   2.584  48.717  1.00  0.00     0.145 C 
HETATM   17  H4  UNL     1      21.210   2.055  49.429  1.00  0.00     0.158 HD
ENDBRANCH  14  15
ENDBRANCH  13  14
ENDBRANCH  12  13
ENDBRANCH  11  12
ENDBRANCH   1  11
BRANCH  10  18
HETATM   18  C14 UNL     1      24.939   1.668  52.914  1.00  0.00    -0.035 A 
HETATM   19  C15 UNL     1      25.497   0.616  52.172  1.00  0.00     0.011 A 
HETATM   20  C16 UNL     1      26.848   0.279  52.317  1.00  0.00     0.024 A 
HETATM   21  C17 UNL     1      27.656   0.975  53.193  1.00  0.00     0.034 A 
HETATM   22 CL1  UNL     1      29.349   0.578  53.397  1.00  0.00    -0.084 Cl
HETATM   23  C18 UNL     1      27.078   2.003  53.906  1.00  0.00     0.024 A 
HETATM   24  C19 UNL     1      25.760   2.354  53.784  1.00  0.00     0.011 A 
ENDBRANCH  10  18
TORSDOF 6
ENDMDL
MODEL 5
REMARK VINA RESULT:      -6.5      3.661      5.376
REMARK  6 active torsions:
REMARK  status: ('A' for Active; 'I' for Inactive)
REMARK    1  A    between atoms: N1_2  and  C2_3 
REMARK    2  A    between atoms: C2_3  and  C3_4 
REMARK    3  A    between atoms: C3_4  and  S1_5 
REMARK    4  A    between atoms: S1_5  and  C4_6 
REMARK    5  A    between atoms: C4_6  and  N2_7 
REMARK    6  A    between atoms: C13_16  and  C14_17 
ROOT
HETATM    1  N2  UNL     1      23.983   1.901  51.246  1.00  0.00    -0.367 N 
HETATM    2  C5  UNL     1      25.112   1.377  51.963  1.00  0.00     0.008 C 
HETATM    3  C6  UNL     1      26.260   1.978  51.689  1.00  0.00     0.063 C 
HETATM    4  C7  UNL     1      25.212   0.283  52.956  1.00  0.00     0.025 C 
HETATM    5  C8  UNL     1      24.313  -0.403  53.679  1.00  0.00     0.008 C 
HETATM    6  C9  UNL     1      22.859  -0.338  53.775  1.00  0.00    -0.066 C 
HETATM    7  C10 UNL     1      22.345  -1.304  54.801  1.00  0.00     0.048 C 
HETATM    8  C11 UNL     1      21.935   0.382  53.155  1.00  0.00    -0.018 C 
HETATM    9  C12 UNL     1      21.721   1.431  52.125  1.00  0.00     0.058 C 
HETATM   10  C13 UNL     1      22.652   1.347  50.966  1.00  0.00     0.121 C 
ENDROOT
BRANCH   1  11
HETATM   11  C4  UNL     1      24.353   3.224  50.763  1.00  0.00     0.183 C 
BRANCH  11  12
HETATM   12  S1  UNL     1      23.642   4.535  51.779  1.00  0.00    -0.196 SA
BRANCH  12  13
HETATM   13  C3  UNL     1      24.118   6.141  51.227  1.00  0.00     0.159 C 
BRANCH  13  14
HETATM   14  C2  UNL     1      24.435   7.342  50.738  1.00  0.00     0.089 C 
BRANCH  14  15
HETATM   15  N1  UNL     1      25.787   7.766  50.617  1.00  0.00    -0.403 N 
HETATM   16  C1  UNL     1      26.757   8.752  50.143  1.00  0.00     0.145 C 
HETATM   17  H4  UNL     1      26.233   6.954  51.119  1.00  0.00     0.158 HD
ENDBRANCH  14  15
ENDBRANCH  13  14
ENDBRANCH  12  13
ENDBRANCH  11  12
ENDBRANCH   1  11
BRANCH  10  18
HETATM   18  C14 UNL     1      22.108   1.898  49.701  1.00  0.00    -0.035 A 
HETATM   19  C15 UNL     1      20.769   2.260  49.906  1.00  0.00     0.011 A 
HETATM   20  C16 UNL     1      20.010   2.808  48.867  1.00  0.00     0.024 A 
HETATM   21  C17 UNL     1      20.566   3.003  47.618  1.00  0.00     0.034 A 
HETATM   22 CL1  UNL     1      19.643   3.687  46.297  1.00  0.00    -0.084 Cl
HETATM   23  C18 UNL     1      21.884   2.638  47.448  1.00  0.00     0.024 A 
HETATM   24  C19 UNL     1      22.649   2.099  48.449  1.00  0.00     0.011 A 
ENDBRANCH  10  18
TORSDOF 6
ENDMDL
MODEL 6
REMARK VINA RESULT:      -6.5      3.329      5.952
REMARK  6 active torsions:
REMARK  status: ('A' for Active; 'I' for Inactive)
REMARK    1  A    between atoms: N1_2  and  C2_3 
REMARK    2  A    between atoms: C2_3  and  C3_4 
REMARK    3  A    between atoms: C3_4  and  S1_5 
REMARK    4  A    between atoms: S1_5  and  C4_6 
REMARK    5  A    between atoms: C4_6  and  N2_7 
REMARK    6  A    between atoms: C13_16  and  C14_17 
ROOT
HETATM    1  N2  UNL     1      23.320   2.731  50.802  1.00  0.00    -0.367 N 
HETATM    2  C5  UNL     1      24.325   3.295  49.942  1.00  0.00     0.008 C 
HETATM    3  C6  UNL     1      23.843   4.022  48.945  1.00  0.00     0.063 C 
HETATM    4  C7  UNL     1      25.802   3.203  49.980  1.00  0.00     0.025 C 
HETATM    5  C8  UNL     1      26.685   2.797  50.904  1.00  0.00     0.008 C 
HETATM    6  C9  UNL     1      26.537   2.278  52.260  1.00  0.00    -0.066 C 
HETATM    7  C10 UNL     1      27.875   2.031  52.890  1.00  0.00     0.048 C 
HETATM    8  C11 UNL     1      25.487   1.993  53.017  1.00  0.00    -0.018 C 
HETATM    9  C12 UNL     1      24.002   1.982  53.057  1.00  0.00     0.058 C 
HETATM   10  C13 UNL     1      23.359   1.622  51.763  1.00  0.00     0.121 C 
ENDROOT
BRANCH   1  11
HETATM   11  C4  UNL     1      22.094   3.485  50.588  1.00  0.00     0.183 C 
BRANCH  11  12
HETATM   12  S1  UNL     1      21.895   4.806  51.802  1.00  0.00    -0.196 SA
BRANCH  12  13
HETATM   13  C3  UNL     1      21.834   6.400  51.050  1.00  0.00     0.159 C 
BRANCH  13  14
HETATM   14  C2  UNL     1      21.712   7.619  50.517  1.00  0.00     0.089 C 
BRANCH  14  15
HETATM   15  N1  UNL     1      20.450   8.135  50.114  1.00  0.00    -0.403 N 
HETATM   16  C1  UNL     1      19.563   9.282  49.930  1.00  0.00     0.145 C 
HETATM   17  H4  UNL     1      20.009   7.219  49.834  1.00  0.00     0.158 HD
ENDBRANCH  14  15
ENDBRANCH  13  14
ENDBRANCH  12  13
ENDBRANCH  11  12
ENDBRANCH   1  11
BRANCH  10  18
HETATM   18  C14 UNL     1      22.022   0.994  51.896  1.00  0.00    -0.035 A 
HETATM   19  C15 UNL     1      21.736   0.829  53.259  1.00  0.00     0.011 A 
HETATM   20  C16 UNL     1      20.529   0.253  53.671  1.00  0.00     0.024 A 
HETATM   21  C17 UNL     1      19.597  -0.164  52.742  1.00  0.00     0.034 A 
HETATM   22 CL1  UNL     1      18.078  -0.889  53.224  1.00  0.00    -0.084 Cl
HETATM   23  C18 UNL     1      19.907   0.012  51.410  1.00  0.00     0.024 A 
HETATM   24  C19 UNL     1      21.081   0.573  50.981  1.00  0.00     0.011 A 
ENDBRANCH  10  18
TORSDOF 6
ENDMDL
MODEL 7
REMARK VINA RESULT:      -6.4      3.385      5.598
REMARK  6 active torsions:
REMARK  status: ('A' for Active; 'I' for Inactive)
REMARK    1  A    between atoms: N1_2  and  C2_3 
REMARK    2  A    between atoms: C2_3  and  C3_4 
REMARK    3  A    between atoms: C3_4  and  S1_5 
REMARK    4  A    between atoms: S1_5  and  C4_6 
REMARK    5  A    between atoms: C4_6  and  N2_7 
REMARK    6  A    between atoms: C13_16  and  C14_17 
ROOT
HETATM    1  N2  UNL     1      24.076   4.786  50.778  1.00  0.00    -0.367 N 
HETATM    2  C5  UNL     1      23.522   4.048  51.880  1.00  0.00     0.008 C 
HETATM    3  C6  UNL     1      23.633   4.653  53.052  1.00  0.00     0.063 C 
HETATM    4  C7  UNL     1      22.850   2.730  51.928  1.00  0.00     0.025 C 
HETATM    5  C8  UNL     1      22.328   1.917  50.997  1.00  0.00     0.008 C 
HETATM    6  C9  UNL     1      22.215   2.012  49.545  1.00  0.00    -0.066 C 
HETATM    7  C10 UNL     1      21.475   0.834  48.985  1.00  0.00     0.048 C 
HETATM    8  C11 UNL     1      22.624   2.905  48.656  1.00  0.00    -0.018 C 
HETATM    9  C12 UNL     1      23.345   4.194  48.492  1.00  0.00     0.058 C 
HETATM   10  C13 UNL     1      24.488   4.378  49.429  1.00  0.00     0.121 C 
ENDROOT
BRANCH   1  11
HETATM   11  C4  UNL     1      24.199   6.172  51.204  1.00  0.00     0.183 C 
BRANCH  11  12
HETATM   12  S1  UNL     1      22.769   7.158  50.710  1.00  0.00    -0.196 SA
BRANCH  12  13
HETATM   13  C3  UNL     1      21.328   6.170  50.470  1.00  0.00     0.159 C 
BRANCH  13  14
HETATM   14  C2  UNL     1      20.261   5.410  50.209  1.00  0.00     0.089 C 
BRANCH  14  15
HETATM   15  N1  UNL     1      19.734   4.507  51.171  1.00  0.00    -0.403 N 
HETATM   16  C1  UNL     1      19.039   3.256  51.472  1.00  0.00     0.145 C 
HETATM   17  H4  UNL     1      20.001   5.052  52.034  1.00  0.00     0.158 HD
ENDBRANCH  14  15
ENDBRANCH  13  14
ENDBRANCH  12  13
ENDBRANCH  11  12
ENDBRANCH   1  11
BRANCH  10  18
HETATM   18  C14 UNL     1      25.564   5.260  48.918  1.00  0.00    -0.035 A 
HETATM   19  C15 UNL     1      26.788   4.583  49.019  1.00  0.00     0.011 A 
HETATM   20  C16 UNL     1      27.978   5.191  48.606  1.00  0.00     0.024 A 
HETATM   21  C17 UNL     1      27.970   6.472  48.090  1.00  0.00     0.034 A 
HETATM   22 CL1  UNL     1      29.441   7.262  47.565  1.00  0.00    -0.084 Cl
HETATM   23  C18 UNL     1      26.751   7.112  48.003  1.00  0.00     0.024 A 
HETATM   24  C19 UNL     1      25.572   6.538  48.401  1.00  0.00     0.011 A 
ENDBRANCH  10  18
TORSDOF 6
ENDMDL
MODEL 8
REMARK VINA RESULT:      -6.3      3.121      5.295
REMARK  6 active torsions:
REMARK  status: ('A' for Active; 'I' for Inactive)
REMARK    1  A    between atoms: N1_2  and  C2_3 
REMARK    2  A    between atoms: C2_3  and  C3_4 
REMARK    3  A    between atoms: C3_4  and  S1_5 
REMARK    4  A    between atoms: S1_5  and  C4_6 
REMARK    5  A    between atoms: C4_6  and  N2_7 
REMARK    6  A    between atoms: C13_16  and  C14_17 
ROOT
HETATM    1  N2  UNL     1      23.360   1.593  52.557  1.00  0.00    -0.367 N 
HETATM    2  C5  UNL     1      23.124   0.479  53.434  1.00  0.00     0.008 C 
HETATM    3  C6  UNL     1      21.851   0.297  53.753  1.00  0.00     0.063 C 
HETATM    4  C7  UNL     1      24.056  -0.499  54.039  1.00  0.00     0.025 C 
HETATM    5  C8  UNL     1      25.337  -0.829  53.809  1.00  0.00     0.008 C 
HETATM    6  C9  UNL     1      26.331  -0.348  52.855  1.00  0.00    -0.066 C 
HETATM    7  C10 UNL     1      27.613  -1.114  52.985  1.00  0.00     0.048 C 
HETATM    8  C11 UNL     1      26.322   0.600  51.930  1.00  0.00    -0.018 C 
HETATM    9  C12 UNL     1      25.488   1.657  51.301  1.00  0.00     0.058 C 
HETATM   10  C13 UNL     1      24.574   2.358  52.245  1.00  0.00     0.121 C 
ENDROOT
BRANCH   1  11
HETATM   11  C4  UNL     1      22.092   1.924  51.925  1.00  0.00     0.183 C 
BRANCH  11  12
HETATM   12  S1  UNL     1      21.872   1.052  50.360  1.00  0.00    -0.196 SA
BRANCH  12  13
HETATM   13  C3  UNL     1      22.269   2.063  48.971  1.00  0.00     0.159 C 
BRANCH  13  14
HETATM   14  C2  UNL     1      22.622   2.872  47.968  1.00  0.00     0.089 C 
BRANCH  14  15
HETATM   15  N1  UNL     1      22.238   4.240  47.942  1.00  0.00    -0.403 N 
HETATM   16  C1  UNL     1      22.281   5.545  47.283  1.00  0.00     0.145 C 
HETATM   17  H4  UNL     1      21.665   4.241  48.827  1.00  0.00     0.158 HD
ENDBRANCH  14  15
ENDBRANCH  13  14
ENDBRANCH  12  13
ENDBRANCH  11  12
ENDBRANCH   1  11
BRANCH  10  18
HETATM   18  C14 UNL     1      24.235   3.747  51.853  1.00  0.00    -0.035 A 
HETATM   19  C15 UNL     1      24.943   4.072  50.688  1.00  0.00     0.011 A 
HETATM   20  C16 UNL     1      24.809   5.334  50.099  1.00  0.00     0.024 A 
HETATM   21  C17 UNL     1      23.976   6.284  50.656  1.00  0.00     0.034 A 
HETATM   22 CL1  UNL     1      23.786   7.872  49.944  1.00  0.00    -0.084 Cl
HETATM   23  C18 UNL     1      23.293   5.934  51.801  1.00  0.00     0.024 A 
HETATM   24  C19 UNL     1      23.406   4.705  52.397  1.00  0.00     0.011 A 
ENDBRANCH  10  18
TORSDOF 6
ENDMDL
MODEL 9
REMARK VINA RESULT:      -6.3      8.735     11.399
REMARK  6 active torsions:
REMARK  status: ('A' for Active; 'I' for Inactive)
REMARK    1  A    between atoms: N1_2  and  C2_3 
REMARK    2  A    between atoms: C2_3  and  C3_4 
REMARK    3  A    between atoms: C3_4  and  S1_5 
REMARK    4  A    between atoms: S1_5  and  C4_6 
REMARK    5  A    between atoms: C4_6  and  N2_7 
REMARK    6  A    between atoms: C13_16  and  C14_17 
ROOT
HETATM    1  N2  UNL     1      33.483   6.214  47.733  1.00  0.00    -0.367 N 
HETATM    2  C5  UNL     1      34.583   5.422  48.211  1.00  0.00     0.008 C 
HETATM    3  C6  UNL     1      35.474   6.099  48.919  1.00  0.00     0.063 C 
HETATM    4  C7  UNL     1      34.889   3.983  48.049  1.00  0.00     0.025 C 
HETATM    5  C8  UNL     1      34.178   2.921  47.639  1.00  0.00     0.008 C 
HETATM    6  C9  UNL     1      32.801   2.763  47.184  1.00  0.00    -0.066 C 
HETATM    7  C10 UNL     1      32.492   1.324  46.899  1.00  0.00     0.048 C 
HETATM    8  C11 UNL     1      31.805   3.613  46.982  1.00  0.00    -0.018 C 
HETATM    9  C12 UNL     1      31.416   5.045  47.045  1.00  0.00     0.058 C 
HETATM   10  C13 UNL     1      32.502   5.990  46.663  1.00  0.00     0.121 C 
ENDROOT
BRANCH   1  11
HETATM   11  C4  UNL     1      33.441   7.427  48.536  1.00  0.00     0.183 C 
BRANCH  11  12
HETATM   12  S1  UNL     1      32.052   7.424  49.689  1.00  0.00    -0.196 SA
BRANCH  12  13
HETATM   13  C3  UNL     1      30.993   8.816  49.463  1.00  0.00     0.159 C 
BRANCH  13  14
HETATM   14  C2  UNL     1      30.174   9.867  49.374  1.00  0.00     0.089 C 
BRANCH  14  15
HETATM   15  N1  UNL     1      28.896   9.873  49.998  1.00  0.00    -0.403 N 
HETATM   16  C1  UNL     1      27.565   9.286  50.142  1.00  0.00     0.145 C 
HETATM   17  H4  UNL     1      29.054  10.703  50.630  1.00  0.00     0.158 HD
ENDBRANCH  14  15
ENDBRANCH  13  14
ENDBRANCH  12  13
ENDBRANCH  11  12
ENDBRANCH   1  11
BRANCH  10  18
HETATM   18  C14 UNL     1      32.026   7.280  46.108  1.00  0.00    -0.035 A 
HETATM   19  C15 UNL     1      30.630   7.335  46.230  1.00  0.00     0.011 A 
HETATM   20  C16 UNL     1      29.916   8.451  45.778  1.00  0.00     0.024 A 
HETATM   21  C17 UNL     1      30.575   9.519  45.202  1.00  0.00     0.034 A 
HETATM   22 CL1  UNL     1      29.712  10.929  44.627  1.00  0.00    -0.084 Cl
HETATM   23  C18 UNL     1      31.947   9.435  45.097  1.00  0.00     0.024 A 
HETATM   24  C19 UNL     1      32.668   8.355  45.531  1.00  0.00     0.011 A 
ENDBRANCH  10  18
TORSDOF 6
ENDMDL
