MODEL 1
REMARK VINA RESULT:      -8.0      0.000      0.000
REMARK  10 active torsions:
REMARK  status: ('A' for Active; 'I' for Inactive)
REMARK    1  A    between atoms: C2_2  and  C3_3 
REMARK    2  A    between atoms: C3_3  and  C4_4 
REMARK    3  A    between atoms: C6_6  and  C7_7 
REMARK    4  A    between atoms: C7_7  and  S1_8 
REMARK    5  A    between atoms: S1_8  and  C8_9 
REMARK    6  A    between atoms: C14_15  and  O1_16 
REMARK    7  A    between atoms: C15_17  and  O2_18 
REMARK    8  A    between atoms: O2_18  and  C16_19 
REMARK    9  A    between atoms: C16_19  and  C17_20 
REMARK   10  A    between atoms: C17_20  and  C19_23 
REMARK       I    between atoms: C19_23  and  N2_24 
ROOT
HETATM    1  C17 UNL     1      28.251  -0.239  54.255  1.00  0.00     0.208 C 
HETATM    2  C18 UNL     1      28.915   1.107  54.501  1.00  0.00     0.075 C 
HETATM    3  N1  UNL     1      29.414   2.094  54.695  1.00  0.00    -0.196 NA
ENDROOT
BRANCH   1   4
HETATM    4  C16 UNL     1      26.942   0.210  53.778  1.00  0.00     0.204 C 
BRANCH   4   5
HETATM    5  O2  UNL     1      25.874   0.583  53.386  1.00  0.00    -0.346 OA
BRANCH   5   6
HETATM    6  C15 UNL     1      24.458   0.795  53.379  1.00  0.00     0.103 A 
HETATM    7  C14 UNL     1      24.522   2.196  53.115  1.00  0.00     0.106 A 
HETATM    8  C6  UNL     1      23.171   2.349  52.784  1.00  0.00    -0.012 A 
HETATM    9  C5  UNL     1      22.103   1.594  52.713  1.00  0.00     0.022 A 
HETATM   10  C4  UNL     1      22.421   0.250  53.094  1.00  0.00    -0.032 A 
HETATM   11  C20 UNL     1      23.603  -0.274  53.458  1.00  0.00     0.051 A 
BRANCH   7  12
HETATM   12  O1  UNL     1      25.619   2.998  53.157  1.00  0.00    -0.357 OA
HETATM   13  H12 UNL     1      26.599   2.672  53.356  1.00  0.00     0.217 HD
ENDBRANCH   7  12
BRANCH   8  14
HETATM   14  C7  UNL     1      23.358   3.583  51.837  1.00  0.00     0.121 C 
BRANCH  14  15
HETATM   15  S1  UNL     1      23.721   2.846  50.202  1.00  0.00    -0.125 SA
BRANCH  15  16
HETATM   16  C8  UNL     1      25.142   3.821  49.613  1.00  0.00     0.000 A 
HETATM   17  C9  UNL     1      24.623   5.032  49.332  1.00  0.00     0.018 A 
HETATM   18  C10 UNL     1      25.452   6.024  48.866  1.00  0.00     0.001 A 
HETATM   19  C11 UNL     1      26.799   5.591  48.681  1.00  0.00     0.000 A 
HETATM   20  C12 UNL     1      27.211   4.384  48.959  1.00  0.00     0.001 A 
HETATM   21  C13 UNL     1      26.476   3.309  49.485  1.00  0.00     0.018 A 
ENDBRANCH  15  16
ENDBRANCH  14  15
ENDBRANCH   8  14
BRANCH  10  22
HETATM   22  C3  UNL     1      21.211  -0.566  53.015  1.00  0.00     0.022 C 
BRANCH  22  23
HETATM   23  C2  UNL     1      20.033  -0.089  52.587  1.00  0.00    -0.035 C 
HETATM   24  C1  UNL     1      18.765  -0.141  52.268  1.00  0.00     0.024 C 
ENDBRANCH  22  23
ENDBRANCH  10  22
ENDBRANCH   5   6
ENDBRANCH   4   5
ENDBRANCH   1   4
BRANCH   1  25
HETATM   25  C19 UNL     1      28.976  -1.169  53.449  1.00  0.00     0.235 C 
HETATM   26  N2  UNL     1      28.245  -2.293  53.083  1.00  0.00    -0.369 N 
HETATM   27  H16 UNL     1      28.764  -2.843  52.318  1.00  0.00     0.159 HD
HETATM   28  H17 UNL     1      27.312  -2.588  53.541  1.00  0.00     0.159 HD
HETATM   29  O3  UNL     1      30.167  -0.870  53.193  1.00  0.00    -0.272 OA
ENDBRANCH   1  25
TORSDOF 10
ENDMDL
MODEL 2
REMARK VINA RESULT:      -7.9      2.078      2.747
REMARK  10 active torsions:
REMARK  status: ('A' for Active; 'I' for Inactive)
REMARK    1  A    between atoms: C2_2  and  C3_3 
REMARK    2  A    between atoms: C3_3  and  C4_4 
REMARK    3  A    between atoms: C6_6  and  C7_7 
REMARK    4  A    between atoms: C7_7  and  S1_8 
REMARK    5  A    between atoms: S1_8  and  C8_9 
REMARK    6  A    between atoms: C14_15  and  O1_16 
REMARK    7  A    between atoms: C15_17  and  O2_18 
REMARK    8  A    between atoms: O2_18  and  C16_19 
REMARK    9  A    between atoms: C16_19  and  C17_20 
REMARK   10  A    between atoms: C17_20  and  C19_23 
REMARK       I    between atoms: C19_23  and  N2_24 
ROOT
HETATM    1  C17 UNL     1      26.895   1.342  54.456  1.00  0.00     0.208 C 
HETATM    2  C18 UNL     1      28.035   2.043  53.734  1.00  0.00     0.075 C 
HETATM    3  N1  UNL     1      28.885   2.559  53.213  1.00  0.00    -0.196 NA
ENDROOT
BRANCH   1   4
HETATM    4  C16 UNL     1      25.752   1.996  53.817  1.00  0.00     0.204 C 
BRANCH   4   5
HETATM    5  O2  UNL     1      24.817   2.535  53.298  1.00  0.00    -0.346 OA
BRANCH   5   6
HETATM    6  C15 UNL     1      23.660   2.688  52.468  1.00  0.00     0.103 A 
HETATM    7  C14 UNL     1      23.554   4.102  52.627  1.00  0.00     0.106 A 
HETATM    8  C6  UNL     1      22.649   4.304  51.579  1.00  0.00    -0.012 A 
HETATM    9  C5  UNL     1      22.017   3.574  50.695  1.00  0.00     0.022 A 
HETATM   10  C4  UNL     1      22.343   2.190  50.873  1.00  0.00    -0.032 A 
HETATM   11  C20 UNL     1      23.179   1.620  51.757  1.00  0.00     0.051 A 
BRANCH   7  12
HETATM   12  O1  UNL     1      24.216   4.889  53.518  1.00  0.00    -0.357 OA
HETATM   13  H12 UNL     1      25.001   5.547  53.276  1.00  0.00     0.217 HD
ENDBRANCH   7  12
BRANCH   8  14
HETATM   14  C7  UNL     1      23.070   5.780  51.262  1.00  0.00     0.121 C 
BRANCH  14  15
HETATM   15  S1  UNL     1      23.293   5.805  49.445  1.00  0.00    -0.125 SA
BRANCH  15  16
HETATM   16  C8  UNL     1      25.018   5.261  49.231  1.00  0.00     0.000 A 
HETATM   17  C9  UNL     1      25.652   6.346  48.746  1.00  0.00     0.018 A 
HETATM   18  C10 UNL     1      26.998   6.273  48.480  1.00  0.00     0.001 A 
HETATM   19  C11 UNL     1      27.546   4.976  48.710  1.00  0.00     0.000 A 
HETATM   20  C12 UNL     1      26.849   3.969  49.162  1.00  0.00     0.001 A 
HETATM   21  C13 UNL     1      25.490   3.937  49.518  1.00  0.00     0.018 A 
ENDBRANCH  15  16
ENDBRANCH  14  15
ENDBRANCH   8  14
BRANCH  10  22
HETATM   22  C3  UNL     1      21.617   1.399  49.882  1.00  0.00     0.022 C 
BRANCH  22  23
HETATM   23  C2  UNL     1      21.881   1.451  48.568  1.00  0.00    -0.035 C 
HETATM   24  C1  UNL     1      22.412   1.929  47.472  1.00  0.00     0.024 C 
ENDBRANCH  22  23
ENDBRANCH  10  22
ENDBRANCH   5   6
ENDBRANCH   4   5
ENDBRANCH   1   4
BRANCH   1  25
HETATM   25  C19 UNL     1      26.930  -0.086  54.468  1.00  0.00     0.235 C 
HETATM   26  N2  UNL     1      28.130  -0.627  54.019  1.00  0.00    -0.369 N 
HETATM   27  H16 UNL     1      28.173  -1.677  54.246  1.00  0.00     0.159 HD
HETATM   28  H17 UNL     1      28.884  -0.072  53.480  1.00  0.00     0.159 HD
HETATM   29  O3  UNL     1      25.887  -0.663  54.856  1.00  0.00    -0.272 OA
ENDBRANCH   1  25
TORSDOF 10
ENDMDL
MODEL 3
REMARK VINA RESULT:      -7.8      1.261      2.059
REMARK  10 active torsions:
REMARK  status: ('A' for Active; 'I' for Inactive)
REMARK    1  A    between atoms: C2_2  and  C3_3 
REMARK    2  A    between atoms: C3_3  and  C4_4 
REMARK    3  A    between atoms: C6_6  and  C7_7 
REMARK    4  A    between atoms: C7_7  and  S1_8 
REMARK    5  A    between atoms: S1_8  and  C8_9 
REMARK    6  A    between atoms: C14_15  and  O1_16 
REMARK    7  A    between atoms: C15_17  and  O2_18 
REMARK    8  A    between atoms: O2_18  and  C16_19 
REMARK    9  A    between atoms: C16_19  and  C17_20 
REMARK   10  A    between atoms: C17_20  and  C19_23 
REMARK       I    between atoms: C19_23  and  N2_24 
ROOT
HETATM    1  C17 UNL     1      27.463   0.496  53.201  1.00  0.00     0.208 C 
HETATM    2  C18 UNL     1      27.146  -0.972  52.965  1.00  0.00     0.075 C 
HETATM    3  N1  UNL     1      26.925  -2.058  52.782  1.00  0.00    -0.196 NA
ENDROOT
BRANCH   1   4
HETATM    4  C16 UNL     1      26.108   1.051  53.190  1.00  0.00     0.204 C 
BRANCH   4   5
HETATM    5  O2  UNL     1      24.999   1.503  53.175  1.00  0.00    -0.346 OA
BRANCH   5   6
HETATM    6  C15 UNL     1      23.644   1.692  52.753  1.00  0.00     0.103 A 
HETATM    7  C14 UNL     1      23.653   3.114  52.873  1.00  0.00     0.106 A 
HETATM    8  C6  UNL     1      22.467   3.333  52.163  1.00  0.00    -0.012 A 
HETATM    9  C5  UNL     1      21.554   2.611  51.564  1.00  0.00     0.022 A 
HETATM   10  C4  UNL     1      21.863   1.217  51.691  1.00  0.00    -0.032 A 
HETATM   11  C20 UNL     1      22.915   0.631  52.285  1.00  0.00     0.051 A 
BRANCH   7  12
HETATM   12  O1  UNL     1      24.599   3.891  53.467  1.00  0.00    -0.357 OA
HETATM   13  H12 UNL     1      24.540   4.273  54.445  1.00  0.00     0.217 HD
ENDBRANCH   7  12
BRANCH   8  14
HETATM   14  C7  UNL     1      22.823   4.773  51.659  1.00  0.00     0.121 C 
BRANCH  14  15
HETATM   15  S1  UNL     1      22.940   4.599  49.841  1.00  0.00    -0.125 SA
BRANCH  15  16
HETATM   16  C8  UNL     1      24.728   4.394  49.557  1.00  0.00     0.000 A 
HETATM   17  C9  UNL     1      25.123   5.577  49.049  1.00  0.00     0.018 A 
HETATM   18  C10 UNL     1      26.447   5.760  48.730  1.00  0.00     0.001 A 
HETATM   19  C11 UNL     1      27.242   4.593  48.936  1.00  0.00     0.000 A 
HETATM   20  C12 UNL     1      26.767   3.474  49.413  1.00  0.00     0.001 A 
HETATM   21  C13 UNL     1      25.455   3.186  49.823  1.00  0.00     0.018 A 
ENDBRANCH  15  16
ENDBRANCH  14  15
ENDBRANCH   8  14
BRANCH  10  22
HETATM   22  C3  UNL     1      20.824   0.436  51.023  1.00  0.00     0.022 C 
BRANCH  22  23
HETATM   23  C2  UNL     1      19.635   0.170  51.582  1.00  0.00    -0.035 C 
HETATM   24  C1  UNL     1      18.361  -0.130  51.601  1.00  0.00     0.024 C 
ENDBRANCH  22  23
ENDBRANCH  10  22
ENDBRANCH   5   6
ENDBRANCH   4   5
ENDBRANCH   1   4
BRANCH   1  25
HETATM   25  C19 UNL     1      28.301   0.795  54.319  1.00  0.00     0.235 C 
HETATM   26  N2  UNL     1      28.914   2.041  54.251  1.00  0.00    -0.369 N 
HETATM   27  H16 UNL     1      29.354   2.291  55.200  1.00  0.00     0.159 HD
HETATM   28  H17 UNL     1      28.973   2.642  53.356  1.00  0.00     0.159 HD
HETATM   29  O3  UNL     1      28.393  -0.097  55.196  1.00  0.00    -0.272 OA
ENDBRANCH   1  25
TORSDOF 10
ENDMDL
MODEL 4
REMARK VINA RESULT:      -7.5      2.959      6.522
REMARK  10 active torsions:
REMARK  status: ('A' for Active; 'I' for Inactive)
REMARK    1  A    between atoms: C2_2  and  C3_3 
REMARK    2  A    between atoms: C3_3  and  C4_4 
REMARK    3  A    between atoms: C6_6  and  C7_7 
REMARK    4  A    between atoms: C7_7  and  S1_8 
REMARK    5  A    between atoms: S1_8  and  C8_9 
REMARK    6  A    between atoms: C14_15  and  O1_16 
REMARK    7  A    between atoms: C15_17  and  O2_18 
REMARK    8  A    between atoms: O2_18  and  C16_19 
REMARK    9  A    between atoms: C16_19  and  C17_20 
REMARK   10  A    between atoms: C17_20  and  C19_23 
REMARK       I    between atoms: C19_23  and  N2_24 
ROOT
HETATM    1  C17 UNL     1      25.801   5.270  49.359  1.00  0.00     0.208 C 
HETATM    2  C18 UNL     1      27.210   4.965  48.877  1.00  0.00     0.075 C 
HETATM    3  N1  UNL     1      28.248   4.748  48.507  1.00  0.00    -0.196 NA
ENDROOT
BRANCH   1   4
HETATM    4  C16 UNL     1      25.525   4.049  50.117  1.00  0.00     0.204 C 
BRANCH   4   5
HETATM    5  O2  UNL     1      25.295   3.052  50.740  1.00  0.00    -0.346 OA
BRANCH   5   6
HETATM    6  C15 UNL     1      25.477   2.021  51.716  1.00  0.00     0.103 A 
HETATM    7  C14 UNL     1      24.294   2.315  52.459  1.00  0.00     0.106 A 
HETATM    8  C6  UNL     1      24.286   1.130  53.204  1.00  0.00    -0.012 A 
HETATM    9  C5  UNL     1      25.026   0.056  53.317  1.00  0.00     0.022 A 
HETATM   10  C4  UNL     1      26.156   0.139  52.441  1.00  0.00    -0.032 A 
HETATM   11  C20 UNL     1      26.488   1.108  51.571  1.00  0.00     0.051 A 
BRANCH   7  12
HETATM   12  O1  UNL     1      23.493   3.408  52.345  1.00  0.00    -0.357 OA
HETATM   13  H12 UNL     1      23.831   4.389  52.172  1.00  0.00     0.217 HD
ENDBRANCH   7  12
BRANCH   8  14
HETATM   14  C7  UNL     1      22.738   1.078  53.441  1.00  0.00     0.121 C 
BRANCH  14  15
HETATM   15  S1  UNL     1      22.191  -0.409  52.525  1.00  0.00    -0.125 SA
BRANCH  15  16
HETATM   16  C8  UNL     1      20.899   0.236  51.416  1.00  0.00     0.000 A 
HETATM   17  C9  UNL     1      21.579   0.734  50.365  1.00  0.00     0.018 A 
HETATM   18  C10 UNL     1      20.884   1.297  49.323  1.00  0.00     0.001 A 
HETATM   19  C11 UNL     1      19.474   1.330  49.540  1.00  0.00     0.000 A 
HETATM   20  C12 UNL     1      18.899   0.842  50.606  1.00  0.00     0.001 A 
HETATM   21  C13 UNL     1      19.494   0.201  51.704  1.00  0.00     0.018 A 
ENDBRANCH  15  16
ENDBRANCH  14  15
ENDBRANCH   8  14
BRANCH  10  22
HETATM   22  C3  UNL     1      26.969  -1.066  52.594  1.00  0.00     0.022 C 
BRANCH  22  23
HETATM   23  C2  UNL     1      28.213  -1.051  53.094  1.00  0.00    -0.035 C 
HETATM   24  C1  UNL     1      29.276  -0.522  53.645  1.00  0.00     0.024 C 
ENDBRANCH  22  23
ENDBRANCH  10  22
ENDBRANCH   5   6
ENDBRANCH   4   5
ENDBRANCH   1   4
BRANCH   1  25
HETATM   25  C19 UNL     1      25.610   6.525  50.015  1.00  0.00     0.235 C 
HETATM   26  N2  UNL     1      26.683   7.400  49.889  1.00  0.00    -0.369 N 
HETATM   27  H16 UNL     1      26.401   8.385  50.217  1.00  0.00     0.159 HD
HETATM   28  H17 UNL     1      27.667   7.111  49.552  1.00  0.00     0.159 HD
HETATM   29  O3  UNL     1      24.526   6.669  50.630  1.00  0.00    -0.272 OA
ENDBRANCH   1  25
TORSDOF 10
ENDMDL
MODEL 5
REMARK VINA RESULT:      -7.1      3.298      6.614
REMARK  10 active torsions:
REMARK  status: ('A' for Active; 'I' for Inactive)
REMARK    1  A    between atoms: C2_2  and  C3_3 
REMARK    2  A    between atoms: C3_3  and  C4_4 
REMARK    3  A    between atoms: C6_6  and  C7_7 
REMARK    4  A    between atoms: C7_7  and  S1_8 
REMARK    5  A    between atoms: S1_8  and  C8_9 
REMARK    6  A    between atoms: C14_15  and  O1_16 
REMARK    7  A    between atoms: C15_17  and  O2_18 
REMARK    8  A    between atoms: O2_18  and  C16_19 
REMARK    9  A    between atoms: C16_19  and  C17_20 
REMARK   10  A    between atoms: C17_20  and  C19_23 
REMARK       I    between atoms: C19_23  and  N2_24 
ROOT
HETATM    1  C17 UNL     1      27.370   6.459  48.260  1.00  0.00     0.208 C 
HETATM    2  C18 UNL     1      28.640   5.622  48.277  1.00  0.00     0.075 C 
HETATM    3  N1  UNL     1      29.581   5.010  48.275  1.00  0.00    -0.196 NA
ENDROOT
BRANCH   1   4
HETATM    4  C16 UNL     1      26.473   5.570  48.999  1.00  0.00     0.204 C 
BRANCH   4   5
HETATM    5  O2  UNL     1      25.737   4.840  49.598  1.00  0.00    -0.346 OA
BRANCH   5   6
HETATM    6  C15 UNL     1      24.991   3.655  49.900  1.00  0.00     0.103 A 
HETATM    7  C14 UNL     1      25.976   3.078  50.756  1.00  0.00     0.106 A 
HETATM    8  C6  UNL     1      25.140   2.100  51.308  1.00  0.00    -0.012 A 
HETATM    9  C5  UNL     1      23.898   1.708  51.180  1.00  0.00     0.022 A 
HETATM   10  C4  UNL     1      23.228   2.500  50.192  1.00  0.00    -0.032 A 
HETATM   11  C20 UNL     1      23.697   3.531  49.468  1.00  0.00     0.051 A 
BRANCH   7  12
HETATM   12  O1  UNL     1      27.264   3.479  50.928  1.00  0.00    -0.357 OA
HETATM   13  H12 UNL     1      27.605   4.101  51.705  1.00  0.00     0.217 HD
ENDBRANCH   7  12
BRANCH   8  14
HETATM   14  C7  UNL     1      25.897   1.968  52.674  1.00  0.00     0.121 C 
BRANCH  14  15
HETATM   15  S1  UNL     1      25.579   0.245  53.202  1.00  0.00    -0.125 SA
BRANCH  15  16
HETATM   16  C8  UNL     1      27.249  -0.475  53.299  1.00  0.00     0.000 A 
HETATM   17  C9  UNL     1      27.088  -1.748  52.890  1.00  0.00     0.018 A 
HETATM   18  C10 UNL     1      28.181  -2.578  52.835  1.00  0.00     0.001 A 
HETATM   19  C11 UNL     1      29.380  -1.959  53.300  1.00  0.00     0.000 A 
HETATM   20  C12 UNL     1      29.440  -0.719  53.703  1.00  0.00     0.001 A 
HETATM   21  C13 UNL     1      28.410   0.234  53.753  1.00  0.00     0.018 A 
ENDBRANCH  15  16
ENDBRANCH  14  15
ENDBRANCH   8  14
BRANCH  10  22
HETATM   22  C3  UNL     1      21.849   2.035  50.063  1.00  0.00     0.022 C 
BRANCH  22  23
HETATM   23  C2  UNL     1      21.287   1.166  50.916  1.00  0.00    -0.035 C 
HETATM   24  C1  UNL     1      20.419   0.272  51.315  1.00  0.00     0.024 C 
ENDBRANCH  22  23
ENDBRANCH  10  22
ENDBRANCH   5   6
ENDBRANCH   4   5
ENDBRANCH   1   4
BRANCH   1  25
HETATM   25  C19 UNL     1      27.493   7.811  48.706  1.00  0.00     0.235 C 
HETATM   26  N2  UNL     1      26.277   8.438  48.956  1.00  0.00    -0.369 N 
HETATM   27  H16 UNL     1      26.436   9.363  49.481  1.00  0.00     0.159 HD
HETATM   28  H17 UNL     1      25.320   8.063  48.626  1.00  0.00     0.159 HD
HETATM   29  O3  UNL     1      28.660   8.261  48.796  1.00  0.00    -0.272 OA
ENDBRANCH   1  25
TORSDOF 10
ENDMDL
MODEL 6
REMARK VINA RESULT:      -7.1      3.273      6.999
REMARK  10 active torsions:
REMARK  status: ('A' for Active; 'I' for Inactive)
REMARK    1  A    between atoms: C2_2  and  C3_3 
REMARK    2  A    between atoms: C3_3  and  C4_4 
REMARK    3  A    between atoms: C6_6  and  C7_7 
REMARK    4  A    between atoms: C7_7  and  S1_8 
REMARK    5  A    between atoms: S1_8  and  C8_9 
REMARK    6  A    between atoms: C14_15  and  O1_16 
REMARK    7  A    between atoms: C15_17  and  O2_18 
REMARK    8  A    between atoms: O2_18  and  C16_19 
REMARK    9  A    between atoms: C16_19  and  C17_20 
REMARK   10  A    between atoms: C17_20  and  C19_23 
REMARK       I    between atoms: C19_23  and  N2_24 
ROOT
HETATM    1  C17 UNL     1      27.443   5.940  48.278  1.00  0.00     0.208 C 
HETATM    2  C18 UNL     1      28.901   5.514  48.349  1.00  0.00     0.075 C 
HETATM    3  N1  UNL     1      29.980   5.206  48.388  1.00  0.00    -0.196 NA
ENDROOT
BRANCH   1   4
HETATM    4  C16 UNL     1      26.823   4.842  49.020  1.00  0.00     0.204 C 
BRANCH   4   5
HETATM    5  O2  UNL     1      26.319   3.939  49.623  1.00  0.00    -0.346 OA
BRANCH   5   6
HETATM    6  C15 UNL     1      25.972   3.113  50.741  1.00  0.00     0.103 A 
HETATM    7  C14 UNL     1      24.559   3.227  50.572  1.00  0.00     0.106 A 
HETATM    8  C6  UNL     1      24.220   2.180  51.437  1.00  0.00    -0.012 A 
HETATM    9  C5  UNL     1      24.842   1.327  52.210  1.00  0.00     0.022 A 
HETATM   10  C4  UNL     1      26.256   1.547  52.153  1.00  0.00    -0.032 A 
HETATM   11  C20 UNL     1      26.949   2.443  51.429  1.00  0.00     0.051 A 
BRANCH   7  12
HETATM   12  O1  UNL     1      23.888   4.086  49.758  1.00  0.00    -0.357 OA
HETATM   13  H12 UNL     1      24.241   4.444  48.834  1.00  0.00     0.217 HD
ENDBRANCH   7  12
BRANCH   8  14
HETATM   14  C7  UNL     1      22.863   1.811  50.745  1.00  0.00     0.121 C 
BRANCH  14  15
HETATM   15  S1  UNL     1      21.589   2.565  51.820  1.00  0.00    -0.125 SA
BRANCH  15  16
HETATM   16  C8  UNL     1      20.681   1.123  52.464  1.00  0.00     0.000 A 
HETATM   17  C9  UNL     1      21.423   0.699  53.505  1.00  0.00     0.018 A 
HETATM   18  C10 UNL     1      21.000  -0.389  54.230  1.00  0.00     0.001 A 
HETATM   19  C11 UNL     1      19.807  -0.979  53.714  1.00  0.00     0.000 A 
HETATM   20  C12 UNL     1      19.163  -0.512  52.679  1.00  0.00     0.001 A 
HETATM   21  C13 UNL     1      19.466   0.614  51.896  1.00  0.00     0.018 A 
ENDBRANCH  15  16
ENDBRANCH  14  15
ENDBRANCH   8  14
BRANCH  10  22
HETATM   22  C3  UNL     1      26.924   0.589  53.031  1.00  0.00     0.022 C 
BRANCH  22  23
HETATM   23  C2  UNL     1      26.806  -0.739  52.889  1.00  0.00    -0.035 C 
HETATM   24  C1  UNL     1      26.740  -1.872  52.237  1.00  0.00     0.024 C 
ENDBRANCH  22  23
ENDBRANCH  10  22
ENDBRANCH   5   6
ENDBRANCH   4   5
ENDBRANCH   1   4
BRANCH   1  25
HETATM   25  C19 UNL     1      27.149   7.277  48.688  1.00  0.00     0.235 C 
HETATM   26  N2  UNL     1      26.618   7.373  49.969  1.00  0.00    -0.369 N 
HETATM   27  H16 UNL     1      26.615   8.398  50.296  1.00  0.00     0.159 HD
HETATM   28  H17 UNL     1      26.224   6.537  50.529  1.00  0.00     0.159 HD
HETATM   29  O3  UNL     1      27.385   8.178  47.849  1.00  0.00    -0.272 OA
ENDBRANCH   1  25
TORSDOF 10
ENDMDL
MODEL 7
REMARK VINA RESULT:      -7.0      2.150      3.129
REMARK  10 active torsions:
REMARK  status: ('A' for Active; 'I' for Inactive)
REMARK    1  A    between atoms: C2_2  and  C3_3 
REMARK    2  A    between atoms: C3_3  and  C4_4 
REMARK    3  A    between atoms: C6_6  and  C7_7 
REMARK    4  A    between atoms: C7_7  and  S1_8 
REMARK    5  A    between atoms: S1_8  and  C8_9 
REMARK    6  A    between atoms: C14_15  and  O1_16 
REMARK    7  A    between atoms: C15_17  and  O2_18 
REMARK    8  A    between atoms: O2_18  and  C16_19 
REMARK    9  A    between atoms: C16_19  and  C17_20 
REMARK   10  A    between atoms: C17_20  and  C19_23 
REMARK       I    between atoms: C19_23  and  N2_24 
ROOT
HETATM    1  C17 UNL     1      27.470   0.717  52.622  1.00  0.00     0.208 C 
HETATM    2  C18 UNL     1      27.254  -0.769  52.863  1.00  0.00     0.075 C 
HETATM    3  N1  UNL     1      27.107  -1.869  53.033  1.00  0.00    -0.196 NA
ENDROOT
BRANCH   1   4
HETATM    4  C16 UNL     1      26.079   1.172  52.588  1.00  0.00     0.204 C 
BRANCH   4   5
HETATM    5  O2  UNL     1      24.943   1.547  52.555  1.00  0.00    -0.346 OA
BRANCH   5   6
HETATM    6  C15 UNL     1      23.532   1.544  52.799  1.00  0.00     0.103 A 
HETATM    7  C14 UNL     1      23.393   2.963  52.861  1.00  0.00     0.106 A 
HETATM    8  C6  UNL     1      21.996   2.982  52.770  1.00  0.00    -0.012 A 
HETATM    9  C5  UNL     1      21.024   2.111  52.679  1.00  0.00     0.022 A 
HETATM   10  C4  UNL     1      21.550   0.779  52.690  1.00  0.00    -0.032 A 
HETATM   11  C20 UNL     1      22.828   0.370  52.749  1.00  0.00     0.051 A 
BRANCH   7  12
HETATM   12  O1  UNL     1      24.385   3.892  52.930  1.00  0.00    -0.357 OA
HETATM   13  H12 UNL     1      25.392   3.720  52.678  1.00  0.00     0.217 HD
ENDBRANCH   7  12
BRANCH   8  14
HETATM   14  C7  UNL     1      21.879   4.403  52.118  1.00  0.00     0.121 C 
BRANCH  14  15
HETATM   15  S1  UNL     1      20.513   4.234  50.913  1.00  0.00    -0.125 SA
BRANCH  15  16
HETATM   16  C8  UNL     1      21.221   3.154  49.629  1.00  0.00     0.000 A 
HETATM   17  C9  UNL     1      22.384   3.748  49.297  1.00  0.00     0.018 A 
HETATM   18  C10 UNL     1      23.185   3.168  48.344  1.00  0.00     0.001 A 
HETATM   19  C11 UNL     1      22.613   1.993  47.769  1.00  0.00     0.000 A 
HETATM   20  C12 UNL     1      21.463   1.499  48.137  1.00  0.00     0.001 A 
HETATM   21  C13 UNL     1      20.587   1.968  49.129  1.00  0.00     0.018 A 
ENDBRANCH  15  16
ENDBRANCH  14  15
ENDBRANCH   8  14
BRANCH  10  22
HETATM   22  C3  UNL     1      20.443  -0.171  52.597  1.00  0.00     0.022 C 
BRANCH  22  23
HETATM   23  C2  UNL     1      19.252   0.142  52.067  1.00  0.00    -0.035 C 
HETATM   24  C1  UNL     1      18.205  -0.016  51.297  1.00  0.00     0.024 C 
ENDBRANCH  22  23
ENDBRANCH  10  22
ENDBRANCH   5   6
ENDBRANCH   4   5
ENDBRANCH   1   4
BRANCH   1  25
HETATM   25  C19 UNL     1      28.371   1.381  53.509  1.00  0.00     0.235 C 
HETATM   26  N2  UNL     1      27.885   2.581  54.018  1.00  0.00    -0.369 N 
HETATM   27  H16 UNL     1      28.507   2.922  54.827  1.00  0.00     0.159 HD
HETATM   28  H17 UNL     1      27.031   3.109  53.621  1.00  0.00     0.159 HD
HETATM   29  O3  UNL     1      29.477   0.820  53.699  1.00  0.00    -0.272 OA
ENDBRANCH   1  25
TORSDOF 10
ENDMDL
MODEL 8
REMARK VINA RESULT:      -6.9      2.064      6.031
REMARK  10 active torsions:
REMARK  status: ('A' for Active; 'I' for Inactive)
REMARK    1  A    between atoms: C2_2  and  C3_3 
REMARK    2  A    between atoms: C3_3  and  C4_4 
REMARK    3  A    between atoms: C6_6  and  C7_7 
REMARK    4  A    between atoms: C7_7  and  S1_8 
REMARK    5  A    between atoms: S1_8  and  C8_9 
REMARK    6  A    between atoms: C14_15  and  O1_16 
REMARK    7  A    between atoms: C15_17  and  O2_18 
REMARK    8  A    between atoms: O2_18  and  C16_19 
REMARK    9  A    between atoms: C16_19  and  C17_20 
REMARK   10  A    between atoms: C17_20  and  C19_23 
REMARK       I    between atoms: C19_23  and  N2_24 
ROOT
HETATM    1  C17 UNL     1      27.454   0.524  52.977  1.00  0.00     0.208 C 
HETATM    2  C18 UNL     1      26.243  -0.230  53.505  1.00  0.00     0.075 C 
HETATM    3  N1  UNL     1      25.359  -0.799  53.898  1.00  0.00    -0.196 NA
ENDROOT
BRANCH   1   4
HETATM    4  C16 UNL     1      26.826   1.282  51.894  1.00  0.00     0.204 C 
BRANCH   4   5
HETATM    5  O2  UNL     1      26.315   1.898  51.003  1.00  0.00    -0.346 OA
BRANCH   5   6
HETATM    6  C15 UNL     1      25.933   3.032  50.216  1.00  0.00     0.103 A 
HETATM    7  C14 UNL     1      24.553   3.002  50.579  1.00  0.00     0.106 A 
HETATM    8  C6  UNL     1      24.241   4.275  50.090  1.00  0.00    -0.012 A 
HETATM    9  C5  UNL     1      24.861   5.252  49.478  1.00  0.00     0.022 A 
HETATM   10  C4  UNL     1      26.229   4.899  49.241  1.00  0.00    -0.032 A 
HETATM   11  C20 UNL     1      26.888   3.778  49.579  1.00  0.00     0.051 A 
BRANCH   7  12
HETATM   12  O1  UNL     1      23.889   2.013  51.236  1.00  0.00    -0.357 OA
HETATM   13  H12 UNL     1      24.202   1.010  51.294  1.00  0.00     0.217 HD
ENDBRANCH   7  12
BRANCH   8  14
HETATM   14  C7  UNL     1      23.049   4.555  51.068  1.00  0.00     0.121 C 
BRANCH  14  15
HETATM   15  S1  UNL     1      21.575   4.591  49.983  1.00  0.00    -0.125 SA
BRANCH  15  16
HETATM   16  C8  UNL     1      20.752   3.008  50.348  1.00  0.00     0.000 A 
HETATM   17  C9  UNL     1      20.486   3.066  51.667  1.00  0.00     0.018 A 
HETATM   18  C10 UNL     1      19.844   2.011  52.269  1.00  0.00     0.001 A 
HETATM   19  C11 UNL     1      19.592   0.924  51.377  1.00  0.00     0.000 A 
HETATM   20  C12 UNL     1      19.908   0.945  50.111  1.00  0.00     0.001 A 
HETATM   21  C13 UNL     1      20.512   1.979  49.377  1.00  0.00     0.018 A 
ENDBRANCH  15  16
ENDBRANCH  14  15
ENDBRANCH   8  14
BRANCH  10  22
HETATM   22  C3  UNL     1      26.893   6.002  48.549  1.00  0.00     0.022 C 
BRANCH  22  23
HETATM   23  C2  UNL     1      28.178   5.961  48.171  1.00  0.00    -0.035 C 
HETATM   24  C1  UNL     1      29.458   6.224  48.248  1.00  0.00     0.024 C 
ENDBRANCH  22  23
ENDBRANCH  10  22
ENDBRANCH   5   6
ENDBRANCH   4   5
ENDBRANCH   1   4
BRANCH   1  25
HETATM   25  C19 UNL     1      28.224   1.245  53.940  1.00  0.00     0.235 C 
HETATM   26  N2  UNL     1      28.082   2.626  53.862  1.00  0.00    -0.369 N 
HETATM   27  H16 UNL     1      28.512   3.095  54.730  1.00  0.00     0.159 HD
HETATM   28  H17 UNL     1      27.642   3.146  53.024  1.00  0.00     0.159 HD
HETATM   29  O3  UNL     1      28.936   0.555  54.709  1.00  0.00    -0.272 OA
ENDBRANCH   1  25
TORSDOF 10
ENDMDL
MODEL 9
REMARK VINA RESULT:      -6.8      2.701      4.605
REMARK  10 active torsions:
REMARK  status: ('A' for Active; 'I' for Inactive)
REMARK    1  A    between atoms: C2_2  and  C3_3 
REMARK    2  A    between atoms: C3_3  and  C4_4 
REMARK    3  A    between atoms: C6_6  and  C7_7 
REMARK    4  A    between atoms: C7_7  and  S1_8 
REMARK    5  A    between atoms: S1_8  and  C8_9 
REMARK    6  A    between atoms: C14_15  and  O1_16 
REMARK    7  A    between atoms: C15_17  and  O2_18 
REMARK    8  A    between atoms: O2_18  and  C16_19 
REMARK    9  A    between atoms: C16_19  and  C17_20 
REMARK   10  A    between atoms: C17_20  and  C19_23 
REMARK       I    between atoms: C19_23  and  N2_24 
ROOT
HETATM    1  C17 UNL     1      27.622   0.427  52.897  1.00  0.00     0.208 C 
HETATM    2  C18 UNL     1      27.570  -1.092  52.952  1.00  0.00     0.075 C 
HETATM    3  N1  UNL     1      27.546  -2.214  52.987  1.00  0.00    -0.196 NA
ENDROOT
BRANCH   1   4
HETATM    4  C16 UNL     1      26.223   0.715  52.577  1.00  0.00     0.204 C 
BRANCH   4   5
HETATM    5  O2  UNL     1      25.079   0.947  52.310  1.00  0.00    -0.346 OA
BRANCH   5   6
HETATM    6  C15 UNL     1      23.651   0.891  52.407  1.00  0.00     0.103 A 
HETATM    7  C14 UNL     1      23.397   1.701  51.259  1.00  0.00     0.106 A 
HETATM    8  C6  UNL     1      22.038   1.387  51.151  1.00  0.00    -0.012 A 
HETATM    9  C5  UNL     1      21.162   0.657  51.794  1.00  0.00     0.022 A 
HETATM   10  C4  UNL     1      21.779   0.023  52.922  1.00  0.00    -0.032 A 
HETATM   11  C20 UNL     1      23.057   0.075  53.332  1.00  0.00     0.051 A 
BRANCH   7  12
HETATM   12  O1  UNL     1      24.291   2.449  50.557  1.00  0.00    -0.357 OA
HETATM   13  H12 UNL     1      24.728   2.167  49.642  1.00  0.00     0.217 HD
ENDBRANCH   7  12
BRANCH   8  14
HETATM   14  C7  UNL     1      21.923   1.621  49.606  1.00  0.00     0.121 C 
BRANCH  14  15
HETATM   15  S1  UNL     1      21.041   3.218  49.456  1.00  0.00    -0.125 SA
BRANCH  15  16
HETATM   16  C8  UNL     1      19.426   2.875  50.224  1.00  0.00     0.000 A 
HETATM   17  C9  UNL     1      18.862   1.955  49.418  1.00  0.00     0.018 A 
HETATM   18  C10 UNL     1      17.616   1.465  49.729  1.00  0.00     0.001 A 
HETATM   19  C11 UNL     1      17.045   2.075  50.885  1.00  0.00     0.000 A 
HETATM   20  C12 UNL     1      17.657   2.982  51.597  1.00  0.00     0.001 A 
HETATM   21  C13 UNL     1      18.942   3.518  51.411  1.00  0.00     0.018 A 
ENDBRANCH  15  16
ENDBRANCH  14  15
ENDBRANCH   8  14
BRANCH  10  22
HETATM   22  C3  UNL     1      20.778  -0.776  53.625  1.00  0.00     0.022 C 
BRANCH  22  23
HETATM   23  C2  UNL     1      19.465  -0.705  53.359  1.00  0.00    -0.035 C 
HETATM   24  C1  UNL     1      18.244  -1.157  53.232  1.00  0.00     0.024 C 
ENDBRANCH  22  23
ENDBRANCH  10  22
ENDBRANCH   5   6
ENDBRANCH   4   5
ENDBRANCH   1   4
BRANCH   1  25
HETATM   25  C19 UNL     1      28.202   1.085  54.024  1.00  0.00     0.235 C 
HETATM   26  N2  UNL     1      28.729   0.220  54.976  1.00  0.00    -0.369 N 
HETATM   27  H16 UNL     1      29.328   0.765  55.684  1.00  0.00     0.159 HD
HETATM   28  H17 UNL     1      28.524  -0.839  55.017  1.00  0.00     0.159 HD
HETATM   29  O3  UNL     1      28.146   2.338  54.023  1.00  0.00    -0.272 OA
ENDBRANCH   1  25
TORSDOF 10
ENDMDL
