MODEL 1
REMARK VINA RESULT:      -8.2      0.000      0.000
REMARK  4 active torsions:
REMARK  status: ('A' for Active; 'I' for Inactive)
REMARK    1  A    between atoms: C1_2  and  C2_3 
REMARK       I    between atoms: C2_3  and  N1_5 
REMARK    2  A    between atoms: N1_5  and  C3_6 
REMARK    3  A    between atoms: C8_13  and  N4_14 
REMARK    4  A    between atoms: N4_14  and  C9_15 
ROOT
HETATM    1  C3  UNL     1      24.930  -0.591  54.344  1.00  0.00     0.036 A 
HETATM    2  C4  UNL     1      24.301  -1.342  55.317  1.00  0.00     0.032 A 
HETATM    3  C5  UNL     1      22.924  -1.421  55.380  1.00  0.00     0.035 A 
HETATM    4  C6  UNL     1      22.163  -0.730  54.448  1.00  0.00     0.072 A 
HETATM    5  N2  UNL     1      20.839  -0.741  54.430  1.00  0.00    -0.241 NA
HETATM    6  C7  UNL     1      20.126  -0.058  53.514  1.00  0.00     0.236 A 
HETATM    7  N3  UNL     1      20.789   0.658  52.592  1.00  0.00    -0.224 NA
HETATM    8  C8  UNL     1      22.144   0.730  52.528  1.00  0.00     0.142 A 
HETATM    9  C15 UNL     1      22.832   0.016  53.483  1.00  0.00     0.041 A 
HETATM   10  C16 UNL     1      24.204   0.109  53.400  1.00  0.00     0.047 A 
ENDROOT
BRANCH   8  11
HETATM   11  N4  UNL     1      22.642   1.533  51.502  1.00  0.00    -0.340 N 
HETATM   12  H6  UNL     1      22.486   0.806  50.744  1.00  0.00     0.167 HD
BRANCH  11  13
HETATM   13  C9  UNL     1      23.194   2.810  51.240  1.00  0.00     0.035 A 
HETATM   14  C10 UNL     1      22.541   3.953  51.637  1.00  0.00     0.029 A 
HETATM   15  C11 UNL     1      23.149   5.159  51.353  1.00  0.00     0.004 A 
HETATM   16  C12 UNL     1      24.355   5.199  50.701  1.00  0.00     0.019 A 
HETATM   17  C13 UNL     1      24.983   4.028  50.315  1.00  0.00     0.013 A 
HETATM   18 BR1  UNL     1      26.679   4.020  49.396  1.00  0.00    -0.051 Br
HETATM   19  C14 UNL     1      24.405   2.810  50.583  1.00  0.00     0.048 A 
ENDBRANCH  11  13
ENDBRANCH   8  11
BRANCH   1  20
HETATM   20  N1  UNL     1      26.338  -0.634  54.446  1.00  0.00    -0.321 N 
HETATM   21  C2  UNL     1      27.289   0.425  54.602  1.00  0.00     0.283 C 
HETATM   22  O2  UNL     1      26.865   1.609  54.665  1.00  0.00    -0.265 OA
HETATM   23  H2  UNL     1      26.596  -1.652  54.382  1.00  0.00     0.169 HD
BRANCH  21  24
HETATM   24  C1  UNL     1      28.714   0.061  54.677  1.00  0.00     0.332 C 
HETATM   25  O1  UNL     1      29.125  -1.054  54.233  1.00  0.00    -0.297 OA
ENDBRANCH  21  24
ENDBRANCH   1  20
TORSDOF 4
ENDMDL
MODEL 2
REMARK VINA RESULT:      -8.0      2.492      3.704
REMARK  4 active torsions:
REMARK  status: ('A' for Active; 'I' for Inactive)
REMARK    1  A    between atoms: C1_2  and  C2_3 
REMARK       I    between atoms: C2_3  and  N1_5 
REMARK    2  A    between atoms: N1_5  and  C3_6 
REMARK    3  A    between atoms: C8_13  and  N4_14 
REMARK    4  A    between atoms: N4_14  and  C9_15 
ROOT
HETATM    1  C3  UNL     1      26.165   0.187  52.465  1.00  0.00     0.036 A 
HETATM    2  C4  UNL     1      25.117  -0.176  53.288  1.00  0.00     0.032 A 
HETATM    3  C5  UNL     1      23.930   0.529  53.285  1.00  0.00     0.035 A 
HETATM    4  C6  UNL     1      23.793   1.620  52.440  1.00  0.00     0.072 A 
HETATM    5  N2  UNL     1      22.696   2.359  52.370  1.00  0.00    -0.241 NA
HETATM    6  C7  UNL     1      22.592   3.416  51.541  1.00  0.00     0.236 A 
HETATM    7  N3  UNL     1      23.642   3.726  50.765  1.00  0.00    -0.224 NA
HETATM    8  C8  UNL     1      24.808   3.028  50.765  1.00  0.00     0.142 A 
HETATM    9  C15 UNL     1      24.870   1.956  51.626  1.00  0.00     0.041 A 
HETATM   10  C16 UNL     1      26.063   1.268  51.611  1.00  0.00     0.047 A 
ENDROOT
BRANCH   8  11
HETATM   11  N4  UNL     1      25.783   3.513  49.893  1.00  0.00    -0.340 N 
HETATM   12  H6  UNL     1      26.057   2.553  49.531  1.00  0.00     0.167 HD
BRANCH  11  13
HETATM   13  C9  UNL     1      26.395   4.707  49.440  1.00  0.00     0.035 A 
HETATM   14  C10 UNL     1      27.556   4.666  48.705  1.00  0.00     0.029 A 
HETATM   15  C11 UNL     1      28.085   5.872  48.293  1.00  0.00     0.004 A 
HETATM   16  C12 UNL     1      27.466   7.054  48.611  1.00  0.00     0.019 A 
HETATM   17  C13 UNL     1      26.298   7.056  49.354  1.00  0.00     0.013 A 
HETATM   18 BR1  UNL     1      25.381   8.685  49.832  1.00  0.00    -0.051 Br
HETATM   19  C14 UNL     1      25.745   5.872  49.780  1.00  0.00     0.048 A 
ENDBRANCH  11  13
ENDBRANCH   8  11
BRANCH   1  20
HETATM   20  N1  UNL     1      27.291  -0.652  52.613  1.00  0.00    -0.321 N 
HETATM   21  C2  UNL     1      28.451  -0.510  53.442  1.00  0.00     0.283 C 
HETATM   22  O2  UNL     1      28.540   0.506  54.180  1.00  0.00    -0.265 OA
HETATM   23  H2  UNL     1      27.128  -1.464  51.964  1.00  0.00     0.169 HD
BRANCH  21  24
HETATM   24  C1  UNL     1      29.474  -1.567  53.376  1.00  0.00     0.332 C 
HETATM   25  O1  UNL     1      29.159  -2.787  53.518  1.00  0.00    -0.297 OA
ENDBRANCH  21  24
ENDBRANCH   1  20
TORSDOF 4
ENDMDL
MODEL 3
REMARK VINA RESULT:      -8.0      1.263      1.607
REMARK  4 active torsions:
REMARK  status: ('A' for Active; 'I' for Inactive)
REMARK    1  A    between atoms: C1_2  and  C2_3 
REMARK       I    between atoms: C2_3  and  N1_5 
REMARK    2  A    between atoms: N1_5  and  C3_6 
REMARK    3  A    between atoms: C8_13  and  N4_14 
REMARK    4  A    between atoms: N4_14  and  C9_15 
ROOT
HETATM    1  C3  UNL     1      24.737  -0.577  54.227  1.00  0.00     0.036 A 
HETATM    2  C4  UNL     1      24.026  -1.241  55.208  1.00  0.00     0.032 A 
HETATM    3  C5  UNL     1      22.646  -1.289  55.180  1.00  0.00     0.035 A 
HETATM    4  C6  UNL     1      21.968  -0.656  54.148  1.00  0.00     0.072 A 
HETATM    5  N2  UNL     1      20.648  -0.644  54.039  1.00  0.00    -0.241 NA
HETATM    6  C7  UNL     1      20.016  -0.019  53.028  1.00  0.00     0.236 A 
HETATM    7  N3  UNL     1      20.756   0.613  52.104  1.00  0.00    -0.224 NA
HETATM    8  C8  UNL     1      22.114   0.655  52.129  1.00  0.00     0.142 A 
HETATM    9  C15 UNL     1      22.718   0.002  53.180  1.00  0.00     0.041 A 
HETATM   10  C16 UNL     1      24.095   0.063  53.186  1.00  0.00     0.047 A 
ENDROOT
BRANCH   8  11
HETATM   11  N4  UNL     1      22.700   1.369  51.084  1.00  0.00    -0.340 N 
HETATM   12  H6  UNL     1      22.640   0.566  50.391  1.00  0.00     0.167 HD
BRANCH  11  13
HETATM   13  C9  UNL     1      23.249   2.631  50.752  1.00  0.00     0.035 A 
HETATM   14  C10 UNL     1      24.539   2.735  50.286  1.00  0.00     0.029 A 
HETATM   15  C11 UNL     1      24.997   3.999  49.975  1.00  0.00     0.004 A 
HETATM   16  C12 UNL     1      24.188   5.096  50.129  1.00  0.00     0.019 A 
HETATM   17  C13 UNL     1      22.895   4.952  50.602  1.00  0.00     0.013 A 
HETATM   18 BR1  UNL     1      21.709   6.455  50.840  1.00  0.00    -0.051 Br
HETATM   19  C14 UNL     1      22.408   3.707  50.920  1.00  0.00     0.048 A 
ENDBRANCH  11  13
ENDBRANCH   8  11
BRANCH   1  20
HETATM   20  N1  UNL     1      26.134  -0.639  54.430  1.00  0.00    -0.321 N 
HETATM   21  C2  UNL     1      27.084   0.407  54.661  1.00  0.00     0.283 C 
HETATM   22  O2  UNL     1      26.671   1.596  54.702  1.00  0.00    -0.265 OA
HETATM   23  H2  UNL     1      26.384  -1.660  54.379  1.00  0.00     0.169 HD
BRANCH  21  24
HETATM   24  C1  UNL     1      28.495   0.024  54.836  1.00  0.00     0.332 C 
HETATM   25  O1  UNL     1      28.990  -0.952  54.194  1.00  0.00    -0.297 OA
ENDBRANCH  21  24
ENDBRANCH   1  20
TORSDOF 4
ENDMDL
MODEL 4
REMARK VINA RESULT:      -7.9      2.801      5.345
REMARK  4 active torsions:
REMARK  status: ('A' for Active; 'I' for Inactive)
REMARK    1  A    between atoms: C1_2  and  C2_3 
REMARK       I    between atoms: C2_3  and  N1_5 
REMARK    2  A    between atoms: N1_5  and  C3_6 
REMARK    3  A    between atoms: C8_13  and  N4_14 
REMARK    4  A    between atoms: N4_14  and  C9_15 
ROOT
HETATM    1  C3  UNL     1      26.180   1.866  51.693  1.00  0.00     0.036 A 
HETATM    2  C4  UNL     1      26.622   2.518  50.558  1.00  0.00     0.032 A 
HETATM    3  C5  UNL     1      25.750   3.228  49.757  1.00  0.00     0.035 A 
HETATM    4  C6  UNL     1      24.407   3.284  50.103  1.00  0.00     0.072 A 
HETATM    5  N2  UNL     1      23.496   3.935  49.396  1.00  0.00    -0.241 NA
HETATM    6  C7  UNL     1      22.198   3.970  49.754  1.00  0.00     0.236 A 
HETATM    7  N3  UNL     1      21.823   3.317  50.866  1.00  0.00    -0.224 NA
HETATM    8  C8  UNL     1      22.684   2.623  51.655  1.00  0.00     0.142 A 
HETATM    9  C15 UNL     1      24.000   2.615  51.252  1.00  0.00     0.041 A 
HETATM   10  C16 UNL     1      24.852   1.901  52.067  1.00  0.00     0.047 A 
ENDROOT
BRANCH   8  11
HETATM   11  N4  UNL     1      22.099   2.007  52.762  1.00  0.00    -0.340 N 
HETATM   12  H6  UNL     1      22.050   2.897  53.338  1.00  0.00     0.167 HD
BRANCH  11  13
HETATM   13  C9  UNL     1      21.638   0.757  53.240  1.00  0.00     0.035 A 
HETATM   14  C10 UNL     1      22.478  -0.084  53.932  1.00  0.00     0.029 A 
HETATM   15  C11 UNL     1      21.951  -1.280  54.373  1.00  0.00     0.004 A 
HETATM   16  C12 UNL     1      20.641  -1.603  54.126  1.00  0.00     0.019 A 
HETATM   17  C13 UNL     1      19.825  -0.732  53.426  1.00  0.00     0.013 A 
HETATM   18 BR1  UNL     1      17.975  -1.128  53.046  1.00  0.00    -0.051 Br
HETATM   19  C14 UNL     1      20.319   0.468  52.972  1.00  0.00     0.048 A 
ENDBRANCH  11  13
ENDBRANCH   8  11
BRANCH   1  20
HETATM   20  N1  UNL     1      27.219   1.196  52.377  1.00  0.00    -0.321 N 
HETATM   21  C2  UNL     1      27.902   1.537  53.589  1.00  0.00     0.283 C 
HETATM   22  O2  UNL     1      27.568   2.591  54.191  1.00  0.00    -0.265 OA
HETATM   23  H2  UNL     1      27.429   0.339  51.805  1.00  0.00     0.169 HD
BRANCH  21  24
HETATM   24  C1  UNL     1      28.960   0.627  54.058  1.00  0.00     0.332 C 
HETATM   25  O1  UNL     1      28.693  -0.333  54.843  1.00  0.00    -0.297 OA
ENDBRANCH  21  24
ENDBRANCH   1  20
TORSDOF 4
ENDMDL
MODEL 5
REMARK VINA RESULT:      -7.8      3.314      4.886
REMARK  4 active torsions:
REMARK  status: ('A' for Active; 'I' for Inactive)
REMARK    1  A    between atoms: C1_2  and  C2_3 
REMARK       I    between atoms: C2_3  and  N1_5 
REMARK    2  A    between atoms: N1_5  and  C3_6 
REMARK    3  A    between atoms: C8_13  and  N4_14 
REMARK    4  A    between atoms: N4_14  and  C9_15 
ROOT
HETATM    1  C3  UNL     1      26.319   2.026  52.334  1.00  0.00     0.036 A 
HETATM    2  C4  UNL     1      25.216   1.946  53.163  1.00  0.00     0.032 A 
HETATM    3  C5  UNL     1      24.082   2.693  52.916  1.00  0.00     0.035 A 
HETATM    4  C6  UNL     1      24.054   3.537  51.815  1.00  0.00     0.072 A 
HETATM    5  N2  UNL     1      23.015   4.295  51.500  1.00  0.00    -0.241 NA
HETATM    6  C7  UNL     1      23.017   5.108  50.426  1.00  0.00     0.236 A 
HETATM    7  N3  UNL     1      24.116   5.148  49.656  1.00  0.00    -0.224 NA
HETATM    8  C8  UNL     1      25.230   4.408  49.898  1.00  0.00     0.142 A 
HETATM    9  C15 UNL     1      25.183   3.591  51.004  1.00  0.00     0.041 A 
HETATM   10  C16 UNL     1      26.325   2.855  51.230  1.00  0.00     0.047 A 
ENDROOT
BRANCH   8  11
HETATM   11  N4  UNL     1      26.269   4.596  48.986  1.00  0.00    -0.340 N 
HETATM   12  H6  UNL     1      26.199   3.619  48.576  1.00  0.00     0.167 HD
BRANCH  11  13
HETATM   13  C9  UNL     1      27.215   5.550  48.539  1.00  0.00     0.035 A 
HETATM   14  C10 UNL     1      26.835   6.845  48.275  1.00  0.00     0.029 A 
HETATM   15  C11 UNL     1      27.817   7.717  47.852  1.00  0.00     0.004 A 
HETATM   16  C12 UNL     1      29.114   7.295  47.707  1.00  0.00     0.019 A 
HETATM   17  C13 UNL     1      29.459   5.983  47.982  1.00  0.00     0.013 A 
HETATM   18 BR1  UNL     1      31.265   5.330  47.797  1.00  0.00    -0.051 Br
HETATM   19  C14 UNL     1      28.505   5.089  48.405  1.00  0.00     0.048 A 
ENDBRANCH  11  13
ENDBRANCH   8  11
BRANCH   1  20
HETATM   20  N1  UNL     1      27.377   1.189  52.753  1.00  0.00    -0.321 N 
HETATM   21  C2  UNL     1      28.495   1.465  53.604  1.00  0.00     0.283 C 
HETATM   22  O2  UNL     1      28.610   2.621  54.090  1.00  0.00    -0.265 OA
HETATM   23  H2  UNL     1      27.198   0.256  52.301  1.00  0.00     0.169 HD
BRANCH  21  24
HETATM   24  C1  UNL     1      29.449   0.372  53.858  1.00  0.00     0.332 C 
HETATM   25  O1  UNL     1      29.067  -0.715  54.389  1.00  0.00    -0.297 OA
ENDBRANCH  21  24
ENDBRANCH   1  20
TORSDOF 4
ENDMDL
MODEL 6
REMARK VINA RESULT:      -7.6      3.778      5.983
REMARK  4 active torsions:
REMARK  status: ('A' for Active; 'I' for Inactive)
REMARK    1  A    between atoms: C1_2  and  C2_3 
REMARK       I    between atoms: C2_3  and  N1_5 
REMARK    2  A    between atoms: N1_5  and  C3_6 
REMARK    3  A    between atoms: C8_13  and  N4_14 
REMARK    4  A    between atoms: N4_14  and  C9_15 
ROOT
HETATM    1  C3  UNL     1      20.931   1.023  51.675  1.00  0.00     0.036 A 
HETATM    2  C4  UNL     1      19.876   0.501  52.398  1.00  0.00     0.032 A 
HETATM    3  C5  UNL     1      20.093  -0.260  53.529  1.00  0.00     0.035 A 
HETATM    4  C6  UNL     1      21.395  -0.504  53.941  1.00  0.00     0.072 A 
HETATM    5  N2  UNL     1      21.702  -1.225  55.009  1.00  0.00    -0.241 NA
HETATM    6  C7  UNL     1      22.976  -1.448  55.384  1.00  0.00     0.236 A 
HETATM    7  N3  UNL     1      23.963  -0.920  54.643  1.00  0.00    -0.224 NA
HETATM    8  C8  UNL     1      23.748  -0.166  53.533  1.00  0.00     0.142 A 
HETATM    9  C15 UNL     1      22.431   0.037  53.187  1.00  0.00     0.041 A 
HETATM   10  C16 UNL     1      22.239   0.800  52.056  1.00  0.00     0.047 A 
ENDROOT
BRANCH   8  11
HETATM   11  N4  UNL     1      24.904   0.285  52.896  1.00  0.00    -0.340 N 
HETATM   12  H6  UNL     1      24.475   0.272  51.924  1.00  0.00     0.167 HD
BRANCH  11  13
HETATM   13  C9  UNL     1      26.241   0.683  53.140  1.00  0.00     0.035 A 
HETATM   14  C10 UNL     1      26.556   2.008  53.329  1.00  0.00     0.029 A 
HETATM   15  C11 UNL     1      27.880   2.313  53.572  1.00  0.00     0.004 A 
HETATM   16  C12 UNL     1      28.830   1.325  53.618  1.00  0.00     0.019 A 
HETATM   17  C13 UNL     1      28.475   0.002  53.421  1.00  0.00     0.013 A 
HETATM   18 BR1  UNL     1      29.765  -1.432  53.474  1.00  0.00    -0.051 Br
HETATM   19  C14 UNL     1      27.166  -0.336  53.178  1.00  0.00     0.048 A 
ENDBRANCH  11  13
ENDBRANCH   8  11
BRANCH   1  20
HETATM   20  N1  UNL     1      20.508   1.770  50.553  1.00  0.00    -0.321 N 
HETATM   21  C2  UNL     1      20.178   3.159  50.436  1.00  0.00     0.283 C 
HETATM   22  O2  UNL     1      20.260   3.885  51.461  1.00  0.00    -0.265 OA
HETATM   23  H2  UNL     1      20.468   1.086  49.755  1.00  0.00     0.169 HD
BRANCH  21  24
HETATM   24  C1  UNL     1      19.760   3.654  49.114  1.00  0.00     0.332 C 
HETATM   25  O1  UNL     1      19.127   2.905  48.308  1.00  0.00    -0.297 OA
ENDBRANCH  21  24
ENDBRANCH   1  20
TORSDOF 4
ENDMDL
MODEL 7
REMARK VINA RESULT:      -7.5      3.344      5.124
REMARK  4 active torsions:
REMARK  status: ('A' for Active; 'I' for Inactive)
REMARK    1  A    between atoms: C1_2  and  C2_3 
REMARK       I    between atoms: C2_3  and  N1_5 
REMARK    2  A    between atoms: N1_5  and  C3_6 
REMARK    3  A    between atoms: C8_13  and  N4_14 
REMARK    4  A    between atoms: N4_14  and  C9_15 
ROOT
HETATM    1  C3  UNL     1      26.523   2.236  52.087  1.00  0.00     0.036 A 
HETATM    2  C4  UNL     1      27.545   2.011  52.989  1.00  0.00     0.032 A 
HETATM    3  C5  UNL     1      27.395   1.114  54.028  1.00  0.00     0.035 A 
HETATM    4  C6  UNL     1      26.196   0.430  54.165  1.00  0.00     0.072 A 
HETATM    5  N2  UNL     1      25.957  -0.445  55.129  1.00  0.00    -0.241 NA
HETATM    6  C7  UNL     1      24.781  -1.092  55.239  1.00  0.00     0.236 A 
HETATM    7  N3  UNL     1      23.822  -0.833  54.337  1.00  0.00    -0.224 NA
HETATM    8  C8  UNL     1      23.973   0.047  53.312  1.00  0.00     0.142 A 
HETATM    9  C15 UNL     1      25.190   0.684  53.238  1.00  0.00     0.041 A 
HETATM   10  C16 UNL     1      25.316   1.574  52.193  1.00  0.00     0.047 A 
ENDROOT
BRANCH   8  11
HETATM   11  N4  UNL     1      22.857   0.183  52.485  1.00  0.00    -0.340 N 
HETATM   12  H6  UNL     1      23.126  -0.623  51.848  1.00  0.00     0.167 HD
BRANCH  11  13
HETATM   13  C9  UNL     1      21.684   0.952  52.297  1.00  0.00     0.035 A 
HETATM   14  C10 UNL     1      21.700   2.315  52.480  1.00  0.00     0.029 A 
HETATM   15  C11 UNL     1      20.519   2.995  52.267  1.00  0.00     0.004 A 
HETATM   16  C12 UNL     1      19.384   2.326  51.888  1.00  0.00     0.019 A 
HETATM   17  C13 UNL     1      19.404   0.953  51.714  1.00  0.00     0.013 A 
HETATM   18 BR1  UNL     1      17.840  -0.045  51.182  1.00  0.00    -0.051 Br
HETATM   19  C14 UNL     1      20.564   0.245  51.917  1.00  0.00     0.048 A 
ENDBRANCH  11  13
ENDBRANCH   8  11
BRANCH   1  20
HETATM   20  N1  UNL     1      26.866   3.187  51.101  1.00  0.00    -0.321 N 
HETATM   21  C2  UNL     1      26.149   3.615  49.937  1.00  0.00     0.283 C 
HETATM   22  O2  UNL     1      25.025   3.099  49.700  1.00  0.00    -0.265 OA
HETATM   23  H2  UNL     1      27.809   3.559  51.380  1.00  0.00     0.169 HD
BRANCH  21  24
HETATM   24  C1  UNL     1      26.776   4.638  49.084  1.00  0.00     0.332 C 
HETATM   25  O1  UNL     1      27.955   4.483  48.640  1.00  0.00    -0.297 OA
ENDBRANCH  21  24
ENDBRANCH   1  20
TORSDOF 4
ENDMDL
MODEL 8
REMARK VINA RESULT:      -7.4      2.975      4.779
REMARK  4 active torsions:
REMARK  status: ('A' for Active; 'I' for Inactive)
REMARK    1  A    between atoms: C1_2  and  C2_3 
REMARK       I    between atoms: C2_3  and  N1_5 
REMARK    2  A    between atoms: N1_5  and  C3_6 
REMARK    3  A    between atoms: C8_13  and  N4_14 
REMARK    4  A    between atoms: N4_14  and  C9_15 
ROOT
HETATM    1  C3  UNL     1      26.474   2.211  51.942  1.00  0.00     0.036 A 
HETATM    2  C4  UNL     1      27.552   1.570  52.521  1.00  0.00     0.032 A 
HETATM    3  C5  UNL     1      27.371   0.540  53.422  1.00  0.00     0.035 A 
HETATM    4  C6  UNL     1      26.081   0.147  53.750  1.00  0.00     0.072 A 
HETATM    5  N2  UNL     1      25.808  -0.826  54.606  1.00  0.00    -0.241 NA
HETATM    6  C7  UNL     1      24.545  -1.184  54.908  1.00  0.00     0.236 A 
HETATM    7  N3  UNL     1      23.535  -0.526  54.318  1.00  0.00    -0.224 NA
HETATM    8  C8  UNL     1      23.715   0.484  53.427  1.00  0.00     0.142 A 
HETATM    9  C15 UNL     1      25.021   0.817  53.148  1.00  0.00     0.041 A 
HETATM   10  C16 UNL     1      25.177   1.846  52.246  1.00  0.00     0.047 A 
ENDROOT
BRANCH   8  11
HETATM   11  N4  UNL     1      22.539   1.048  52.931  1.00  0.00    -0.340 N 
HETATM   12  H6  UNL     1      22.385   1.676  53.774  1.00  0.00     0.167 HD
BRANCH  11  13
HETATM   13  C9  UNL     1      21.658   1.020  51.824  1.00  0.00     0.035 A 
HETATM   14  C10 UNL     1      20.354   0.609  51.973  1.00  0.00     0.029 A 
HETATM   15  C11 UNL     1      19.556   0.620  50.848  1.00  0.00     0.004 A 
HETATM   16  C12 UNL     1      20.057   1.026  49.637  1.00  0.00     0.019 A 
HETATM   17  C13 UNL     1      21.375   1.431  49.524  1.00  0.00     0.013 A 
HETATM   18 BR1  UNL     1      22.137   2.013  47.850  1.00  0.00    -0.051 Br
HETATM   19  C14 UNL     1      22.197   1.433  50.626  1.00  0.00     0.048 A 
ENDBRANCH  11  13
ENDBRANCH   8  11
BRANCH   1  20
HETATM   20  N1  UNL     1      26.862   3.236  51.051  1.00  0.00    -0.321 N 
HETATM   21  C2  UNL     1      26.279   3.658  49.813  1.00  0.00     0.283 C 
HETATM   22  O2  UNL     1      25.251   3.060  49.398  1.00  0.00    -0.265 OA
HETATM   23  H2  UNL     1      27.719   3.673  51.476  1.00  0.00     0.169 HD
BRANCH  21  24
HETATM   24  C1  UNL     1      26.922   4.772  49.097  1.00  0.00     0.332 C 
HETATM   25  O1  UNL     1      28.082   4.642  48.598  1.00  0.00    -0.297 OA
ENDBRANCH  21  24
ENDBRANCH   1  20
TORSDOF 4
ENDMDL
MODEL 9
REMARK VINA RESULT:      -7.3      3.331      5.643
REMARK  4 active torsions:
REMARK  status: ('A' for Active; 'I' for Inactive)
REMARK    1  A    between atoms: C1_2  and  C2_3 
REMARK       I    between atoms: C2_3  and  N1_5 
REMARK    2  A    between atoms: N1_5  and  C3_6 
REMARK    3  A    between atoms: C8_13  and  N4_14 
REMARK    4  A    between atoms: N4_14  and  C9_15 
ROOT
HETATM    1  C3  UNL     1      22.217   2.731  51.410  1.00  0.00     0.036 A 
HETATM    2  C4  UNL     1      20.897   2.798  51.812  1.00  0.00     0.032 A 
HETATM    3  C5  UNL     1      20.399   1.943  52.775  1.00  0.00     0.035 A 
HETATM    4  C6  UNL     1      21.243   1.001  53.344  1.00  0.00     0.072 A 
HETATM    5  N2  UNL     1      20.857   0.136  54.270  1.00  0.00    -0.241 NA
HETATM    6  C7  UNL     1      21.698  -0.770  54.804  1.00  0.00     0.236 A 
HETATM    7  N3  UNL     1      22.969  -0.793  54.374  1.00  0.00    -0.224 NA
HETATM    8  C8  UNL     1      23.459   0.052  53.430  1.00  0.00     0.142 A 
HETATM    9  C15 UNL     1      22.565   0.963  52.913  1.00  0.00     0.041 A 
HETATM   10  C16 UNL     1      23.084   1.805  51.955  1.00  0.00     0.047 A 
ENDROOT
BRANCH   8  11
HETATM   11  N4  UNL     1      24.805  -0.136  53.114  1.00  0.00    -0.340 N 
HETATM   12  H6  UNL     1      24.633  -1.010  52.536  1.00  0.00     0.167 HD
BRANCH  11  13
HETATM   13  C9  UNL     1      26.095   0.413  53.312  1.00  0.00     0.035 A 
HETATM   14  C10 UNL     1      26.264   1.768  53.474  1.00  0.00     0.029 A 
HETATM   15  C11 UNL     1      27.551   2.224  53.671  1.00  0.00     0.004 A 
HETATM   16  C12 UNL     1      28.607   1.350  53.703  1.00  0.00     0.019 A 
HETATM   17  C13 UNL     1      28.399  -0.008  53.535  1.00  0.00     0.013 A 
HETATM   18 BR1  UNL     1      29.843  -1.287  53.569  1.00  0.00    -0.051 Br
HETATM   19  C14 UNL     1      27.129  -0.495  53.336  1.00  0.00     0.048 A 
ENDBRANCH  11  13
ENDBRANCH   8  11
BRANCH   1  20
HETATM   20  N1  UNL     1      22.534   3.684  50.417  1.00  0.00    -0.321 N 
HETATM   21  C2  UNL     1      22.839   3.511  49.029  1.00  0.00     0.283 C 
HETATM   22  O2  UNL     1      22.840   2.344  48.555  1.00  0.00    -0.265 OA
HETATM   23  H2  UNL     1      22.510   4.618  50.902  1.00  0.00     0.169 HD
BRANCH  21  24
HETATM   24  C1  UNL     1      23.136   4.716  48.237  1.00  0.00     0.332 C 
HETATM   25  O1  UNL     1      23.696   5.723  48.768  1.00  0.00    -0.297 OA
ENDBRANCH  21  24
ENDBRANCH   1  20
TORSDOF 4
ENDMDL
