MODEL 1
REMARK VINA RESULT:      -8.2      0.000      0.000
REMARK  5 active torsions:
REMARK  status: ('A' for Active; 'I' for Inactive)
REMARK    1  A    between atoms: N1_1  and  C1_2 
REMARK    2  A    between atoms: C1_2  and  O1_3 
REMARK    3  A    between atoms: O1_3  and  C2_4 
REMARK    4  A    between atoms: C2_4  and  C3_5 
REMARK    5  A    between atoms: C9_12  and  C10_13 
ROOT
HETATM    1  C3  UNL     1      26.596  -0.206  53.249  1.00  0.00    -0.035 A 
HETATM    2  C4  UNL     1      25.649  -0.776  53.963  1.00  0.00     0.096 A 
HETATM    3  N2  UNL     1      24.285  -0.270  53.872  1.00  0.00    -0.360 N 
HETATM    4  C5  UNL     1      23.241  -0.850  54.653  1.00  0.00     0.128 C 
HETATM    5  C6  UNL     1      22.183  -1.580  53.912  1.00  0.00     0.020 C 
HETATM    6  C7  UNL     1      21.334  -0.753  52.979  1.00  0.00     0.002 C 
HETATM    7  C8  UNL     1      20.647   0.368  53.636  1.00  0.00     0.014 C 
HETATM    8  C9  UNL     1      20.007   1.428  52.781  1.00  0.00     0.055 C 
HETATM    9  C16 UNL     1      21.081   2.163  52.005  1.00  0.00    -0.017 A 
HETATM   10 BR1  UNL     1      21.854   3.412  50.797  1.00  0.00    -0.121 Br
HETATM   11  C17 UNL     1      22.428   1.981  52.031  1.00  0.00     0.112 A 
HETATM   12  C18 UNL     1      23.788   1.592  52.247  1.00  0.00     0.019 C 
HETATM   13  C19 UNL     1      24.586   0.749  52.926  1.00  0.00     0.013 A 
HETATM   14  C20 UNL     1      25.994   0.937  52.529  1.00  0.00     0.094 A 
ENDROOT
BRANCH   1  15
HETATM   15  C2  UNL     1      28.052  -0.326  52.986  1.00  0.00     0.206 C 
BRANCH  15  16
HETATM   16  O1  UNL     1      28.584  -1.161  53.975  1.00  0.00    -0.358 OA
BRANCH  16  17
HETATM   17  C1  UNL     1      29.343  -2.142  53.344  1.00  0.00     0.434 C 
BRANCH  17  18
HETATM   18  N1  UNL     1      28.466  -3.266  53.111  1.00  0.00     0.101 N 
HETATM   19  H1  UNL     1      27.987  -3.227  52.187  1.00  0.00     0.315 HD
HETATM   20  H2  UNL     1      28.961  -4.202  53.196  1.00  0.00     0.315 HD
ENDBRANCH  17  18
ENDBRANCH  16  17
ENDBRANCH  15  16
ENDBRANCH   1  15
BRANCH   8  21
HETATM   21  C10 UNL     1      19.019   0.913  51.847  1.00  0.00    -0.049 A 
HETATM   22  C11 UNL     1      18.115  -0.031  52.347  1.00  0.00     0.008 A 
HETATM   23  C12 UNL     1      17.097  -0.627  51.593  1.00  0.00     0.001 A 
HETATM   24  C13 UNL     1      16.966  -0.272  50.278  1.00  0.00     0.000 A 
HETATM   25  C14 UNL     1      17.823   0.646  49.737  1.00  0.00     0.001 A 
HETATM   26  C15 UNL     1      18.803   1.197  50.528  1.00  0.00     0.008 A 
ENDBRANCH   8  21
TORSDOF 5
ENDMDL
MODEL 2
REMARK VINA RESULT:      -8.1      4.212      8.604
REMARK  5 active torsions:
REMARK  status: ('A' for Active; 'I' for Inactive)
REMARK    1  A    between atoms: N1_1  and  C1_2 
REMARK    2  A    between atoms: C1_2  and  O1_3 
REMARK    3  A    between atoms: O1_3  and  C2_4 
REMARK    4  A    between atoms: C2_4  and  C3_5 
REMARK    5  A    between atoms: C9_12  and  C10_13 
ROOT
HETATM    1  C3  UNL     1      21.843   2.784  48.656  1.00  0.00    -0.035 A 
HETATM    2  C4  UNL     1      22.981   3.431  48.782  1.00  0.00     0.096 A 
HETATM    3  N2  UNL     1      23.851   3.129  49.912  1.00  0.00    -0.360 N 
HETATM    4  C5  UNL     1      25.080   3.832  50.092  1.00  0.00     0.128 C 
HETATM    5  C6  UNL     1      26.327   3.044  49.930  1.00  0.00     0.020 C 
HETATM    6  C7  UNL     1      26.550   1.940  50.934  1.00  0.00     0.002 C 
HETATM    7  C8  UNL     1      26.556   2.399  52.331  1.00  0.00     0.014 C 
HETATM    8  C9  UNL     1      26.482   1.374  53.430  1.00  0.00     0.055 C 
HETATM    9  C16 UNL     1      25.145   0.664  53.365  1.00  0.00    -0.017 A 
HETATM   10 BR1  UNL     1      23.763  -0.559  53.826  1.00  0.00    -0.121 Br
HETATM   11  C17 UNL     1      24.111   0.869  52.507  1.00  0.00     0.112 A 
HETATM   12  C18 UNL     1      23.187   1.283  51.496  1.00  0.00     0.019 C 
HETATM   13  C19 UNL     1      23.002   2.131  50.468  1.00  0.00     0.013 A 
HETATM   14  C20 UNL     1      21.698   1.889  49.824  1.00  0.00     0.094 A 
ENDROOT
BRANCH   1  15
HETATM   15  C2  UNL     1      20.670   2.709  47.749  1.00  0.00     0.206 C 
BRANCH  15  16
HETATM   16  O1  UNL     1      19.531   2.588  48.554  1.00  0.00    -0.358 OA
BRANCH  16  17
HETATM   17  C1  UNL     1      18.468   3.187  47.884  1.00  0.00     0.434 C 
BRANCH  17  18
HETATM   18  N1  UNL     1      18.559   2.778  46.502  1.00  0.00     0.101 N 
HETATM   19  H1  UNL     1      17.966   1.952  46.278  1.00  0.00     0.315 HD
HETATM   20  H2  UNL     1      18.320   3.559  45.823  1.00  0.00     0.315 HD
ENDBRANCH  17  18
ENDBRANCH  16  17
ENDBRANCH  15  16
ENDBRANCH   1  15
BRANCH   8  21
HETATM   21  C10 UNL     1      27.544   0.383  53.383  1.00  0.00    -0.049 A 
HETATM   22  C11 UNL     1      28.835   0.833  53.682  1.00  0.00     0.008 A 
HETATM   23  C12 UNL     1      29.974   0.018  53.690  1.00  0.00     0.001 A 
HETATM   24  C13 UNL     1      29.829  -1.309  53.389  1.00  0.00     0.000 A 
HETATM   25  C14 UNL     1      28.589  -1.802  53.089  1.00  0.00     0.001 A 
HETATM   26  C15 UNL     1      27.508  -0.953  53.098  1.00  0.00     0.008 A 
ENDBRANCH   8  21
TORSDOF 5
ENDMDL
MODEL 3
REMARK VINA RESULT:      -7.4      1.685      1.787
REMARK  5 active torsions:
REMARK  status: ('A' for Active; 'I' for Inactive)
REMARK    1  A    between atoms: N1_1  and  C1_2 
REMARK    2  A    between atoms: C1_2  and  O1_3 
REMARK    3  A    between atoms: O1_3  and  C2_4 
REMARK    4  A    between atoms: C2_4  and  C3_5 
REMARK    5  A    between atoms: C9_12  and  C10_13 
ROOT
HETATM    1  C3  UNL     1      26.419  -0.607  53.025  1.00  0.00    -0.035 A 
HETATM    2  C4  UNL     1      25.281  -0.974  53.575  1.00  0.00     0.096 A 
HETATM    3  N2  UNL     1      24.116  -0.108  53.446  1.00  0.00    -0.360 N 
HETATM    4  C5  UNL     1      22.874  -0.465  54.053  1.00  0.00     0.128 C 
HETATM    5  C6  UNL     1      21.755  -0.791  53.136  1.00  0.00     0.020 C 
HETATM    6  C7  UNL     1      21.262   0.335  52.262  1.00  0.00     0.002 C 
HETATM    7  C8  UNL     1      20.820   1.521  53.011  1.00  0.00     0.014 C 
HETATM    8  C9  UNL     1      20.580   2.803  52.263  1.00  0.00     0.055 C 
HETATM    9  C16 UNL     1      21.890   3.300  51.684  1.00  0.00    -0.017 A 
HETATM   10 BR1  UNL     1      23.094   4.418  50.727  1.00  0.00    -0.121 Br
HETATM   11  C17 UNL     1      23.131   2.756  51.793  1.00  0.00     0.112 A 
HETATM   12  C18 UNL     1      24.309   1.990  52.061  1.00  0.00     0.019 C 
HETATM   13  C19 UNL     1      24.778   0.890  52.678  1.00  0.00     0.013 A 
HETATM   14  C20 UNL     1      26.222   0.730  52.425  1.00  0.00     0.094 A 
ENDROOT
BRANCH   1  15
HETATM   15  C2  UNL     1      27.814  -1.089  52.865  1.00  0.00     0.206 C 
BRANCH  15  16
HETATM   16  O1  UNL     1      28.456  -0.913  54.095  1.00  0.00    -0.358 OA
BRANCH  16  17
HETATM   17  C1  UNL     1      29.784  -0.581  53.842  1.00  0.00     0.434 C 
BRANCH  17  18
HETATM   18  N1  UNL     1      29.819   0.841  53.588  1.00  0.00     0.101 N 
HETATM   19  H1  UNL     1      30.157   1.079  52.633  1.00  0.00     0.315 HD
HETATM   20  H2  UNL     1      28.879   1.311  53.742  1.00  0.00     0.315 HD
ENDBRANCH  17  18
ENDBRANCH  16  17
ENDBRANCH  15  16
ENDBRANCH   1  15
BRANCH   8  21
HETATM   21  C10 UNL     1      19.606   2.685  51.191  1.00  0.00    -0.049 A 
HETATM   22  C11 UNL     1      18.267   2.545  51.572  1.00  0.00     0.008 A 
HETATM   23  C12 UNL     1      17.199   2.425  50.675  1.00  0.00     0.001 A 
HETATM   24  C13 UNL     1      17.467   2.443  49.334  1.00  0.00     0.000 A 
HETATM   25  C14 UNL     1      18.759   2.578  48.905  1.00  0.00     0.001 A 
HETATM   26  C15 UNL     1      19.766   2.693  49.833  1.00  0.00     0.008 A 
ENDBRANCH   8  21
TORSDOF 5
ENDMDL
MODEL 4
REMARK VINA RESULT:      -7.3      3.122      4.465
REMARK  5 active torsions:
REMARK  status: ('A' for Active; 'I' for Inactive)
REMARK    1  A    between atoms: N1_1  and  C1_2 
REMARK    2  A    between atoms: C1_2  and  O1_3 
REMARK    3  A    between atoms: O1_3  and  C2_4 
REMARK    4  A    between atoms: C2_4  and  C3_5 
REMARK    5  A    between atoms: C9_12  and  C10_13 
ROOT
HETATM    1  C3  UNL     1      27.268   1.182  53.380  1.00  0.00    -0.035 A 
HETATM    2  C4  UNL     1      27.432   1.964  52.334  1.00  0.00     0.096 A 
HETATM    3  N2  UNL     1      26.331   2.141  51.397  1.00  0.00    -0.360 N 
HETATM    4  C5  UNL     1      26.486   2.962  50.239  1.00  0.00     0.128 C 
HETATM    5  C6  UNL     1      25.687   4.211  50.197  1.00  0.00     0.020 C 
HETATM    6  C7  UNL     1      24.189   4.041  50.153  1.00  0.00     0.002 C 
HETATM    7  C8  UNL     1      23.715   3.236  49.017  1.00  0.00     0.014 C 
HETATM    8  C9  UNL     1      22.290   2.755  49.015  1.00  0.00     0.055 C 
HETATM    9  C16 UNL     1      22.086   1.785  50.161  1.00  0.00    -0.017 A 
HETATM   10 BR1  UNL     1      21.185   0.580  51.325  1.00  0.00    -0.121 Br
HETATM   11  C17 UNL     1      22.989   1.343  51.076  1.00  0.00     0.112 A 
HETATM   12  C18 UNL     1      24.119   1.041  51.900  1.00  0.00     0.019 C 
HETATM   13  C19 UNL     1      25.425   1.296  52.097  1.00  0.00     0.013 A 
HETATM   14  C20 UNL     1      25.918   0.585  53.291  1.00  0.00     0.094 A 
ENDROOT
BRANCH   1  15
HETATM   15  C2  UNL     1      28.016   0.694  54.565  1.00  0.00     0.206 C 
BRANCH  15  16
HETATM   16  O1  UNL     1      28.078  -0.701  54.470  1.00  0.00    -0.358 OA
BRANCH  16  17
HETATM   17  C1  UNL     1      29.217  -1.029  53.740  1.00  0.00     0.434 C 
BRANCH  17  18
HETATM   18  N1  UNL     1      29.072  -2.408  53.333  1.00  0.00     0.101 N 
HETATM   19  H1  UNL     1      28.920  -3.057  54.133  1.00  0.00     0.315 HD
HETATM   20  H2  UNL     1      28.289  -2.551  52.629  1.00  0.00     0.315 HD
ENDBRANCH  17  18
ENDBRANCH  16  17
ENDBRANCH  15  16
ENDBRANCH   1  15
BRANCH   8  21
HETATM   21  C10 UNL     1      21.309   3.822  49.121  1.00  0.00    -0.049 A 
HETATM   22  C11 UNL     1      21.216   4.699  48.034  1.00  0.00     0.008 A 
HETATM   23  C12 UNL     1      20.325   5.777  47.963  1.00  0.00     0.001 A 
HETATM   24  C13 UNL     1      19.483   5.999  49.018  1.00  0.00     0.000 A 
HETATM   25  C14 UNL     1      19.531   5.172  50.107  1.00  0.00     0.001 A 
HETATM   26  C15 UNL     1      20.427   4.129  50.119  1.00  0.00     0.008 A 
ENDBRANCH   8  21
TORSDOF 5
ENDMDL
MODEL 5
REMARK VINA RESULT:      -7.1      4.341      7.322
REMARK  5 active torsions:
REMARK  status: ('A' for Active; 'I' for Inactive)
REMARK    1  A    between atoms: N1_1  and  C1_2 
REMARK    2  A    between atoms: C1_2  and  O1_3 
REMARK    3  A    between atoms: O1_3  and  C2_4 
REMARK    4  A    between atoms: C2_4  and  C3_5 
REMARK    5  A    between atoms: C9_12  and  C10_13 
ROOT
HETATM    1  C3  UNL     1      20.867  -0.221  53.270  1.00  0.00    -0.035 A 
HETATM    2  C4  UNL     1      22.066   0.176  53.636  1.00  0.00     0.096 A 
HETATM    3  N2  UNL     1      22.916   0.861  52.670  1.00  0.00    -0.360 N 
HETATM    4  C5  UNL     1      24.233   1.281  53.029  1.00  0.00     0.128 C 
HETATM    5  C6  UNL     1      24.470   2.744  53.096  1.00  0.00     0.020 C 
HETATM    6  C7  UNL     1      24.340   3.498  51.796  1.00  0.00     0.002 C 
HETATM    7  C8  UNL     1      25.228   3.006  50.731  1.00  0.00     0.014 C 
HETATM    8  C9  UNL     1      24.997   3.475  49.321  1.00  0.00     0.055 C 
HETATM    9  C16 UNL     1      23.655   2.965  48.836  1.00  0.00    -0.017 A 
HETATM   10 BR1  UNL     1      22.182   2.686  47.665  1.00  0.00    -0.121 Br
HETATM   11  C17 UNL     1      22.752   2.184  49.488  1.00  0.00     0.112 A 
HETATM   12  C18 UNL     1      21.989   1.369  50.382  1.00  0.00     0.019 C 
HETATM   13  C19 UNL     1      21.971   0.816  51.608  1.00  0.00     0.013 A 
HETATM   14  C20 UNL     1      20.702   0.100  51.836  1.00  0.00     0.094 A 
ENDROOT
BRANCH   1  15
HETATM   15  C2  UNL     1      19.677  -0.912  53.825  1.00  0.00     0.206 C 
BRANCH  15  16
HETATM   16  O1  UNL     1      18.634  -0.745  52.907  1.00  0.00    -0.358 OA
BRANCH  16  17
HETATM   17  C1  UNL     1      17.636  -1.664  53.220  1.00  0.00     0.434 C 
BRANCH  17  18
HETATM   18  N1  UNL     1      16.378  -0.956  53.153  1.00  0.00     0.101 N 
HETATM   19  H1  UNL     1      15.761  -1.290  52.385  1.00  0.00     0.315 HD
HETATM   20  H2  UNL     1      15.834  -0.994  54.064  1.00  0.00     0.315 HD
ENDBRANCH  17  18
ENDBRANCH  16  17
ENDBRANCH  15  16
ENDBRANCH   1  15
BRANCH   8  21
HETATM   21  C10 UNL     1      25.034   4.920  49.168  1.00  0.00    -0.049 A 
HETATM   22  C11 UNL     1      23.844   5.539  48.770  1.00  0.00     0.008 A 
HETATM   23  C12 UNL     1      23.697   6.919  48.580  1.00  0.00     0.001 A 
HETATM   24  C13 UNL     1      24.781   7.726  48.793  1.00  0.00     0.000 A 
HETATM   25  C14 UNL     1      25.969   7.174  49.183  1.00  0.00     0.001 A 
HETATM   26  C15 UNL     1      26.053   5.812  49.355  1.00  0.00     0.008 A 
ENDBRANCH   8  21
TORSDOF 5
ENDMDL
MODEL 6
REMARK VINA RESULT:      -7.0      4.048      4.870
REMARK  5 active torsions:
REMARK  status: ('A' for Active; 'I' for Inactive)
REMARK    1  A    between atoms: N1_1  and  C1_2 
REMARK    2  A    between atoms: C1_2  and  O1_3 
REMARK    3  A    between atoms: O1_3  and  C2_4 
REMARK    4  A    between atoms: C2_4  and  C3_5 
REMARK    5  A    between atoms: C9_12  and  C10_13 
ROOT
HETATM    1  C3  UNL     1      26.644   4.192  49.514  1.00  0.00    -0.035 A 
HETATM    2  C4  UNL     1      26.519   3.310  50.482  1.00  0.00     0.096 A 
HETATM    3  N2  UNL     1      25.218   3.124  51.112  1.00  0.00    -0.360 N 
HETATM    4  C5  UNL     1      25.055   2.193  52.182  1.00  0.00     0.128 C 
HETATM    5  C6  UNL     1      24.215   1.002  51.906  1.00  0.00     0.020 C 
HETATM    6  C7  UNL     1      22.759   1.268  51.615  1.00  0.00     0.002 C 
HETATM    7  C8  UNL     1      22.062   1.997  52.686  1.00  0.00     0.014 C 
HETATM    8  C9  UNL     1      20.701   2.572  52.404  1.00  0.00     0.055 C 
HETATM    9  C16 UNL     1      20.820   3.653  51.349  1.00  0.00    -0.017 A 
HETATM   10 BR1  UNL     1      20.279   5.016  50.138  1.00  0.00    -0.121 Br
HETATM   11  C17 UNL     1      21.936   4.114  50.722  1.00  0.00     0.112 A 
HETATM   12  C18 UNL     1      23.242   4.412  50.222  1.00  0.00     0.019 C 
HETATM   13  C19 UNL     1      24.545   4.087  50.311  1.00  0.00     0.013 A 
HETATM   14  C20 UNL     1      25.341   4.869  49.346  1.00  0.00     0.094 A 
ENDROOT
BRANCH   1  15
HETATM   15  C2  UNL     1      27.675   4.734  48.594  1.00  0.00     0.206 C 
BRANCH  15  16
HETATM   16  O1  UNL     1      27.327   6.061  48.317  1.00  0.00    -0.358 OA
BRANCH  16  17
HETATM   17  C1  UNL     1      28.473   6.723  47.884  1.00  0.00     0.434 C 
BRANCH  17  18
HETATM   18  N1  UNL     1      29.424   6.669  48.970  1.00  0.00     0.101 N 
HETATM   19  H1  UNL     1      30.018   7.521  49.037  1.00  0.00     0.315 HD
HETATM   20  H2  UNL     1      28.964   6.503  49.914  1.00  0.00     0.315 HD
ENDBRANCH  17  18
ENDBRANCH  16  17
ENDBRANCH  15  16
ENDBRANCH   1  15
BRANCH   8  21
HETATM   21  C10 UNL     1      19.727   1.587  51.961  1.00  0.00    -0.049 A 
HETATM   22  C11 UNL     1      19.523   0.486  52.800  1.00  0.00     0.008 A 
HETATM   23  C12 UNL     1      18.621  -0.552  52.535  1.00  0.00     0.001 A 
HETATM   24  C13 UNL     1      17.886  -0.500  51.383  1.00  0.00     0.000 A 
HETATM   25  C14 UNL     1      18.045   0.555  50.526  1.00  0.00     0.001 A 
HETATM   26  C15 UNL     1      18.945   1.545  50.841  1.00  0.00     0.008 A 
ENDBRANCH   8  21
TORSDOF 5
ENDMDL
MODEL 7
REMARK VINA RESULT:      -7.0      4.009      5.736
REMARK  5 active torsions:
REMARK  status: ('A' for Active; 'I' for Inactive)
REMARK    1  A    between atoms: N1_1  and  C1_2 
REMARK    2  A    between atoms: C1_2  and  O1_3 
REMARK    3  A    between atoms: O1_3  and  C2_4 
REMARK    4  A    between atoms: C2_4  and  C3_5 
REMARK    5  A    between atoms: C9_12  and  C10_13 
ROOT
HETATM    1  C3  UNL     1      26.417   0.853  52.958  1.00  0.00    -0.035 A 
HETATM    2  C4  UNL     1      26.840   1.518  51.906  1.00  0.00     0.096 A 
HETATM    3  N2  UNL     1      25.873   2.213  51.065  1.00  0.00    -0.360 N 
HETATM    4  C5  UNL     1      26.298   2.922  49.901  1.00  0.00     0.128 C 
HETATM    5  C6  UNL     1      26.153   4.398  49.932  1.00  0.00     0.020 C 
HETATM    6  C7  UNL     1      24.742   4.926  50.015  1.00  0.00     0.002 C 
HETATM    7  C8  UNL     1      23.872   4.471  48.921  1.00  0.00     0.014 C 
HETATM    8  C9  UNL     1      22.388   4.686  49.037  1.00  0.00     0.055 C 
HETATM    9  C16 UNL     1      21.851   3.866  50.193  1.00  0.00    -0.017 A 
HETATM   10 BR1  UNL     1      20.590   3.152  51.425  1.00  0.00    -0.121 Br
HETATM   11  C17 UNL     1      22.520   3.026  51.027  1.00  0.00     0.112 A 
HETATM   12  C18 UNL     1      23.447   2.212  51.751  1.00  0.00     0.019 C 
HETATM   13  C19 UNL     1      24.738   1.840  51.837  1.00  0.00     0.013 A 
HETATM   14  C20 UNL     1      24.941   0.934  52.982  1.00  0.00     0.094 A 
ENDROOT
BRANCH   1  15
HETATM   15  C2  UNL     1      26.947   0.030  54.075  1.00  0.00     0.206 C 
BRANCH  15  16
HETATM   16  O1  UNL     1      27.646   0.891  54.928  1.00  0.00    -0.358 OA
BRANCH  16  17
HETATM   17  C1  UNL     1      28.999   0.801  54.612  1.00  0.00     0.434 C 
BRANCH  17  18
HETATM   18  N1  UNL     1      29.510   2.152  54.572  1.00  0.00     0.101 N 
HETATM   19  H1  UNL     1      30.475   2.236  54.952  1.00  0.00     0.315 HD
HETATM   20  H2  UNL     1      29.493   2.571  53.596  1.00  0.00     0.315 HD
ENDBRANCH  17  18
ENDBRANCH  16  17
ENDBRANCH  15  16
ENDBRANCH   1  15
BRANCH   8  21
HETATM   21  C10 UNL     1      22.009   6.076  49.230  1.00  0.00    -0.049 A 
HETATM   22  C11 UNL     1      22.306   6.958  48.185  1.00  0.00     0.008 A 
HETATM   23  C12 UNL     1      22.008   8.326  48.197  1.00  0.00     0.001 A 
HETATM   24  C13 UNL     1      21.386   8.849  49.297  1.00  0.00     0.000 A 
HETATM   25  C14 UNL     1      21.072   8.032  50.348  1.00  0.00     0.001 A 
HETATM   26  C15 UNL     1      21.388   6.697  50.278  1.00  0.00     0.008 A 
ENDBRANCH   8  21
TORSDOF 5
ENDMDL
MODEL 8
REMARK VINA RESULT:      -6.9      5.213      7.065
REMARK  5 active torsions:
REMARK  status: ('A' for Active; 'I' for Inactive)
REMARK    1  A    between atoms: N1_1  and  C1_2 
REMARK    2  A    between atoms: C1_2  and  O1_3 
REMARK    3  A    between atoms: O1_3  and  C2_4 
REMARK    4  A    between atoms: C2_4  and  C3_5 
REMARK    5  A    between atoms: C9_12  and  C10_13 
ROOT
HETATM    1  C3  UNL     1      24.689   7.696  50.054  1.00  0.00    -0.035 A 
HETATM    2  C4  UNL     1      23.440   7.288  49.974  1.00  0.00     0.096 A 
HETATM    3  N2  UNL     1      23.144   5.869  50.114  1.00  0.00    -0.360 N 
HETATM    4  C5  UNL     1      21.803   5.391  50.007  1.00  0.00     0.128 C 
HETATM    5  C6  UNL     1      21.193   4.838  51.241  1.00  0.00     0.020 C 
HETATM    6  C7  UNL     1      21.832   3.589  51.795  1.00  0.00     0.002 C 
HETATM    7  C8  UNL     1      21.874   2.469  50.844  1.00  0.00     0.014 C 
HETATM    8  C9  UNL     1      22.730   1.275  51.166  1.00  0.00     0.055 C 
HETATM    9  C16 UNL     1      24.187   1.692  51.185  1.00  0.00    -0.017 A 
HETATM   10 BR1  UNL     1      26.074   1.537  51.371  1.00  0.00    -0.121 Br
HETATM   11  C17 UNL     1      24.728   2.915  50.937  1.00  0.00     0.112 A 
HETATM   12  C18 UNL     1      25.031   4.280  50.635  1.00  0.00     0.019 C 
HETATM   13  C19 UNL     1      24.496   5.471  50.311  1.00  0.00     0.013 A 
HETATM   14  C20 UNL     1      25.546   6.502  50.213  1.00  0.00     0.094 A 
ENDROOT
BRANCH   1  15
HETATM   15  C2  UNL     1      25.484   8.948  49.990  1.00  0.00     0.206 C 
BRANCH  15  16
HETATM   16  O1  UNL     1      26.805   8.585  49.702  1.00  0.00    -0.358 OA
BRANCH  16  17
HETATM   17  C1  UNL     1      27.534   9.752  49.492  1.00  0.00     0.434 C 
BRANCH  17  18
HETATM   18  N1  UNL     1      28.759   9.623  50.248  1.00  0.00     0.101 N 
HETATM   19  H1  UNL     1      28.720   8.870  50.965  1.00  0.00     0.315 HD
HETATM   20  H2  UNL     1      29.609   9.460  49.632  1.00  0.00     0.315 HD
ENDBRANCH  17  18
ENDBRANCH  16  17
ENDBRANCH  15  16
ENDBRANCH   1  15
BRANCH   8  21
HETATM   21  C10 UNL     1      22.405   0.644  52.435  1.00  0.00    -0.049 A 
HETATM   22  C11 UNL     1      21.050   0.583  52.776  1.00  0.00     0.008 A 
HETATM   23  C12 UNL     1      20.556   0.007  53.953  1.00  0.00     0.001 A 
HETATM   24  C13 UNL     1      21.448  -0.536  54.837  1.00  0.00     0.000 A 
HETATM   25  C14 UNL     1      22.785  -0.504  54.554  1.00  0.00     0.001 A 
HETATM   26  C15 UNL     1      23.210   0.074  53.382  1.00  0.00     0.008 A 
ENDBRANCH   8  21
TORSDOF 5
ENDMDL
MODEL 9
REMARK VINA RESULT:      -6.8      5.057      8.500
REMARK  5 active torsions:
REMARK  status: ('A' for Active; 'I' for Inactive)
REMARK    1  A    between atoms: N1_1  and  C1_2 
REMARK    2  A    between atoms: C1_2  and  O1_3 
REMARK    3  A    between atoms: O1_3  and  C2_4 
REMARK    4  A    between atoms: C2_4  and  C3_5 
REMARK    5  A    between atoms: C9_12  and  C10_13 
ROOT
HETATM    1  C3  UNL     1      22.073   4.750  47.123  1.00  0.00    -0.035 A 
HETATM    2  C4  UNL     1      23.042   5.285  47.833  1.00  0.00     0.096 A 
HETATM    3  N2  UNL     1      23.404   4.685  49.110  1.00  0.00    -0.360 N 
HETATM    4  C5  UNL     1      24.434   5.257  49.917  1.00  0.00     0.128 C 
HETATM    5  C6  UNL     1      25.673   4.457  50.081  1.00  0.00     0.020 C 
HETATM    6  C7  UNL     1      25.523   3.143  50.807  1.00  0.00     0.002 C 
HETATM    7  C8  UNL     1      24.958   3.270  52.158  1.00  0.00     0.014 C 
HETATM    8  C9  UNL     1      24.494   2.029  52.870  1.00  0.00     0.055 C 
HETATM    9  C16 UNL     1      23.321   1.429  52.122  1.00  0.00    -0.017 A 
HETATM   10 BR1  UNL     1      21.917   0.215  51.705  1.00  0.00    -0.121 Br
HETATM   11  C17 UNL     1      22.703   1.883  50.999  1.00  0.00     0.112 A 
HETATM   12  C18 UNL     1      22.240   2.568  49.831  1.00  0.00     0.019 C 
HETATM   13  C19 UNL     1      22.445   3.637  49.040  1.00  0.00     0.013 A 
HETATM   14  C20 UNL     1      21.512   3.623  47.898  1.00  0.00     0.094 A 
ENDROOT
BRANCH   1  15
HETATM   15  C2  UNL     1      21.358   4.950  45.837  1.00  0.00     0.206 C 
BRANCH  15  16
HETATM   16  O1  UNL     1      21.686   3.872  45.008  1.00  0.00    -0.358 OA
BRANCH  16  17
HETATM   17  C1  UNL     1      20.745   3.817  43.984  1.00  0.00     0.434 C 
BRANCH  17  18
HETATM   18  N1  UNL     1      20.793   5.089  43.301  1.00  0.00     0.101 N 
HETATM   19  H1  UNL     1      20.584   5.016  42.284  1.00  0.00     0.315 HD
HETATM   20  H2  UNL     1      20.145   5.813  43.729  1.00  0.00     0.315 HD
ENDBRANCH  17  18
ENDBRANCH  16  17
ENDBRANCH  15  16
ENDBRANCH   1  15
BRANCH   8  21
HETATM   21  C10 UNL     1      25.526   1.016  53.017  1.00  0.00    -0.049 A 
HETATM   22  C11 UNL     1      26.615   1.342  53.833  1.00  0.00     0.008 A 
HETATM   23  C12 UNL     1      27.694   0.488  54.091  1.00  0.00     0.001 A 
HETATM   24  C13 UNL     1      27.696  -0.752  53.514  1.00  0.00     0.000 A 
HETATM   25  C14 UNL     1      26.657  -1.125  52.707  1.00  0.00     0.001 A 
HETATM   26  C15 UNL     1      25.625  -0.242  52.492  1.00  0.00     0.008 A 
ENDBRANCH   8  21
TORSDOF 5
ENDMDL
