MODEL 1
REMARK VINA RESULT:      -8.6      0.000      0.000
REMARK  5 active torsions:
REMARK  status: ('A' for Active; 'I' for Inactive)
REMARK    1  A    between atoms: C5_7  and  N3_8 
REMARK    2  A    between atoms: N3_8  and  C6_9 
REMARK    3  A    between atoms: C10_16  and  C11_17 
REMARK    4  A    between atoms: C11_17  and  N7_18 
REMARK    5  A    between atoms: C14_21  and  N8_22 
ROOT
HETATM    1  C6  UNL     1      23.192   3.006  51.048  1.00  0.00     0.159 A 
HETATM    2  N4  UNL     1      23.966   4.127  50.961  1.00  0.00    -0.220 NA
HETATM    3  C7  UNL     1      24.101   4.680  49.721  1.00  0.00     0.258 A 
HETATM    4  N5  UNL     1      23.503   4.149  48.644  1.00  0.00    -0.161 NA
HETATM    5  N6  UNL     1      22.758   3.063  48.738  1.00  0.00    -0.240 N 
HETATM    6  C8  UNL     1      22.025   2.300  47.891  1.00  0.00     0.119 A 
HETATM    7  C9  UNL     1      21.418   1.250  48.587  1.00  0.00     0.030 A 
HETATM    8  C10 UNL     1      21.798   1.370  49.927  1.00  0.00    -0.007 A 
HETATM    9  C17 UNL     1      22.594   2.482  49.927  1.00  0.00     0.112 A 
ENDROOT
BRANCH   1  10
HETATM   10  N3  UNL     1      23.132   2.609  52.428  1.00  0.00    -0.339 N 
HETATM   11  H6  UNL     1      22.479   2.661  53.234  1.00  0.00     0.167 HD
BRANCH  10  12
HETATM   12  C5  UNL     1      24.327   1.920  52.869  1.00  0.00     0.034 A 
HETATM   13  C4  UNL     1      24.647   0.603  52.523  1.00  0.00     0.044 A 
HETATM   14  C3  UNL     1      25.788  -0.054  52.916  1.00  0.00     0.013 A 
HETATM   15  C2  UNL     1      26.299  -1.313  52.700  1.00  0.00     0.152 A 
HETATM   16  C20 UNL     1      26.694   0.613  53.707  1.00  0.00     0.064 A 
HETATM   17  N2  UNL     1      27.467  -1.364  53.349  1.00  0.00    -0.184 NA
HETATM   18  N1  UNL     1      27.730  -0.214  53.966  1.00  0.00    -0.274 N 
HETATM   19  C1  UNL     1      28.899   0.133  54.774  1.00  0.00     0.180 C 
HETATM   20  C19 UNL     1      26.465   1.901  54.095  1.00  0.00     0.034 A 
HETATM   21  C18 UNL     1      25.299   2.493  53.661  1.00  0.00     0.032 A 
ENDBRANCH  10  12
ENDBRANCH   1  10
BRANCH   8  22
HETATM   22  C11 UNL     1      21.429   0.364  50.917  1.00  0.00     0.158 C 
BRANCH  22  23
HETATM   23  N7  UNL     1      20.263   0.598  51.677  1.00  0.00    -0.408 N 
HETATM   24  C12 UNL     1      20.203   0.419  53.057  1.00  0.00     0.119 C 
HETATM   25  C13 UNL     1      19.776  -0.984  53.480  1.00  0.00     0.055 C 
HETATM   26  C14 UNL     1      18.460  -1.281  52.862  1.00  0.00     0.221 C 
HETATM   27  C15 UNL     1      17.983  -0.300  51.840  1.00  0.00     0.055 C 
HETATM   28  C16 UNL     1      19.066   0.262  50.955  1.00  0.00     0.119 C 
BRANCH  26  29
HETATM   29  N8  UNL     1      17.453  -1.331  53.933  1.00  0.00     0.083 N 
HETATM   30  H17 UNL     1      17.306  -2.338  54.228  1.00  0.00     0.313 HD
HETATM   31  H18 UNL     1      17.864  -0.855  54.767  1.00  0.00     0.313 HD
ENDBRANCH  26  29
ENDBRANCH  22  23
ENDBRANCH   8  22
TORSDOF 5
ENDMDL
MODEL 2
REMARK VINA RESULT:      -8.6      1.808      5.301
REMARK  5 active torsions:
REMARK  status: ('A' for Active; 'I' for Inactive)
REMARK    1  A    between atoms: C5_7  and  N3_8 
REMARK    2  A    between atoms: N3_8  and  C6_9 
REMARK    3  A    between atoms: C10_16  and  C11_17 
REMARK    4  A    between atoms: C11_17  and  N7_18 
REMARK    5  A    between atoms: C14_21  and  N8_22 
ROOT
HETATM    1  C6  UNL     1      23.068   1.668  52.304  1.00  0.00     0.159 A 
HETATM    2  N4  UNL     1      22.387   0.892  53.199  1.00  0.00    -0.220 NA
HETATM    3  C7  UNL     1      21.345   0.163  52.703  1.00  0.00     0.258 A 
HETATM    4  N5  UNL     1      21.010   0.207  51.405  1.00  0.00    -0.161 NA
HETATM    5  N6  UNL     1      21.674   0.961  50.549  1.00  0.00    -0.240 N 
HETATM    6  C8  UNL     1      21.617   1.219  49.219  1.00  0.00     0.119 A 
HETATM    7  C9  UNL     1      22.623   2.121  48.858  1.00  0.00     0.030 A 
HETATM    8  C10 UNL     1      23.332   2.435  50.021  1.00  0.00    -0.007 A 
HETATM    9  C17 UNL     1      22.700   1.695  50.981  1.00  0.00     0.112 A 
ENDROOT
BRANCH   1  10
HETATM   10  N3  UNL     1      24.148   2.311  53.002  1.00  0.00    -0.339 N 
HETATM   11  H6  UNL     1      24.356   3.217  53.465  1.00  0.00     0.167 HD
BRANCH  10  12
HETATM   12  C5  UNL     1      25.321   1.471  53.124  1.00  0.00     0.034 A 
HETATM   13  C4  UNL     1      25.354   0.114  52.786  1.00  0.00     0.044 A 
HETATM   14  C3  UNL     1      26.467  -0.688  52.874  1.00  0.00     0.013 A 
HETATM   15  C2  UNL     1      26.726  -2.011  52.602  1.00  0.00     0.152 A 
HETATM   16  C20 UNL     1      27.643  -0.137  53.326  1.00  0.00     0.064 A 
HETATM   17  N2  UNL     1      28.016  -2.212  52.888  1.00  0.00    -0.184 NA
HETATM   18  N1  UNL     1      28.594  -1.096  53.328  1.00  0.00    -0.274 N 
HETATM   19  C1  UNL     1      29.983  -0.897  53.741  1.00  0.00     0.180 C 
HETATM   20  C19 UNL     1      27.704   1.180  53.680  1.00  0.00     0.034 A 
HETATM   21  C18 UNL     1      26.548   1.919  53.563  1.00  0.00     0.032 A 
ENDBRANCH  10  12
ENDBRANCH   1  10
BRANCH   8  22
HETATM   22  C11 UNL     1      24.388   3.443  50.022  1.00  0.00     0.158 C 
BRANCH  22  23
HETATM   23  N7  UNL     1      23.996   4.791  49.878  1.00  0.00    -0.408 N 
HETATM   24  C12 UNL     1      24.522   5.637  48.903  1.00  0.00     0.119 C 
HETATM   25  C13 UNL     1      25.759   6.409  49.356  1.00  0.00     0.055 C 
HETATM   26  C14 UNL     1      25.413   7.177  50.577  1.00  0.00     0.221 C 
HETATM   27  C15 UNL     1      24.086   6.865  51.190  1.00  0.00     0.055 C 
HETATM   28  C16 UNL     1      23.697   5.409  51.140  1.00  0.00     0.119 C 
BRANCH  26  29
HETATM   29  N8  UNL     1      25.417   8.607  50.233  1.00  0.00     0.083 N 
HETATM   30  H17 UNL     1      25.823   8.731  49.262  1.00  0.00     0.313 HD
HETATM   31  H18 UNL     1      24.422   8.912  50.159  1.00  0.00     0.313 HD
ENDBRANCH  26  29
ENDBRANCH  22  23
ENDBRANCH   8  22
TORSDOF 5
ENDMDL
MODEL 3
REMARK VINA RESULT:      -8.4      1.879      2.643
REMARK  5 active torsions:
REMARK  status: ('A' for Active; 'I' for Inactive)
REMARK    1  A    between atoms: C5_7  and  N3_8 
REMARK    2  A    between atoms: N3_8  and  C6_9 
REMARK    3  A    between atoms: C10_16  and  C11_17 
REMARK    4  A    between atoms: C11_17  and  N7_18 
REMARK    5  A    between atoms: C14_21  and  N8_22 
ROOT
HETATM    1  C6  UNL     1      25.089   3.302  51.372  1.00  0.00     0.159 A 
HETATM    2  N4  UNL     1      26.325   3.484  50.821  1.00  0.00    -0.220 NA
HETATM    3  C7  UNL     1      26.358   3.948  49.538  1.00  0.00     0.258 A 
HETATM    4  N5  UNL     1      25.234   4.211  48.855  1.00  0.00    -0.161 NA
HETATM    5  N6  UNL     1      24.043   4.029  49.396  1.00  0.00    -0.240 N 
HETATM    6  C8  UNL     1      22.755   4.203  49.013  1.00  0.00     0.119 A 
HETATM    7  C9  UNL     1      21.888   3.847  50.051  1.00  0.00     0.030 A 
HETATM    8  C10 UNL     1      22.681   3.431  51.125  1.00  0.00    -0.007 A 
HETATM    9  C17 UNL     1      23.954   3.576  50.648  1.00  0.00     0.112 A 
ENDROOT
BRANCH   1  10
HETATM   10  N3  UNL     1      25.264   2.862  52.729  1.00  0.00    -0.339 N 
HETATM   11  H6  UNL     1      24.936   3.107  53.684  1.00  0.00     0.167 HD
BRANCH  10  12
HETATM   12  C5  UNL     1      26.163   1.733  52.845  1.00  0.00     0.034 A 
HETATM   13  C4  UNL     1      27.457   1.810  53.370  1.00  0.00     0.044 A 
HETATM   14  C3  UNL     1      28.311   0.741  53.506  1.00  0.00     0.013 A 
HETATM   15  C2  UNL     1      29.591   0.584  53.985  1.00  0.00     0.152 A 
HETATM   16  C20 UNL     1      27.883  -0.502  53.103  1.00  0.00     0.064 A 
HETATM   17  N2  UNL     1      29.886  -0.713  53.861  1.00  0.00    -0.184 NA
HETATM   18  N1  UNL     1      28.872  -1.393  53.331  1.00  0.00    -0.274 N 
HETATM   19  C1  UNL     1      28.795  -2.823  53.037  1.00  0.00     0.180 C 
HETATM   20  C19 UNL     1      26.634  -0.671  52.578  1.00  0.00     0.034 A 
HETATM   21  C18 UNL     1      25.836   0.447  52.474  1.00  0.00     0.032 A 
ENDBRANCH  10  12
ENDBRANCH   1  10
BRANCH   8  22
HETATM   22  C11 UNL     1      22.091   2.880  52.341  1.00  0.00     0.158 C 
BRANCH  22  23
HETATM   23  N7  UNL     1      21.490   1.607  52.250  1.00  0.00    -0.408 N 
HETATM   24  C12 UNL     1      20.317   1.268  52.921  1.00  0.00     0.119 C 
HETATM   25  C13 UNL     1      20.546   0.676  54.309  1.00  0.00     0.055 C 
HETATM   26  C14 UNL     1      21.426  -0.512  54.173  1.00  0.00     0.221 C 
HETATM   27  C15 UNL     1      22.044  -0.716  52.828  1.00  0.00     0.055 C 
HETATM   28  C16 UNL     1      22.461   0.554  52.129  1.00  0.00     0.119 C 
BRANCH  26  29
HETATM   29  N8  UNL     1      20.629  -1.708  54.482  1.00  0.00     0.083 N 
HETATM   30  H17 UNL     1      19.603  -1.445  54.515  1.00  0.00     0.313 HD
HETATM   31  H18 UNL     1      20.722  -2.360  53.672  1.00  0.00     0.313 HD
ENDBRANCH  26  29
ENDBRANCH  22  23
ENDBRANCH   8  22
TORSDOF 5
ENDMDL
MODEL 4
REMARK VINA RESULT:      -8.4      2.326      5.874
REMARK  5 active torsions:
REMARK  status: ('A' for Active; 'I' for Inactive)
REMARK    1  A    between atoms: C5_7  and  N3_8 
REMARK    2  A    between atoms: N3_8  and  C6_9 
REMARK    3  A    between atoms: C10_16  and  C11_17 
REMARK    4  A    between atoms: C11_17  and  N7_18 
REMARK    5  A    between atoms: C14_21  and  N8_22 
ROOT
HETATM    1  C6  UNL     1      21.800   3.686  51.867  1.00  0.00     0.159 A 
HETATM    2  N4  UNL     1      20.910   4.506  51.233  1.00  0.00    -0.220 NA
HETATM    3  C7  UNL     1      19.867   3.898  50.597  1.00  0.00     0.258 A 
HETATM    4  N5  UNL     1      19.725   2.564  50.595  1.00  0.00    -0.161 NA
HETATM    5  N6  UNL     1      20.592   1.780  51.208  1.00  0.00    -0.240 N 
HETATM    6  C8  UNL     1      20.737   0.447  51.411  1.00  0.00     0.119 A 
HETATM    7  C9  UNL     1      21.879   0.196  52.177  1.00  0.00     0.030 A 
HETATM    8  C10 UNL     1      22.467   1.433  52.458  1.00  0.00    -0.007 A 
HETATM    9  C17 UNL     1      21.631   2.323  51.845  1.00  0.00     0.112 A 
ENDROOT
BRANCH   1  10
HETATM   10  N3  UNL     1      22.785   4.510  52.512  1.00  0.00    -0.339 N 
HETATM   11  H6  UNL     1      22.997   4.888  53.456  1.00  0.00     0.167 HD
BRANCH  10  12
HETATM   12  C5  UNL     1      23.816   4.970  51.607  1.00  0.00     0.034 A 
HETATM   13  C4  UNL     1      24.709   4.126  50.939  1.00  0.00     0.044 A 
HETATM   14  C3  UNL     1      25.678   4.549  50.060  1.00  0.00     0.013 A 
HETATM   15  C2  UNL     1      26.638   3.916  49.305  1.00  0.00     0.152 A 
HETATM   16  C20 UNL     1      25.795   5.895  49.805  1.00  0.00     0.064 A 
HETATM   17  N2  UNL     1      27.286   4.873  48.635  1.00  0.00    -0.184 NA
HETATM   18  N1  UNL     1      26.797   6.079  48.919  1.00  0.00    -0.274 N 
HETATM   19  C1  UNL     1      27.226   7.376  48.396  1.00  0.00     0.180 C 
HETATM   20  C19 UNL     1      24.967   6.793  50.413  1.00  0.00     0.034 A 
HETATM   21  C18 UNL     1      24.021   6.294  51.280  1.00  0.00     0.032 A 
ENDBRANCH  10  12
ENDBRANCH   1  10
BRANCH   8  22
HETATM   22  C11 UNL     1      23.748   1.529  53.151  1.00  0.00     0.158 C 
BRANCH  22  23
HETATM   23  N7  UNL     1      24.648   0.452  53.001  1.00  0.00    -0.408 N 
HETATM   24  C12 UNL     1      25.011  -0.390  54.050  1.00  0.00     0.119 C 
HETATM   25  C13 UNL     1      26.243   0.077  54.820  1.00  0.00     0.055 C 
HETATM   26  C14 UNL     1      27.368   0.224  53.862  1.00  0.00     0.221 C 
HETATM   27  C15 UNL     1      27.010   0.117  52.415  1.00  0.00     0.055 C 
HETATM   28  C16 UNL     1      25.685   0.737  52.047  1.00  0.00     0.119 C 
BRANCH  26  29
HETATM   29  N8  UNL     1      28.356  -0.825  54.153  1.00  0.00     0.083 N 
HETATM   30  H17 UNL     1      28.680  -0.730  55.158  1.00  0.00     0.313 HD
HETATM   31  H18 UNL     1      27.859  -1.741  54.107  1.00  0.00     0.313 HD
ENDBRANCH  26  29
ENDBRANCH  22  23
ENDBRANCH   8  22
TORSDOF 5
ENDMDL
MODEL 5
REMARK VINA RESULT:      -8.2      2.039      7.035
REMARK  5 active torsions:
REMARK  status: ('A' for Active; 'I' for Inactive)
REMARK    1  A    between atoms: C5_7  and  N3_8 
REMARK    2  A    between atoms: N3_8  and  C6_9 
REMARK    3  A    between atoms: C10_16  and  C11_17 
REMARK    4  A    between atoms: C11_17  and  N7_18 
REMARK    5  A    between atoms: C14_21  and  N8_22 
ROOT
HETATM    1  C6  UNL     1      22.477   0.914  51.912  1.00  0.00     0.159 A 
HETATM    2  N4  UNL     1      21.343   1.409  51.334  1.00  0.00    -0.220 NA
HETATM    3  C7  UNL     1      20.168   1.154  51.980  1.00  0.00     0.258 A 
HETATM    4  N5  UNL     1      20.132   0.455  53.125  1.00  0.00    -0.161 NA
HETATM    5  N6  UNL     1      21.234  -0.021  53.674  1.00  0.00    -0.240 N 
HETATM    6  C8  UNL     1      21.549  -0.726  54.788  1.00  0.00     0.119 A 
HETATM    7  C9  UNL     1      22.930  -0.930  54.858  1.00  0.00     0.030 A 
HETATM    8  C10 UNL     1      23.493  -0.323  53.731  1.00  0.00    -0.007 A 
HETATM    9  C17 UNL     1      22.409   0.198  53.082  1.00  0.00     0.112 A 
ENDROOT
BRANCH   1  10
HETATM   10  N3  UNL     1      23.601   1.328  51.117  1.00  0.00    -0.339 N 
HETATM   11  H6  UNL     1      24.432   0.911  50.653  1.00  0.00     0.167 HD
BRANCH  10  12
HETATM   12  C5  UNL     1      23.613   2.751  50.855  1.00  0.00     0.034 A 
HETATM   13  C4  UNL     1      23.537   3.315  49.577  1.00  0.00     0.044 A 
HETATM   14  C3  UNL     1      23.525   4.665  49.317  1.00  0.00     0.013 A 
HETATM   15  C2  UNL     1      23.454   5.427  48.173  1.00  0.00     0.152 A 
HETATM   16  C20 UNL     1      23.593   5.542  50.374  1.00  0.00     0.064 A 
HETATM   17  N2  UNL     1      23.479   6.704  48.566  1.00  0.00    -0.184 NA
HETATM   18  N1  UNL     1      23.563   6.802  49.891  1.00  0.00    -0.274 N 
HETATM   19  C1  UNL     1      23.612   8.015  50.708  1.00  0.00     0.180 C 
HETATM   20  C19 UNL     1      23.671   5.081  51.657  1.00  0.00     0.034 A 
HETATM   21  C18 UNL     1      23.677   3.716  51.837  1.00  0.00     0.032 A 
ENDBRANCH  10  12
ENDBRANCH   1  10
BRANCH   8  22
HETATM   22  C11 UNL     1      24.917  -0.444  53.431  1.00  0.00     0.158 C 
BRANCH  22  23
HETATM   23  N7  UNL     1      25.801   0.404  54.131  1.00  0.00    -0.408 N 
HETATM   24  C12 UNL     1      25.965   1.754  53.826  1.00  0.00     0.119 C 
HETATM   25  C13 UNL     1      27.066   2.028  52.805  1.00  0.00     0.055 C 
HETATM   26  C14 UNL     1      28.336   1.455  53.319  1.00  0.00     0.221 C 
HETATM   27  C15 UNL     1      28.217   0.588  54.531  1.00  0.00     0.055 C 
HETATM   28  C16 UNL     1      26.987  -0.283  54.563  1.00  0.00     0.119 C 
BRANCH  26  29
HETATM   29  N8  UNL     1      29.236   2.568  53.655  1.00  0.00     0.083 N 
HETATM   30  H17 UNL     1      29.934   2.703  52.869  1.00  0.00     0.313 HD
HETATM   31  H18 UNL     1      28.661   3.439  53.667  1.00  0.00     0.313 HD
ENDBRANCH  26  29
ENDBRANCH  22  23
ENDBRANCH   8  22
TORSDOF 5
ENDMDL
MODEL 6
REMARK VINA RESULT:      -8.0      1.956      7.499
REMARK  5 active torsions:
REMARK  status: ('A' for Active; 'I' for Inactive)
REMARK    1  A    between atoms: C5_7  and  N3_8 
REMARK    2  A    between atoms: N3_8  and  C6_9 
REMARK    3  A    between atoms: C10_16  and  C11_17 
REMARK    4  A    between atoms: C11_17  and  N7_18 
REMARK    5  A    between atoms: C14_21  and  N8_22 
ROOT
HETATM    1  C6  UNL     1      22.401   1.938  52.403  1.00  0.00     0.159 A 
HETATM    2  N4  UNL     1      21.204   2.551  52.164  1.00  0.00    -0.220 NA
HETATM    3  C7  UNL     1      20.102   1.976  52.727  1.00  0.00     0.258 A 
HETATM    4  N5  UNL     1      20.192   0.867  53.477  1.00  0.00    -0.161 NA
HETATM    5  N6  UNL     1      21.354   0.282  53.701  1.00  0.00    -0.240 N 
HETATM    6  C8  UNL     1      21.791  -0.797  54.396  1.00  0.00     0.119 A 
HETATM    7  C9  UNL     1      23.178  -0.919  54.277  1.00  0.00     0.030 A 
HETATM    8  C10 UNL     1      23.617   0.133  53.467  1.00  0.00    -0.007 A 
HETATM    9  C17 UNL     1      22.462   0.802  53.172  1.00  0.00     0.112 A 
ENDROOT
BRANCH   1  10
HETATM   10  N3  UNL     1      23.434   2.715  51.774  1.00  0.00    -0.339 N 
HETATM   11  H6  UNL     1      24.380   3.086  51.988  1.00  0.00     0.167 HD
BRANCH  10  12
HETATM   12  C5  UNL     1      23.094   3.120  50.426  1.00  0.00     0.034 A 
HETATM   13  C4  UNL     1      23.131   4.442  49.970  1.00  0.00     0.044 A 
HETATM   14  C3  UNL     1      22.832   4.836  48.688  1.00  0.00     0.013 A 
HETATM   15  C2  UNL     1      22.805   6.045  48.032  1.00  0.00     0.152 A 
HETATM   16  C20 UNL     1      22.468   3.878  47.770  1.00  0.00     0.064 A 
HETATM   17  N2  UNL     1      22.437   5.786  46.773  1.00  0.00    -0.184 NA
HETATM   18  N1  UNL     1      22.227   4.484  46.588  1.00  0.00    -0.274 N 
HETATM   19  C1  UNL     1      21.817   3.798  45.363  1.00  0.00     0.180 C 
HETATM   20  C19 UNL     1      22.404   2.562  48.127  1.00  0.00     0.034 A 
HETATM   21  C18 UNL     1      22.718   2.245  49.430  1.00  0.00     0.032 A 
ENDBRANCH  10  12
ENDBRANCH   1  10
BRANCH   8  22
HETATM   22  C11 UNL     1      25.010   0.240  53.045  1.00  0.00     0.158 C 
BRANCH  22  23
HETATM   23  N7  UNL     1      25.920   0.824  53.952  1.00  0.00    -0.408 N 
HETATM   24  C12 UNL     1      26.435   2.109  53.794  1.00  0.00     0.119 C 
HETATM   25  C13 UNL     1      27.737   2.159  52.998  1.00  0.00     0.055 C 
HETATM   26  C14 UNL     1      28.730   1.281  53.666  1.00  0.00     0.221 C 
HETATM   27  C15 UNL     1      28.202   0.415  54.764  1.00  0.00     0.055 C 
HETATM   28  C16 UNL     1      26.823  -0.142  54.516  1.00  0.00     0.119 C 
BRANCH  26  29
HETATM   29  N8  UNL     1      29.780   2.135  54.240  1.00  0.00     0.083 N 
HETATM   30  H17 UNL     1      29.848   3.032  53.679  1.00  0.00     0.313 HD
HETATM   31  H18 UNL     1      29.459   2.426  55.190  1.00  0.00     0.313 HD
ENDBRANCH  26  29
ENDBRANCH  22  23
ENDBRANCH   8  22
TORSDOF 5
ENDMDL
MODEL 7
REMARK VINA RESULT:      -8.0      2.415      5.836
REMARK  5 active torsions:
REMARK  status: ('A' for Active; 'I' for Inactive)
REMARK    1  A    between atoms: C5_7  and  N3_8 
REMARK    2  A    between atoms: N3_8  and  C6_9 
REMARK    3  A    between atoms: C10_16  and  C11_17 
REMARK    4  A    between atoms: C11_17  and  N7_18 
REMARK    5  A    between atoms: C14_21  and  N8_22 
ROOT
HETATM    1  C6  UNL     1      26.643   1.506  52.471  1.00  0.00     0.159 A 
HETATM    2  N4  UNL     1      27.797   2.231  52.384  1.00  0.00    -0.220 NA
HETATM    3  C7  UNL     1      28.627   2.190  53.466  1.00  0.00     0.258 A 
HETATM    4  N5  UNL     1      28.322   1.473  54.560  1.00  0.00    -0.161 NA
HETATM    5  N6  UNL     1      27.203   0.778  54.635  1.00  0.00    -0.240 N 
HETATM    6  C8  UNL     1      26.613  -0.036  55.545  1.00  0.00     0.119 A 
HETATM    7  C9  UNL     1      25.399  -0.518  55.048  1.00  0.00     0.030 A 
HETATM    8  C10 UNL     1      25.230   0.027  53.772  1.00  0.00    -0.007 A 
HETATM    9  C17 UNL     1      26.356   0.785  53.605  1.00  0.00     0.112 A 
ENDROOT
BRANCH   1  10
HETATM   10  N3  UNL     1      25.938   1.636  51.226  1.00  0.00    -0.339 N 
HETATM   11  H6  UNL     1      25.648   1.047  50.420  1.00  0.00     0.167 HD
BRANCH  10  12
HETATM   12  C5  UNL     1      25.466   2.983  50.982  1.00  0.00     0.034 A 
HETATM   13  C4  UNL     1      26.002   3.839  50.014  1.00  0.00     0.044 A 
HETATM   14  C3  UNL     1      25.548   5.112  49.758  1.00  0.00     0.013 A 
HETATM   15  C2  UNL     1      25.909   6.105  48.877  1.00  0.00     0.152 A 
HETATM   16  C20 UNL     1      24.493   5.597  50.494  1.00  0.00     0.064 A 
HETATM   17  N2  UNL     1      25.082   7.130  49.102  1.00  0.00    -0.184 NA
HETATM   18  N1  UNL     1      24.217   6.851  50.075  1.00  0.00    -0.274 N 
HETATM   19  C1  UNL     1      23.155   7.700  50.614  1.00  0.00     0.180 C 
HETATM   20  C19 UNL     1      23.908   4.832  51.461  1.00  0.00     0.034 A 
HETATM   21  C18 UNL     1      24.418   3.567  51.659  1.00  0.00     0.032 A 
ENDBRANCH  10  12
ENDBRANCH   1  10
BRANCH   8  22
HETATM   22  C11 UNL     1      24.004  -0.182  53.009  1.00  0.00     0.158 C 
BRANCH  22  23
HETATM   23  N7  UNL     1      22.790   0.208  53.613  1.00  0.00    -0.408 N 
HETATM   24  C12 UNL     1      22.148  -0.548  54.591  1.00  0.00     0.119 C 
HETATM   25  C13 UNL     1      21.143  -1.554  54.035  1.00  0.00     0.055 C 
HETATM   26  C14 UNL     1      20.149  -0.820  53.213  1.00  0.00     0.221 C 
HETATM   27  C15 UNL     1      20.464   0.615  52.935  1.00  0.00     0.055 C 
HETATM   28  C16 UNL     1      21.925   0.903  52.699  1.00  0.00     0.119 C 
BRANCH  26  29
HETATM   29  N8  UNL     1      18.857  -0.863  53.913  1.00  0.00     0.083 N 
HETATM   30  H17 UNL     1      19.023  -1.042  54.944  1.00  0.00     0.313 HD
HETATM   31  H18 UNL     1      18.443   0.093  53.861  1.00  0.00     0.313 HD
ENDBRANCH  26  29
ENDBRANCH  22  23
ENDBRANCH   8  22
TORSDOF 5
ENDMDL
MODEL 8
REMARK VINA RESULT:      -8.0      1.750      2.427
REMARK  5 active torsions:
REMARK  status: ('A' for Active; 'I' for Inactive)
REMARK    1  A    between atoms: C5_7  and  N3_8 
REMARK    2  A    between atoms: N3_8  and  C6_9 
REMARK    3  A    between atoms: C10_16  and  C11_17 
REMARK    4  A    between atoms: C11_17  and  N7_18 
REMARK    5  A    between atoms: C14_21  and  N8_22 
ROOT
HETATM    1  C6  UNL     1      24.334   4.237  50.230  1.00  0.00     0.159 A 
HETATM    2  N4  UNL     1      25.444   5.012  50.050  1.00  0.00    -0.220 NA
HETATM    3  C7  UNL     1      25.305   6.345  50.307  1.00  0.00     0.258 A 
HETATM    4  N5  UNL     1      24.138   6.866  50.715  1.00  0.00    -0.161 NA
HETATM    5  N6  UNL     1      23.070   6.108  50.884  1.00  0.00    -0.240 N 
HETATM    6  C8  UNL     1      21.788   6.295  51.286  1.00  0.00     0.119 A 
HETATM    7  C9  UNL     1      21.099   5.079  51.284  1.00  0.00     0.030 A 
HETATM    8  C10 UNL     1      21.998   4.096  50.859  1.00  0.00    -0.007 A 
HETATM    9  C17 UNL     1      23.151   4.798  50.646  1.00  0.00     0.112 A 
ENDROOT
BRANCH   1  10
HETATM   10  N3  UNL     1      24.693   2.872  49.961  1.00  0.00    -0.339 N 
HETATM   11  H6  UNL     1      24.642   2.183  49.184  1.00  0.00     0.167 HD
BRANCH  10  12
HETATM   12  C5  UNL     1      25.327   2.223  51.089  1.00  0.00     0.034 A 
HETATM   13  C4  UNL     1      24.688   1.303  51.927  1.00  0.00     0.044 A 
HETATM   14  C3  UNL     1      25.286   0.663  52.987  1.00  0.00     0.013 A 
HETATM   15  C2  UNL     1      24.865  -0.256  53.920  1.00  0.00     0.152 A 
HETATM   16  C20 UNL     1      26.607   0.931  53.260  1.00  0.00     0.064 A 
HETATM   17  N2  UNL     1      25.917  -0.508  54.705  1.00  0.00    -0.184 NA
HETATM   18  N1  UNL     1      26.983   0.196  54.329  1.00  0.00    -0.274 N 
HETATM   19  C1  UNL     1      28.319   0.203  54.922  1.00  0.00     0.180 C 
HETATM   20  C19 UNL     1      27.310   1.816  52.495  1.00  0.00     0.034 A 
HETATM   21  C18 UNL     1      26.643   2.417  51.451  1.00  0.00     0.032 A 
ENDBRANCH  10  12
ENDBRANCH   1  10
BRANCH   8  22
HETATM   22  C11 UNL     1      21.571   2.718  50.634  1.00  0.00     0.158 C 
BRANCH  22  23
HETATM   23  N7  UNL     1      20.478   2.246  51.392  1.00  0.00    -0.408 N 
HETATM   24  C12 UNL     1      20.497   2.157  52.782  1.00  0.00     0.119 C 
HETATM   25  C13 UNL     1      20.994   0.813  53.309  1.00  0.00     0.055 C 
HETATM   26  C14 UNL     1      20.146  -0.260  52.732  1.00  0.00     0.221 C 
HETATM   27  C15 UNL     1      19.204   0.162  51.651  1.00  0.00     0.055 C 
HETATM   28  C16 UNL     1      19.753   1.207  50.713  1.00  0.00     0.119 C 
BRANCH  26  29
HETATM   29  N8  UNL     1      19.343  -0.841  53.819  1.00  0.00     0.083 N 
HETATM   30  H17 UNL     1      19.406  -0.215  54.672  1.00  0.00     0.313 HD
HETATM   31  H18 UNL     1      18.344  -0.802  53.521  1.00  0.00     0.313 HD
ENDBRANCH  26  29
ENDBRANCH  22  23
ENDBRANCH   8  22
TORSDOF 5
ENDMDL
MODEL 9
REMARK VINA RESULT:      -7.9      2.646      6.928
REMARK  5 active torsions:
REMARK  status: ('A' for Active; 'I' for Inactive)
REMARK    1  A    between atoms: C5_7  and  N3_8 
REMARK    2  A    between atoms: N3_8  and  C6_9 
REMARK    3  A    between atoms: C10_16  and  C11_17 
REMARK    4  A    between atoms: C11_17  and  N7_18 
REMARK    5  A    between atoms: C14_21  and  N8_22 
ROOT
HETATM    1  C6  UNL     1      24.384   2.840  50.173  1.00  0.00     0.159 A 
HETATM    2  N4  UNL     1      23.870   3.148  48.945  1.00  0.00    -0.220 NA
HETATM    3  C7  UNL     1      22.531   2.949  48.777  1.00  0.00     0.258 A 
HETATM    4  N5  UNL     1      21.760   2.475  49.768  1.00  0.00    -0.161 NA
HETATM    5  N6  UNL     1      22.267   2.178  50.950  1.00  0.00    -0.240 N 
HETATM    6  C8  UNL     1      21.792   1.715  52.133  1.00  0.00     0.119 A 
HETATM    7  C9  UNL     1      22.830   1.611  53.064  1.00  0.00     0.030 A 
HETATM    8  C10 UNL     1      24.000   2.029  52.424  1.00  0.00    -0.007 A 
HETATM    9  C17 UNL     1      23.571   2.353  51.167  1.00  0.00     0.112 A 
ENDROOT
BRANCH   1  10
HETATM   10  N3  UNL     1      25.784   3.163  50.165  1.00  0.00    -0.339 N 
HETATM   11  H6  UNL     1      26.698   2.709  50.362  1.00  0.00     0.167 HD
BRANCH  10  12
HETATM   12  C5  UNL     1      26.046   4.528  49.760  1.00  0.00     0.034 A 
HETATM   13  C4  UNL     1      25.344   5.638  50.242  1.00  0.00     0.044 A 
HETATM   14  C3  UNL     1      25.598   6.941  49.883  1.00  0.00     0.013 A 
HETATM   15  C2  UNL     1      25.055   8.159  50.222  1.00  0.00     0.152 A 
HETATM   16  C20 UNL     1      26.610   7.193  48.986  1.00  0.00     0.064 A 
HETATM   17  N2  UNL     1      25.738   9.082  49.539  1.00  0.00    -0.184 NA
HETATM   18  N1  UNL     1      26.683   8.526  48.784  1.00  0.00    -0.274 N 
HETATM   19  C1  UNL     1      27.640   9.188  47.897  1.00  0.00     0.180 C 
HETATM   20  C19 UNL     1      27.347   6.171  48.463  1.00  0.00     0.034 A 
HETATM   21  C18 UNL     1      27.034   4.893  48.871  1.00  0.00     0.032 A 
ENDBRANCH  10  12
ENDBRANCH   1  10
BRANCH   8  22
HETATM   22  C11 UNL     1      25.301   1.940  53.080  1.00  0.00     0.158 C 
BRANCH  22  23
HETATM   23  N7  UNL     1      25.729   0.663  53.501  1.00  0.00    -0.408 N 
HETATM   24  C12 UNL     1      26.582   0.464  54.584  1.00  0.00     0.119 C 
HETATM   25  C13 UNL     1      28.063   0.453  54.211  1.00  0.00     0.055 C 
HETATM   26  C14 UNL     1      28.280  -0.594  53.182  1.00  0.00     0.221 C 
HETATM   27  C15 UNL     1      27.045  -1.207  52.603  1.00  0.00     0.055 C 
HETATM   28  C16 UNL     1      25.903  -0.244  52.399  1.00  0.00     0.119 C 
BRANCH  26  29
HETATM   29  N8  UNL     1      29.069  -1.676  53.790  1.00  0.00     0.083 N 
HETATM   30  H17 UNL     1      29.837  -1.967  53.121  1.00  0.00     0.313 HD
HETATM   31  H18 UNL     1      29.560  -1.274  54.618  1.00  0.00     0.313 HD
ENDBRANCH  26  29
ENDBRANCH  22  23
ENDBRANCH   8  22
TORSDOF 5
ENDMDL
