MODEL 1
REMARK VINA RESULT:      -7.9      0.000      0.000
REMARK  6 active torsions:
REMARK  status: ('A' for Active; 'I' for Inactive)
REMARK    1  A    between atoms: C2_2  and  N1_3 
REMARK    2  A    between atoms: N1_3  and  C3_4 
REMARK    3  A    between atoms: C5_6  and  N2_7 
REMARK    4  A    between atoms: N2_7  and  C6_8 
REMARK    5  A    between atoms: C6_8  and  C7_9 
REMARK    6  A    between atoms: C14_17  and  C15_18 
ROOT
HETATM    1  C3  UNL     1      26.729   0.258  54.067  1.00  0.00     0.176 A 
HETATM    2  C4  UNL     1      26.878   1.095  53.060  1.00  0.00     0.074 A 
HETATM    3  C5  UNL     1      25.532   1.329  52.404  1.00  0.00     0.304 A 
HETATM    4  C13 UNL     1      24.611   0.483  53.175  1.00  0.00     0.092 A 
HETATM    5  C14 UNL     1      23.361   0.072  53.300  1.00  0.00     0.035 C 
HETATM    6  O1  UNL     1      25.422  -0.112  54.161  1.00  0.00    -0.293 OA
ENDROOT
BRANCH   3   7
HETATM    7  N2  UNL     1      25.262   2.718  52.349  1.00  0.00     0.102 N 
HETATM    8  H5  UNL     1      24.897   3.115  53.218  1.00  0.00     0.317 HD
BRANCH   7   9
HETATM    9  C6  UNL     1      24.593   3.094  51.160  1.00  0.00     0.309 C 
BRANCH   9  10
HETATM   10  C7  UNL     1      25.403   4.036  50.317  1.00  0.00    -0.030 A 
HETATM   11  C8  UNL     1      25.048   5.355  50.151  1.00  0.00     0.010 A 
HETATM   12  C9  UNL     1      25.812   6.221  49.366  1.00  0.00     0.024 A 
HETATM   13  C10 UNL     1      26.936   5.738  48.750  1.00  0.00     0.034 A 
HETATM   14 CL1  UNL     1      27.800   6.922  47.797  1.00  0.00    -0.084 Cl
HETATM   15  C11 UNL     1      27.333   4.414  48.889  1.00  0.00     0.024 A 
HETATM   16  C12 UNL     1      26.551   3.605  49.671  1.00  0.00     0.010 A 
ENDBRANCH   9  10
ENDBRANCH   7   9
ENDBRANCH   3   7
BRANCH   1  17
HETATM   17  N1  UNL     1      27.870  -0.103  54.837  1.00  0.00    -0.186 NA
BRANCH  17  18
HETATM   18  C2  UNL     1      28.997  -0.349  54.289  1.00  0.00    -0.041 C 
HETATM   19  C1  UNL     1      30.021  -0.914  53.671  1.00  0.00     0.119 C 
ENDBRANCH  17  18
ENDBRANCH   1  17
BRANCH   5  20
HETATM   20  C15 UNL     1      22.729  -0.843  54.250  1.00  0.00    -0.002 C 
HETATM   21  C16 UNL     1      21.492  -0.698  54.674  1.00  0.00    -0.031 C 
HETATM   22  C17 UNL     1      20.784   0.479  54.107  1.00  0.00     0.036 C 
ENDBRANCH   5  20
TORSDOF 6
ENDMDL
MODEL 2
REMARK VINA RESULT:      -7.8      3.325      6.697
REMARK  6 active torsions:
REMARK  status: ('A' for Active; 'I' for Inactive)
REMARK    1  A    between atoms: C2_2  and  N1_3 
REMARK    2  A    between atoms: N1_3  and  C3_4 
REMARK    3  A    between atoms: C5_6  and  N2_7 
REMARK    4  A    between atoms: N2_7  and  C6_8 
REMARK    5  A    between atoms: C6_8  and  C7_9 
REMARK    6  A    between atoms: C14_17  and  C15_18 
ROOT
HETATM    1  C3  UNL     1      27.692   2.067  52.982  1.00  0.00     0.176 A 
HETATM    2  C4  UNL     1      26.530   1.717  53.495  1.00  0.00     0.074 A 
HETATM    3  C5  UNL     1      25.429   2.067  52.514  1.00  0.00     0.304 A 
HETATM    4  C13 UNL     1      26.141   2.685  51.388  1.00  0.00     0.092 A 
HETATM    5  C14 UNL     1      26.010   3.259  50.204  1.00  0.00     0.035 C 
HETATM    6  O1  UNL     1      27.499   2.629  51.757  1.00  0.00    -0.293 OA
ENDROOT
BRANCH   3   7
HETATM    7  N2  UNL     1      24.644   0.919  52.247  1.00  0.00     0.102 N 
HETATM    8  H5  UNL     1      23.922   1.053  51.535  1.00  0.00     0.317 HD
BRANCH   7   9
HETATM    9  C6  UNL     1      24.241   0.251  53.428  1.00  0.00     0.309 C 
BRANCH   9  10
HETATM   10  C7  UNL     1      22.780  -0.095  53.423  1.00  0.00    -0.030 A 
HETATM   11  C8  UNL     1      22.265  -1.097  54.215  1.00  0.00     0.010 A 
HETATM   12  C9  UNL     1      20.904  -1.408  54.201  1.00  0.00     0.024 A 
HETATM   13  C10 UNL     1      20.071  -0.697  53.378  1.00  0.00     0.034 A 
HETATM   14 CL1  UNL     1      18.394  -1.186  53.455  1.00  0.00    -0.084 Cl
HETATM   15  C11 UNL     1      20.546   0.322  52.562  1.00  0.00     0.024 A 
HETATM   16  C12 UNL     1      21.888   0.589  52.612  1.00  0.00     0.010 A 
ENDBRANCH   9  10
ENDBRANCH   7   9
ENDBRANCH   3   7
BRANCH   1  17
HETATM   17  N1  UNL     1      28.877   1.826  53.733  1.00  0.00    -0.186 NA
BRANCH  17  18
HETATM   18  C2  UNL     1      29.432   0.676  53.756  1.00  0.00    -0.041 C 
HETATM   19  C1  UNL     1      29.696  -0.617  53.670  1.00  0.00     0.119 C 
ENDBRANCH  17  18
ENDBRANCH   1  17
BRANCH   5  20
HETATM   20  C15 UNL     1      26.999   3.802  49.273  1.00  0.00    -0.002 C 
HETATM   21  C16 UNL     1      26.981   5.048  48.850  1.00  0.00    -0.031 C 
HETATM   22  C17 UNL     1      25.865   5.864  49.396  1.00  0.00     0.036 C 
ENDBRANCH   5  20
TORSDOF 6
ENDMDL
MODEL 3
REMARK VINA RESULT:      -7.5      2.958      3.787
REMARK  6 active torsions:
REMARK  status: ('A' for Active; 'I' for Inactive)
REMARK    1  A    between atoms: C2_2  and  N1_3 
REMARK    2  A    between atoms: N1_3  and  C3_4 
REMARK    3  A    between atoms: C5_6  and  N2_7 
REMARK    4  A    between atoms: N2_7  and  C6_8 
REMARK    5  A    between atoms: C6_8  and  C7_9 
REMARK    6  A    between atoms: C14_17  and  C15_18 
ROOT
HETATM    1  C3  UNL     1      26.752   0.303  54.246  1.00  0.00     0.176 A 
HETATM    2  C4  UNL     1      26.844   1.241  53.324  1.00  0.00     0.074 A 
HETATM    3  C5  UNL     1      25.482   1.455  52.695  1.00  0.00     0.304 A 
HETATM    4  C13 UNL     1      24.619   0.485  53.381  1.00  0.00     0.092 A 
HETATM    5  C14 UNL     1      23.396  -0.011  53.466  1.00  0.00     0.035 C 
HETATM    6  O1  UNL     1      25.470  -0.153  54.304  1.00  0.00    -0.293 OA
ENDROOT
BRANCH   3   7
HETATM    7  N2  UNL     1      25.129   2.824  52.774  1.00  0.00     0.102 N 
HETATM    8  H5  UNL     1      24.630   3.086  53.628  1.00  0.00     0.317 HD
BRANCH   7   9
HETATM    9  C6  UNL     1      24.595   3.318  51.560  1.00  0.00     0.309 C 
BRANCH   9  10
HETATM   10  C7  UNL     1      23.187   2.853  51.320  1.00  0.00    -0.030 A 
HETATM   11  C8  UNL     1      22.137   3.274  52.103  1.00  0.00     0.010 A 
HETATM   12  C9  UNL     1      20.832   2.835  51.869  1.00  0.00     0.024 A 
HETATM   13  C10 UNL     1      20.603   1.965  50.835  1.00  0.00     0.034 A 
HETATM   14 CL1  UNL     1      18.930   1.493  50.650  1.00  0.00    -0.084 Cl
HETATM   15  C11 UNL     1      21.632   1.513  50.019  1.00  0.00     0.024 A 
HETATM   16  C12 UNL     1      22.893   1.974  50.290  1.00  0.00     0.010 A 
ENDBRANCH   9  10
ENDBRANCH   7   9
ENDBRANCH   3   7
BRANCH   1  17
HETATM   17  N1  UNL     1      27.917  -0.061  54.976  1.00  0.00    -0.186 NA
BRANCH  17  18
HETATM   18  C2  UNL     1      29.019  -0.329  54.389  1.00  0.00    -0.041 C 
HETATM   19  C1  UNL     1      29.953  -0.789  53.572  1.00  0.00     0.119 C 
ENDBRANCH  17  18
ENDBRANCH   1  17
BRANCH   5  20
HETATM   20  C15 UNL     1      22.826  -1.049  54.325  1.00  0.00    -0.002 C 
HETATM   21  C16 UNL     1      21.600  -0.998  54.799  1.00  0.00    -0.031 C 
HETATM   22  C17 UNL     1      20.836   0.210  54.391  1.00  0.00     0.036 C 
ENDBRANCH   5  20
TORSDOF 6
ENDMDL
MODEL 4
REMARK VINA RESULT:      -7.4      3.094      6.021
REMARK  6 active torsions:
REMARK  status: ('A' for Active; 'I' for Inactive)
REMARK    1  A    between atoms: C2_2  and  N1_3 
REMARK    2  A    between atoms: N1_3  and  C3_4 
REMARK    3  A    between atoms: C5_6  and  N2_7 
REMARK    4  A    between atoms: N2_7  and  C6_8 
REMARK    5  A    between atoms: C6_8  and  C7_9 
REMARK    6  A    between atoms: C14_17  and  C15_18 
ROOT
HETATM    1  C3  UNL     1      26.929   0.213  54.182  1.00  0.00     0.176 A 
HETATM    2  C4  UNL     1      25.730  -0.134  54.606  1.00  0.00     0.074 A 
HETATM    3  C5  UNL     1      24.687   0.439  53.667  1.00  0.00     0.304 A 
HETATM    4  C13 UNL     1      25.474   1.177  52.671  1.00  0.00     0.092 A 
HETATM    5  C14 UNL     1      25.420   1.937  51.590  1.00  0.00     0.035 C 
HETATM    6  O1  UNL     1      26.813   0.972  53.059  1.00  0.00    -0.293 OA
ENDROOT
BRANCH   3   7
HETATM    7  N2  UNL     1      23.840  -0.597  53.204  1.00  0.00     0.102 N 
HETATM    8  H5  UNL     1      23.820  -0.706  52.187  1.00  0.00     0.317 HD
BRANCH   7   9
HETATM    9  C6  UNL     1      22.587  -0.609  53.860  1.00  0.00     0.309 C 
BRANCH   9  10
HETATM   10  C7  UNL     1      21.450  -0.285  52.934  1.00  0.00    -0.030 A 
HETATM   11  C8  UNL     1      21.659   0.214  51.669  1.00  0.00     0.010 A 
HETATM   12  C9  UNL     1      20.593   0.510  50.818  1.00  0.00     0.024 A 
HETATM   13  C10 UNL     1      19.314   0.297  51.261  1.00  0.00     0.034 A 
HETATM   14 CL1  UNL     1      18.073   0.708  50.099  1.00  0.00    -0.084 Cl
HETATM   15  C11 UNL     1      19.055  -0.205  52.529  1.00  0.00     0.024 A 
HETATM   16  C12 UNL     1      20.134  -0.480  53.326  1.00  0.00     0.010 A 
ENDBRANCH   9  10
ENDBRANCH   7   9
ENDBRANCH   3   7
BRANCH   1  17
HETATM   17  N1  UNL     1      28.069  -0.223  54.913  1.00  0.00    -0.186 NA
BRANCH  17  18
HETATM   18  C2  UNL     1      29.173  -0.498  54.331  1.00  0.00    -0.041 C 
HETATM   19  C1  UNL     1      30.153  -0.646  53.456  1.00  0.00     0.119 C 
ENDBRANCH  17  18
ENDBRANCH   1  17
BRANCH   5  20
HETATM   20  C15 UNL     1      26.472   2.552  50.781  1.00  0.00    -0.002 C 
HETATM   21  C16 UNL     1      26.225   3.314  49.738  1.00  0.00    -0.031 C 
HETATM   22  C17 UNL     1      24.780   3.500  49.444  1.00  0.00     0.036 C 
ENDBRANCH   5  20
TORSDOF 6
ENDMDL
MODEL 5
REMARK VINA RESULT:      -7.3      1.360      4.296
REMARK  6 active torsions:
REMARK  status: ('A' for Active; 'I' for Inactive)
REMARK    1  A    between atoms: C2_2  and  N1_3 
REMARK    2  A    between atoms: N1_3  and  C3_4 
REMARK    3  A    between atoms: C5_6  and  N2_7 
REMARK    4  A    between atoms: N2_7  and  C6_8 
REMARK    5  A    between atoms: C6_8  and  C7_9 
REMARK    6  A    between atoms: C14_17  and  C15_18 
ROOT
HETATM    1  C3  UNL     1      24.060  -0.100  53.112  1.00  0.00     0.176 A 
HETATM    2  C4  UNL     1      24.013   1.156  52.716  1.00  0.00     0.074 A 
HETATM    3  C5  UNL     1      25.418   1.629  52.398  1.00  0.00     0.304 A 
HETATM    4  C13 UNL     1      26.260   0.463  52.696  1.00  0.00     0.092 A 
HETATM    5  C14 UNL     1      27.497  -0.003  52.731  1.00  0.00     0.035 C 
HETATM    6  O1  UNL     1      25.351  -0.532  53.107  1.00  0.00    -0.293 OA
ENDROOT
BRANCH   3   7
HETATM    7  N2  UNL     1      25.459   2.154  51.084  1.00  0.00     0.102 N 
HETATM    8  H5  UNL     1      26.355   2.034  50.605  1.00  0.00     0.317 HD
BRANCH   7   9
HETATM    9  C6  UNL     1      24.869   3.438  50.994  1.00  0.00     0.309 C 
BRANCH   9  10
HETATM   10  C7  UNL     1      25.665   4.377  50.133  1.00  0.00    -0.030 A 
HETATM   11  C8  UNL     1      25.317   5.700  49.984  1.00  0.00     0.010 A 
HETATM   12  C9  UNL     1      26.066   6.563  49.181  1.00  0.00     0.024 A 
HETATM   13  C10 UNL     1      27.168   6.073  48.532  1.00  0.00     0.034 A 
HETATM   14 CL1  UNL     1      28.015   7.255  47.561  1.00  0.00    -0.084 Cl
HETATM   15  C11 UNL     1      27.557   4.745  48.653  1.00  0.00     0.024 A 
HETATM   16  C12 UNL     1      26.790   3.940  49.452  1.00  0.00     0.010 A 
ENDBRANCH   9  10
ENDBRANCH   7   9
ENDBRANCH   3   7
BRANCH   1  17
HETATM   17  N1  UNL     1      22.847  -0.757  53.459  1.00  0.00    -0.186 NA
BRANCH  17  18
HETATM   18  C2  UNL     1      21.921  -0.158  54.104  1.00  0.00    -0.041 C 
HETATM   19  C1  UNL     1      20.762   0.233  54.606  1.00  0.00     0.119 C 
ENDBRANCH  17  18
ENDBRANCH   1  17
BRANCH   5  20
HETATM   20  C15 UNL     1      28.031  -1.313  53.100  1.00  0.00    -0.002 C 
HETATM   21  C16 UNL     1      29.274  -1.500  53.489  1.00  0.00    -0.031 C 
HETATM   22  C17 UNL     1      30.098  -0.263  53.520  1.00  0.00     0.036 C 
ENDBRANCH   5  20
TORSDOF 6
ENDMDL
MODEL 6
REMARK VINA RESULT:      -7.2      3.406      6.902
REMARK  6 active torsions:
REMARK  status: ('A' for Active; 'I' for Inactive)
REMARK    1  A    between atoms: C2_2  and  N1_3 
REMARK    2  A    between atoms: N1_3  and  C3_4 
REMARK    3  A    between atoms: C5_6  and  N2_7 
REMARK    4  A    between atoms: N2_7  and  C6_8 
REMARK    5  A    between atoms: C6_8  and  C7_9 
REMARK    6  A    between atoms: C14_17  and  C15_18 
ROOT
HETATM    1  C3  UNL     1      26.691   2.353  51.247  1.00  0.00     0.176 A 
HETATM    2  C4  UNL     1      25.460   1.893  51.350  1.00  0.00     0.074 A 
HETATM    3  C5  UNL     1      25.434   0.769  52.367  1.00  0.00     0.304 A 
HETATM    4  C13 UNL     1      26.832   0.651  52.800  1.00  0.00     0.092 A 
HETATM    5  C14 UNL     1      27.677  -0.009  53.573  1.00  0.00     0.035 C 
HETATM    6  O1  UNL     1      27.509   1.654  52.079  1.00  0.00    -0.293 OA
ENDROOT
BRANCH   3   7
HETATM    7  N2  UNL     1      24.458   1.041  53.355  1.00  0.00     0.102 N 
HETATM    8  H5  UNL     1      24.219   0.243  53.949  1.00  0.00     0.317 HD
BRANCH   7   9
HETATM    9  C6  UNL     1      23.370   1.794  52.851  1.00  0.00     0.309 C 
BRANCH   9  10
HETATM   10  C7  UNL     1      22.076   1.033  52.893  1.00  0.00    -0.030 A 
HETATM   11  C8  UNL     1      21.209   1.012  51.824  1.00  0.00     0.010 A 
HETATM   12  C9  UNL     1      20.009   0.300  51.876  1.00  0.00     0.024 A 
HETATM   13  C10 UNL     1      19.696  -0.389  53.019  1.00  0.00     0.034 A 
HETATM   14 CL1  UNL     1      18.168  -1.236  52.952  1.00  0.00    -0.084 Cl
HETATM   15  C11 UNL     1      20.541  -0.396  54.121  1.00  0.00     0.024 A 
HETATM   16  C12 UNL     1      21.706   0.317  54.021  1.00  0.00     0.010 A 
ENDBRANCH   9  10
ENDBRANCH   7   9
ENDBRANCH   3   7
BRANCH   1  17
HETATM   17  N1  UNL     1      26.951   3.425  50.348  1.00  0.00    -0.186 NA
BRANCH  17  18
HETATM   18  C2  UNL     1      26.013   3.993  49.693  1.00  0.00    -0.041 C 
HETATM   19  C1  UNL     1      24.916   4.638  49.332  1.00  0.00     0.119 C 
ENDBRANCH  17  18
ENDBRANCH   1  17
BRANCH   5  20
HETATM   20  C15 UNL     1      29.117   0.140  53.788  1.00  0.00    -0.002 C 
HETATM   21  C16 UNL     1      29.971  -0.851  53.648  1.00  0.00    -0.031 C 
HETATM   22  C17 UNL     1      29.352  -2.143  53.253  1.00  0.00     0.036 C 
ENDBRANCH   5  20
TORSDOF 6
ENDMDL
MODEL 7
REMARK VINA RESULT:      -6.8      3.479      6.089
REMARK  6 active torsions:
REMARK  status: ('A' for Active; 'I' for Inactive)
REMARK    1  A    between atoms: C2_2  and  N1_3 
REMARK    2  A    between atoms: N1_3  and  C3_4 
REMARK    3  A    between atoms: C5_6  and  N2_7 
REMARK    4  A    between atoms: N2_7  and  C6_8 
REMARK    5  A    between atoms: C6_8  and  C7_9 
REMARK    6  A    between atoms: C14_17  and  C15_18 
ROOT
HETATM    1  C3  UNL     1      21.909   3.359  51.173  1.00  0.00     0.176 A 
HETATM    2  C4  UNL     1      22.858   4.100  51.709  1.00  0.00     0.074 A 
HETATM    3  C5  UNL     1      23.642   3.263  52.700  1.00  0.00     0.304 A 
HETATM    4  C13 UNL     1      22.979   1.953  52.658  1.00  0.00     0.092 A 
HETATM    5  C14 UNL     1      22.965   0.727  53.153  1.00  0.00     0.035 C 
HETATM    6  O1  UNL     1      21.956   2.106  51.702  1.00  0.00    -0.293 OA
ENDROOT
BRANCH   3   7
HETATM    7  N2  UNL     1      25.021   3.314  52.383  1.00  0.00     0.102 N 
HETATM    8  H5  UNL     1      25.362   4.242  52.116  1.00  0.00     0.317 HD
BRANCH   7   9
HETATM    9  C6  UNL     1      25.430   2.237  51.562  1.00  0.00     0.309 C 
BRANCH   9  10
HETATM   10  C7  UNL     1      26.523   1.420  52.188  1.00  0.00    -0.030 A 
HETATM   11  C8  UNL     1      26.491   0.044  52.197  1.00  0.00     0.010 A 
HETATM   12  C9  UNL     1      27.515  -0.704  52.782  1.00  0.00     0.024 A 
HETATM   13  C10 UNL     1      28.569  -0.046  53.358  1.00  0.00     0.034 A 
HETATM   14 CL1  UNL     1      29.780  -1.098  54.054  1.00  0.00    -0.084 Cl
HETATM   15  C11 UNL     1      28.644   1.341  53.373  1.00  0.00     0.024 A 
HETATM   16  C12 UNL     1      27.616   2.029  52.786  1.00  0.00     0.010 A 
ENDBRANCH   9  10
ENDBRANCH   7   9
ENDBRANCH   3   7
BRANCH   1  17
HETATM   17  N1  UNL     1      21.046   3.942  50.203  1.00  0.00    -0.186 NA
BRANCH  17  18
HETATM   18  C2  UNL     1      20.103   3.276  49.658  1.00  0.00    -0.041 C 
HETATM   19  C1  UNL     1      19.288   2.319  49.245  1.00  0.00     0.119 C 
ENDBRANCH  17  18
ENDBRANCH   1  17
BRANCH   5  20
HETATM   20  C15 UNL     1      22.108  -0.425  52.872  1.00  0.00    -0.002 C 
HETATM   21  C16 UNL     1      21.896  -1.393  53.737  1.00  0.00    -0.031 C 
HETATM   22  C17 UNL     1      22.605  -1.223  55.032  1.00  0.00     0.036 C 
ENDBRANCH   5  20
TORSDOF 6
ENDMDL
MODEL 8
REMARK VINA RESULT:      -6.8      2.391      4.594
REMARK  6 active torsions:
REMARK  status: ('A' for Active; 'I' for Inactive)
REMARK    1  A    between atoms: C2_2  and  N1_3 
REMARK    2  A    between atoms: N1_3  and  C3_4 
REMARK    3  A    between atoms: C5_6  and  N2_7 
REMARK    4  A    between atoms: N2_7  and  C6_8 
REMARK    5  A    between atoms: C6_8  and  C7_9 
REMARK    6  A    between atoms: C14_17  and  C15_18 
ROOT
HETATM    1  C3  UNL     1      23.995   1.399  51.555  1.00  0.00     0.176 A 
HETATM    2  C4  UNL     1      24.519   2.578  51.287  1.00  0.00     0.074 A 
HETATM    3  C5  UNL     1      26.017   2.518  51.516  1.00  0.00     0.304 A 
HETATM    4  C13 UNL     1      26.250   1.143  51.975  1.00  0.00     0.092 A 
HETATM    5  C14 UNL     1      27.159   0.276  52.390  1.00  0.00     0.035 C 
HETATM    6  O1  UNL     1      24.976   0.544  51.954  1.00  0.00    -0.293 OA
ENDROOT
BRANCH   3   7
HETATM    7  N2  UNL     1      26.696   2.949  50.351  1.00  0.00     0.102 N 
HETATM    8  H5  UNL     1      27.649   3.285  50.513  1.00  0.00     0.317 HD
BRANCH   7   9
HETATM    9  C6  UNL     1      25.884   3.752  49.515  1.00  0.00     0.309 C 
BRANCH   9  10
HETATM   10  C7  UNL     1      26.587   4.995  49.051  1.00  0.00    -0.030 A 
HETATM   11  C8  UNL     1      25.981   6.231  49.085  1.00  0.00     0.010 A 
HETATM   12  C9  UNL     1      26.647   7.379  48.652  1.00  0.00     0.024 A 
HETATM   13  C10 UNL     1      27.930   7.264  48.185  1.00  0.00     0.034 A 
HETATM   14 CL1  UNL     1      28.647   8.775  47.674  1.00  0.00    -0.084 Cl
HETATM   15  C11 UNL     1      28.580   6.038  48.133  1.00  0.00     0.024 A 
HETATM   16  C12 UNL     1      27.885   4.942  48.569  1.00  0.00     0.010 A 
ENDBRANCH   9  10
ENDBRANCH   7   9
ENDBRANCH   3   7
BRANCH   1  17
HETATM   17  N1  UNL     1      22.591   1.220  51.402  1.00  0.00    -0.186 NA
BRANCH  17  18
HETATM   18  C2  UNL     1      22.061   1.032  50.256  1.00  0.00    -0.041 C 
HETATM   19  C1  UNL     1      21.334   1.122  49.155  1.00  0.00     0.119 C 
ENDBRANCH  17  18
ENDBRANCH   1  17
BRANCH   5  20
HETATM   20  C15 UNL     1      27.050  -1.124  52.797  1.00  0.00    -0.002 C 
HETATM   21  C16 UNL     1      28.073  -1.830  53.229  1.00  0.00    -0.031 C 
HETATM   22  C17 UNL     1      29.358  -1.084  53.268  1.00  0.00     0.036 C 
ENDBRANCH   5  20
TORSDOF 6
ENDMDL
MODEL 9
REMARK VINA RESULT:      -6.7      3.613      6.264
REMARK  6 active torsions:
REMARK  status: ('A' for Active; 'I' for Inactive)
REMARK    1  A    between atoms: C2_2  and  N1_3 
REMARK    2  A    between atoms: N1_3  and  C3_4 
REMARK    3  A    between atoms: C5_6  and  N2_7 
REMARK    4  A    between atoms: N2_7  and  C6_8 
REMARK    5  A    between atoms: C6_8  and  C7_9 
REMARK    6  A    between atoms: C14_17  and  C15_18 
ROOT
HETATM    1  C3  UNL     1      22.601   4.298  51.827  1.00  0.00     0.176 A 
HETATM    2  C4  UNL     1      23.726   4.465  52.494  1.00  0.00     0.074 A 
HETATM    3  C5  UNL     1      24.148   3.139  53.095  1.00  0.00     0.304 A 
HETATM    4  C13 UNL     1      23.084   2.211  52.688  1.00  0.00     0.092 A 
HETATM    5  C14 UNL     1      22.641   0.968  52.762  1.00  0.00     0.035 C 
HETATM    6  O1  UNL     1      22.206   2.999  51.919  1.00  0.00    -0.293 OA
ENDROOT
BRANCH   3   7
HETATM    7  N2  UNL     1      25.474   2.836  52.702  1.00  0.00     0.102 N 
HETATM    8  H5  UNL     1      25.546   2.254  51.863  1.00  0.00     0.317 HD
BRANCH   7   9
HETATM    9  C6  UNL     1      26.293   2.464  53.794  1.00  0.00     0.309 C 
BRANCH   9  10
HETATM   10  C7  UNL     1      26.951   1.130  53.591  1.00  0.00    -0.030 A 
HETATM   11  C8  UNL     1      28.224   0.868  54.046  1.00  0.00     0.010 A 
HETATM   12  C9  UNL     1      28.824  -0.378  53.851  1.00  0.00     0.024 A 
HETATM   13  C10 UNL     1      28.124  -1.354  53.191  1.00  0.00     0.034 A 
HETATM   14 CL1  UNL     1      28.989  -2.863  53.014  1.00  0.00    -0.084 Cl
HETATM   15  C11 UNL     1      26.838  -1.134  52.715  1.00  0.00     0.024 A 
HETATM   16  C12 UNL     1      26.294   0.103  52.931  1.00  0.00     0.010 A 
ENDBRANCH   9  10
ENDBRANCH   7   9
ENDBRANCH   3   7
BRANCH   1  17
HETATM   17  N1  UNL     1      22.019   5.417  51.169  1.00  0.00    -0.186 NA
BRANCH  17  18
HETATM   18  C2  UNL     1      22.723   6.416  50.796  1.00  0.00    -0.041 C 
HETATM   19  C1  UNL     1      23.408   7.545  50.738  1.00  0.00     0.119 C 
ENDBRANCH  17  18
ENDBRANCH   1  17
BRANCH   5  20
HETATM   20  C15 UNL     1      21.457   0.323  52.195  1.00  0.00    -0.002 C 
HETATM   21  C16 UNL     1      20.600  -0.369  52.915  1.00  0.00    -0.031 C 
HETATM   22  C17 UNL     1      20.936  -0.446  54.360  1.00  0.00     0.036 C 
ENDBRANCH   5  20
TORSDOF 6
ENDMDL
