MODEL 1
REMARK VINA RESULT:      -8.5      0.000      0.000
REMARK  2 active torsions:
REMARK  status: ('A' for Active; 'I' for Inactive)
REMARK    1  A    between atoms: C2_2  and  C3_4 
REMARK    2  A    between atoms: C5_6  and  C6_7 
ROOT
HETATM    1  C6  UNL     1      25.156   0.677  52.339  1.00  0.00     0.040 C 
HETATM    2  N1  UNL     1      26.360   1.084  52.115  1.00  0.00    -0.247 NA
HETATM    3  C7  UNL     1      26.788   2.305  51.571  1.00  0.00     0.228 C 
HETATM    4  N2  UNL     1      27.510   2.102  52.547  1.00  0.00    -0.264 NA
HETATM    5  C8  UNL     1      28.566   2.666  53.255  1.00  0.00     0.267 C 
HETATM    6  N3  UNL     1      29.564   1.844  53.840  1.00  0.00    -0.401 N 
HETATM    7  C9  UNL     1      29.163   0.830  54.766  1.00  0.00     0.154 C 
HETATM    8  C10 UNL     1      28.389  -0.255  54.076  1.00  0.00    -0.040 A 
HETATM    9  C11 UNL     1      29.162  -1.293  53.539  1.00  0.00     0.009 A 
HETATM   10  C12 UNL     1      28.525  -2.264  52.792  1.00  0.00     0.001 A 
HETATM   11  C13 UNL     1      27.164  -2.214  52.576  1.00  0.00     0.007 A 
HETATM   12  C14 UNL     1      26.452  -1.182  53.120  1.00  0.00    -0.052 A 
HETATM   13  C15 UNL     1      27.030  -0.186  53.882  1.00  0.00     0.016 A 
HETATM   14  C16 UNL     1      25.044  -0.717  52.980  1.00  0.00     0.097 C 
HETATM   15  H11 UNL     1      30.388   1.626  53.266  1.00  0.00     0.155 HD
ENDROOT
BRANCH   1  16
HETATM   16  C5  UNL     1      23.835   1.251  52.141  1.00  0.00     0.034 C 
HETATM   17  C3  UNL     1      23.217   2.408  52.254  1.00  0.00    -0.053 C 
HETATM   18  C4  UNL     1      21.776   2.498  51.914  1.00  0.00     0.049 C 
BRANCH  17  19
HETATM   19  C2  UNL     1      23.680   3.719  52.675  1.00  0.00    -0.045 A 
HETATM   20  C1  UNL     1      23.700   4.892  52.015  1.00  0.00     0.044 A 
HETATM   21  O1  UNL     1      24.208   4.692  53.472  1.00  0.00     0.000 OA
HETATM   22  H3  UNL     1      24.687   4.459  54.313  1.00  0.00     0.000 HD
ENDBRANCH  17  19
ENDBRANCH   1  16
TORSDOF 2
ENDMDL
MODEL 2
REMARK VINA RESULT:      -8.2      2.883      6.226
REMARK  2 active torsions:
REMARK  status: ('A' for Active; 'I' for Inactive)
REMARK    1  A    between atoms: C2_2  and  C3_4 
REMARK    2  A    between atoms: C5_6  and  C6_7 
ROOT
HETATM    1  C6  UNL     1      25.044   1.279  52.810  1.00  0.00     0.040 C 
HETATM    2  N1  UNL     1      24.385   0.206  53.091  1.00  0.00    -0.247 NA
HETATM    3  C7  UNL     1      24.779  -0.885  53.881  1.00  0.00     0.228 C 
HETATM    4  N2  UNL     1      23.630  -0.618  54.230  1.00  0.00    -0.264 NA
HETATM    5  C8  UNL     1      22.638  -1.027  55.115  1.00  0.00     0.267 C 
HETATM    6  N3  UNL     1      21.270  -0.970  54.743  1.00  0.00    -0.401 N 
HETATM    7  C9  UNL     1      20.722   0.284  54.327  1.00  0.00     0.154 C 
HETATM    8  C10 UNL     1      21.305   0.718  53.014  1.00  0.00    -0.040 A 
HETATM    9  C11 UNL     1      20.636   0.244  51.877  1.00  0.00     0.009 A 
HETATM   10  C12 UNL     1      21.184   0.510  50.638  1.00  0.00     0.001 A 
HETATM   11  C13 UNL     1      22.361   1.220  50.520  1.00  0.00     0.007 A 
HETATM   12  C14 UNL     1      22.977   1.660  51.657  1.00  0.00    -0.052 A 
HETATM   13  C15 UNL     1      22.474   1.433  52.924  1.00  0.00     0.016 A 
HETATM   14  C16 UNL     1      24.294   2.297  51.933  1.00  0.00     0.097 C 
HETATM   15  H11 UNL     1      20.870  -1.804  54.295  1.00  0.00     0.155 HD
ENDROOT
BRANCH   1  16
HETATM   16  C5  UNL     1      26.364   1.782  53.152  1.00  0.00     0.034 C 
HETATM   17  C3  UNL     1      27.577   1.330  53.399  1.00  0.00    -0.053 C 
HETATM   18  C4  UNL     1      28.658   2.292  53.721  1.00  0.00     0.049 C 
BRANCH  17  19
HETATM   19  C2  UNL     1      28.125  -0.015  53.424  1.00  0.00    -0.045 A 
HETATM   20  C1  UNL     1      29.385  -0.442  53.632  1.00  0.00     0.044 A 
HETATM   21  O1  UNL     1      28.172  -1.376  53.356  1.00  0.00     0.000 OA
HETATM   22  H3  UNL     1      27.408  -1.897  52.988  1.00  0.00     0.000 HD
ENDBRANCH  17  19
ENDBRANCH   1  16
TORSDOF 2
ENDMDL
MODEL 3
REMARK VINA RESULT:      -8.1      2.514      5.901
REMARK  2 active torsions:
REMARK  status: ('A' for Active; 'I' for Inactive)
REMARK    1  A    between atoms: C2_2  and  C3_4 
REMARK    2  A    between atoms: C5_6  and  C6_7 
ROOT
HETATM    1  C6  UNL     1      24.803   0.034  53.231  1.00  0.00     0.040 C 
HETATM    2  N1  UNL     1      24.137   1.028  52.748  1.00  0.00    -0.247 NA
HETATM    3  C7  UNL     1      24.611   2.146  52.044  1.00  0.00     0.228 C 
HETATM    4  N2  UNL     1      23.625   1.754  51.422  1.00  0.00    -0.264 NA
HETATM    5  C8  UNL     1      22.861   2.045  50.296  1.00  0.00     0.267 C 
HETATM    6  N3  UNL     1      21.456   1.847  50.306  1.00  0.00    -0.401 N 
HETATM    7  C9  UNL     1      20.948   0.546  50.615  1.00  0.00     0.154 C 
HETATM    8  C10 UNL     1      21.209   0.192  52.050  1.00  0.00    -0.040 A 
HETATM    9  C11 UNL     1      20.224   0.605  52.957  1.00  0.00     0.009 A 
HETATM   10  C12 UNL     1      20.455   0.414  54.305  1.00  0.00     0.001 A 
HETATM   11  C13 UNL     1      21.625  -0.165  54.750  1.00  0.00     0.007 A 
HETATM   12  C14 UNL     1      22.557  -0.551  53.826  1.00  0.00    -0.052 A 
HETATM   13  C15 UNL     1      22.380  -0.393  52.466  1.00  0.00     0.016 A 
HETATM   14  C16 UNL     1      23.957  -1.048  53.924  1.00  0.00     0.097 C 
HETATM   15  H11 UNL     1      20.873   2.639  50.603  1.00  0.00     0.155 HD
ENDROOT
BRANCH   1  16
HETATM   16  C5  UNL     1      26.210  -0.329  53.259  1.00  0.00     0.034 C 
HETATM   17  C3  UNL     1      27.386   0.229  53.462  1.00  0.00    -0.053 C 
HETATM   18  C4  UNL     1      28.610  -0.606  53.378  1.00  0.00     0.049 C 
BRANCH  17  19
HETATM   19  C2  UNL     1      27.773   1.593  53.775  1.00  0.00    -0.045 A 
HETATM   20  C1  UNL     1      28.982   2.185  53.761  1.00  0.00     0.044 A 
HETATM   21  O1  UNL     1      27.656   2.900  54.147  1.00  0.00     0.000 OA
HETATM   22  H3  UNL     1      26.818   3.241  54.563  1.00  0.00     0.000 HD
ENDBRANCH  17  19
ENDBRANCH   1  16
TORSDOF 2
ENDMDL
MODEL 4
REMARK VINA RESULT:      -8.1      2.987      6.196
REMARK  2 active torsions:
REMARK  status: ('A' for Active; 'I' for Inactive)
REMARK    1  A    between atoms: C2_2  and  C3_4 
REMARK    2  A    between atoms: C5_6  and  C6_7 
ROOT
HETATM    1  C6  UNL     1      24.923   0.592  53.643  1.00  0.00     0.040 C 
HETATM    2  N1  UNL     1      24.135   1.459  53.103  1.00  0.00    -0.247 NA
HETATM    3  C7  UNL     1      24.458   2.684  52.498  1.00  0.00     0.228 C 
HETATM    4  N2  UNL     1      23.656   2.139  51.741  1.00  0.00    -0.264 NA
HETATM    5  C8  UNL     1      22.996   2.333  50.532  1.00  0.00     0.267 C 
HETATM    6  N3  UNL     1      21.669   1.862  50.350  1.00  0.00    -0.401 N 
HETATM    7  C9  UNL     1      21.399   0.472  50.555  1.00  0.00     0.154 C 
HETATM    8  C10 UNL     1      21.547   0.102  52.002  1.00  0.00    -0.040 A 
HETATM    9  C11 UNL     1      20.393   0.265  52.781  1.00  0.00     0.009 A 
HETATM   10  C12 UNL     1      20.489   0.052  54.143  1.00  0.00     0.001 A 
HETATM   11  C13 UNL     1      21.687  -0.308  54.722  1.00  0.00     0.007 A 
HETATM   12  C14 UNL     1      22.785  -0.454  53.921  1.00  0.00    -0.052 A 
HETATM   13  C15 UNL     1      22.751  -0.263  52.553  1.00  0.00     0.016 A 
HETATM   14  C16 UNL     1      24.233  -0.670  54.189  1.00  0.00     0.097 C 
HETATM   15  H11 UNL     1      20.906   2.507  50.589  1.00  0.00     0.155 HD
ENDROOT
BRANCH   1  16
HETATM   16  C5  UNL     1      26.360   0.512  53.847  1.00  0.00     0.034 C 
HETATM   17  C3  UNL     1      27.357  -0.325  53.646  1.00  0.00    -0.053 C 
HETATM   18  C4  UNL     1      28.729   0.069  54.048  1.00  0.00     0.049 C 
BRANCH  17  19
HETATM   19  C2  UNL     1      27.405  -1.657  53.068  1.00  0.00    -0.045 A 
HETATM   20  C1  UNL     1      26.733  -2.184  52.028  1.00  0.00     0.044 A 
HETATM   21  O1  UNL     1      27.776  -2.957  52.886  1.00  0.00     0.000 OA
HETATM   22  H3  UNL     1      28.297  -3.443  53.581  1.00  0.00     0.000 HD
ENDBRANCH  17  19
ENDBRANCH   1  16
TORSDOF 2
ENDMDL
MODEL 5
REMARK VINA RESULT:      -7.6      2.555      4.197
REMARK  2 active torsions:
REMARK  status: ('A' for Active; 'I' for Inactive)
REMARK    1  A    between atoms: C2_2  and  C3_4 
REMARK    2  A    between atoms: C5_6  and  C6_7 
ROOT
HETATM    1  C6  UNL     1      25.152   3.252  51.106  1.00  0.00     0.040 C 
HETATM    2  N1  UNL     1      24.690   2.755  52.204  1.00  0.00    -0.247 NA
HETATM    3  C7  UNL     1      23.401   2.871  52.748  1.00  0.00     0.228 C 
HETATM    4  N2  UNL     1      23.704   1.683  52.855  1.00  0.00    -0.264 NA
HETATM    5  C8  UNL     1      23.205   0.471  53.319  1.00  0.00     0.267 C 
HETATM    6  N3  UNL     1      24.067  -0.482  53.920  1.00  0.00    -0.401 N 
HETATM    7  C9  UNL     1      25.196  -0.952  53.178  1.00  0.00     0.154 C 
HETATM    8  C10 UNL     1      26.208   0.140  52.987  1.00  0.00    -0.040 A 
HETATM    9  C11 UNL     1      27.152   0.267  54.014  1.00  0.00     0.009 A 
HETATM   10  C12 UNL     1      28.041   1.323  53.959  1.00  0.00     0.001 A 
HETATM   11  C13 UNL     1      27.999   2.232  52.922  1.00  0.00     0.007 A 
HETATM   12  C14 UNL     1      27.059   2.067  51.944  1.00  0.00    -0.052 A 
HETATM   13  C15 UNL     1      26.149   1.027  51.940  1.00  0.00     0.016 A 
HETATM   14  C16 UNL     1      26.616   2.900  50.792  1.00  0.00     0.097 C 
HETATM   15  H11 UNL     1      24.192  -0.425  54.939  1.00  0.00     0.155 HD
ENDROOT
BRANCH   1  16
HETATM   16  C5  UNL     1      24.592   4.077  50.049  1.00  0.00     0.034 C 
HETATM   17  C3  UNL     1      24.901   5.140  49.335  1.00  0.00    -0.053 C 
HETATM   18  C4  UNL     1      23.945   5.632  48.313  1.00  0.00     0.049 C 
BRANCH  17  19
HETATM   19  C2  UNL     1      26.071   6.002  49.333  1.00  0.00    -0.045 A 
HETATM   20  C1  UNL     1      27.167   5.988  48.552  1.00  0.00     0.044 A 
HETATM   21  O1  UNL     1      26.915   7.009  49.698  1.00  0.00     0.000 OA
HETATM   22  H3  UNL     1      26.785   7.500  50.555  1.00  0.00     0.000 HD
ENDBRANCH  17  19
ENDBRANCH   1  16
TORSDOF 2
ENDMDL
MODEL 6
REMARK VINA RESULT:      -7.6      3.002      6.054
REMARK  2 active torsions:
REMARK  status: ('A' for Active; 'I' for Inactive)
REMARK    1  A    between atoms: C2_2  and  C3_4 
REMARK    2  A    between atoms: C5_6  and  C6_7 
ROOT
HETATM    1  C6  UNL     1      24.061   1.339  53.055  1.00  0.00     0.040 C 
HETATM    2  N1  UNL     1      23.095   2.105  52.677  1.00  0.00    -0.247 NA
HETATM    3  C7  UNL     1      23.131   3.472  52.356  1.00  0.00     0.228 C 
HETATM    4  N2  UNL     1      22.466   2.938  51.469  1.00  0.00    -0.264 NA
HETATM    5  C8  UNL     1      21.770   3.235  50.302  1.00  0.00     0.267 C 
HETATM    6  N3  UNL     1      20.582   2.533  49.972  1.00  0.00    -0.401 N 
HETATM    7  C9  UNL     1      20.632   1.107  49.869  1.00  0.00     0.154 C 
HETATM    8  C10 UNL     1      20.869   0.478  51.211  1.00  0.00    -0.040 A 
HETATM    9  C11 UNL     1      19.714   0.213  51.959  1.00  0.00     0.009 A 
HETATM   10  C12 UNL     1      19.864  -0.260  53.248  1.00  0.00     0.001 A 
HETATM   11  C13 UNL     1      21.117  -0.462  53.788  1.00  0.00     0.007 A 
HETATM   12  C14 UNL     1      22.214  -0.187  53.020  1.00  0.00    -0.052 A 
HETATM   13  C15 UNL     1      22.128   0.279  51.722  1.00  0.00     0.016 A 
HETATM   14  C16 UNL     1      23.676  -0.131  53.296  1.00  0.00     0.097 C 
HETATM   15  H11 UNL     1      19.695   2.928  50.309  1.00  0.00     0.155 HD
ENDROOT
BRANCH   1  16
HETATM   16  C5  UNL     1      25.481   1.536  53.297  1.00  0.00     0.034 C 
HETATM   17  C3  UNL     1      26.530   2.083  52.720  1.00  0.00    -0.053 C 
HETATM   18  C4  UNL     1      27.847   2.024  53.400  1.00  0.00     0.049 C 
BRANCH  17  19
HETATM   19  C2  UNL     1      26.688   2.789  51.460  1.00  0.00    -0.045 A 
HETATM   20  C1  UNL     1      26.079   2.607  50.273  1.00  0.00     0.044 A 
HETATM   21  O1  UNL     1      27.157   3.693  50.553  1.00  0.00     0.000 OA
HETATM   22  H3  UNL     1      27.976   4.227  50.740  1.00  0.00     0.000 HD
ENDBRANCH  17  19
ENDBRANCH   1  16
TORSDOF 2
ENDMDL
MODEL 7
REMARK VINA RESULT:      -7.5      2.855      4.862
REMARK  2 active torsions:
REMARK  status: ('A' for Active; 'I' for Inactive)
REMARK    1  A    between atoms: C2_2  and  C3_4 
REMARK    2  A    between atoms: C5_6  and  C6_7 
ROOT
HETATM    1  C6  UNL     1      25.288   1.887  51.989  1.00  0.00     0.040 C 
HETATM    2  N1  UNL     1      24.222   2.101  52.684  1.00  0.00    -0.247 NA
HETATM    3  C7  UNL     1      23.389   3.231  52.690  1.00  0.00     0.228 C 
HETATM    4  N2  UNL     1      22.634   2.259  52.651  1.00  0.00    -0.264 NA
HETATM    5  C8  UNL     1      21.283   1.931  52.611  1.00  0.00     0.267 C 
HETATM    6  N3  UNL     1      20.800   0.779  53.283  1.00  0.00    -0.401 N 
HETATM    7  C9  UNL     1      21.369  -0.494  52.961  1.00  0.00     0.154 C 
HETATM    8  C10 UNL     1      22.795  -0.578  53.420  1.00  0.00    -0.040 A 
HETATM    9  C11 UNL     1      22.975  -1.023  54.737  1.00  0.00     0.009 A 
HETATM   10  C12 UNL     1      24.252  -1.016  55.261  1.00  0.00     0.001 A 
HETATM   11  C13 UNL     1      25.325  -0.579  54.512  1.00  0.00     0.007 A 
HETATM   12  C14 UNL     1      25.099  -0.153  53.233  1.00  0.00    -0.052 A 
HETATM   13  C15 UNL     1      23.847  -0.144  52.650  1.00  0.00     0.016 A 
HETATM   14  C16 UNL     1      25.947   0.514  52.206  1.00  0.00     0.097 C 
HETATM   15  H11 UNL     1      20.490   0.898  54.255  1.00  0.00     0.155 HD
ENDROOT
BRANCH   1  16
HETATM   16  C5  UNL     1      26.028   2.653  51.000  1.00  0.00     0.034 C 
HETATM   17  C3  UNL     1      25.805   3.420  49.952  1.00  0.00    -0.053 C 
HETATM   18  C4  UNL     1      26.955   4.009  49.225  1.00  0.00     0.049 C 
BRANCH  17  19
HETATM   19  C2  UNL     1      24.576   3.845  49.304  1.00  0.00    -0.045 A 
HETATM   20  C1  UNL     1      23.468   3.150  48.988  1.00  0.00     0.044 A 
HETATM   21  O1  UNL     1      23.669   4.665  48.699  1.00  0.00     0.000 OA
HETATM   22  H3  UNL     1      23.934   5.568  48.374  1.00  0.00     0.000 HD
ENDBRANCH  17  19
ENDBRANCH   1  16
TORSDOF 2
ENDMDL
MODEL 8
REMARK VINA RESULT:      -7.5      2.611      4.102
REMARK  2 active torsions:
REMARK  status: ('A' for Active; 'I' for Inactive)
REMARK    1  A    between atoms: C2_2  and  C3_4 
REMARK    2  A    between atoms: C5_6  and  C6_7 
ROOT
HETATM    1  C6  UNL     1      24.899   2.821  50.991  1.00  0.00     0.040 C 
HETATM    2  N1  UNL     1      24.575   2.356  52.150  1.00  0.00    -0.247 NA
HETATM    3  C7  UNL     1      23.313   2.325  52.764  1.00  0.00     0.228 C 
HETATM    4  N2  UNL     1      23.799   1.208  52.942  1.00  0.00    -0.264 NA
HETATM    5  C8  UNL     1      23.516  -0.021  53.528  1.00  0.00     0.267 C 
HETATM    6  N3  UNL     1      24.544  -0.781  54.144  1.00  0.00    -0.401 N 
HETATM    7  C9  UNL     1      25.692  -1.139  53.369  1.00  0.00     0.154 C 
HETATM    8  C10 UNL     1      26.513   0.071  53.032  1.00  0.00    -0.040 A 
HETATM    9  C11 UNL     1      27.478   0.423  53.985  1.00  0.00     0.009 A 
HETATM   10  C12 UNL     1      28.191   1.591  53.793  1.00  0.00     0.001 A 
HETATM   11  C13 UNL     1      27.958   2.393  52.696  1.00  0.00     0.007 A 
HETATM   12  C14 UNL     1      27.005   2.007  51.794  1.00  0.00    -0.052 A 
HETATM   13  C15 UNL     1      26.266   0.848  51.926  1.00  0.00     0.016 A 
HETATM   14  C16 UNL     1      26.382   2.665  50.612  1.00  0.00     0.097 C 
HETATM   15  H11 UNL     1      24.710  -0.621  55.145  1.00  0.00     0.155 HD
ENDROOT
BRANCH   1  16
HETATM   16  C5  UNL     1      24.166   3.461  49.911  1.00  0.00     0.034 C 
HETATM   17  C3  UNL     1      23.201   3.192  49.055  1.00  0.00    -0.053 C 
HETATM   18  C4  UNL     1      22.776   4.233  48.089  1.00  0.00     0.049 C 
BRANCH  17  19
HETATM   19  C2  UNL     1      22.402   1.999  48.837  1.00  0.00    -0.045 A 
HETATM   20  C1  UNL     1      21.726   1.227  49.709  1.00  0.00     0.044 A 
HETATM   21  O1  UNL     1      21.791   0.974  48.175  1.00  0.00     0.000 OA
HETATM   22  H3  UNL     1      22.029   0.761  47.233  1.00  0.00     0.000 HD
ENDBRANCH  17  19
ENDBRANCH   1  16
TORSDOF 2
ENDMDL
MODEL 9
REMARK VINA RESULT:      -7.4      4.264      6.744
REMARK  2 active torsions:
REMARK  status: ('A' for Active; 'I' for Inactive)
REMARK    1  A    between atoms: C2_2  and  C3_4 
REMARK    2  A    between atoms: C5_6  and  C6_7 
ROOT
HETATM    1  C6  UNL     1      26.314   5.231  49.365  1.00  0.00     0.040 C 
HETATM    2  N1  UNL     1      25.345   5.343  50.208  1.00  0.00    -0.247 NA
HETATM    3  C7  UNL     1      24.602   6.484  50.549  1.00  0.00     0.228 C 
HETATM    4  N2  UNL     1      23.778   5.584  50.394  1.00  0.00    -0.264 NA
HETATM    5  C8  UNL     1      22.410   5.340  50.444  1.00  0.00     0.267 C 
HETATM    6  N3  UNL     1      21.914   4.095  50.910  1.00  0.00    -0.401 N 
HETATM    7  C9  UNL     1      22.351   2.896  50.263  1.00  0.00     0.154 C 
HETATM    8  C10 UNL     1      23.807   2.643  50.526  1.00  0.00    -0.040 A 
HETATM    9  C11 UNL     1      24.087   1.914  51.689  1.00  0.00     0.009 A 
HETATM   10  C12 UNL     1      25.409   1.743  52.051  1.00  0.00     0.001 A 
HETATM   11  C13 UNL     1      26.428   2.278  51.291  1.00  0.00     0.007 A 
HETATM   12  C14 UNL     1      26.105   2.982  50.165  1.00  0.00    -0.052 A 
HETATM   13  C15 UNL     1      24.803   3.180  49.747  1.00  0.00     0.016 A 
HETATM   14  C16 UNL     1      26.889   3.813  49.210  1.00  0.00     0.097 C 
HETATM   15  H11 UNL     1      21.715   4.016  51.915  1.00  0.00     0.155 HD
ENDROOT
BRANCH   1  16
HETATM   16  C5  UNL     1      27.004   6.156  48.479  1.00  0.00     0.034 C 
HETATM   17  C3  UNL     1      28.230   6.484  48.130  1.00  0.00    -0.053 C 
HETATM   18  C4  UNL     1      28.437   7.555  47.125  1.00  0.00     0.049 C 
BRANCH  17  19
HETATM   19  C2  UNL     1      29.527   5.983  48.550  1.00  0.00    -0.045 A 
HETATM   20  C1  UNL     1      30.519   5.417  47.837  1.00  0.00     0.044 A 
HETATM   21  O1  UNL     1      30.568   5.665  49.373  1.00  0.00     0.000 OA
HETATM   22  H3  UNL     1      30.459   5.673  50.362  1.00  0.00     0.000 HD
ENDBRANCH  17  19
ENDBRANCH   1  16
TORSDOF 2
ENDMDL
