MODEL 1
REMARK VINA RESULT:      -7.7      0.000      0.000
REMARK  4 active torsions:
REMARK  status: ('A' for Active; 'I' for Inactive)
REMARK    1  A    between atoms: N3_16  and  C12_17 
REMARK    2  A    between atoms: C12_17  and  C13_18 
REMARK    3  A    between atoms: C12_17  and  C14_20 
REMARK    4  A    between atoms: C14_20  and  O3_21 
ROOT
HETATM    1  N1  UNL     1      27.039   2.364  51.359  1.00  0.00    -0.307 NA
HETATM    2  C1  UNL     1      25.772   2.479  50.952  1.00  0.00     0.023 C 
HETATM    3  C2  UNL     1      26.253   3.736  50.297  1.00  0.00     0.069 C 
HETATM    4  C3  UNL     1      25.813   4.687  49.610  1.00  0.00    -0.017 C 
HETATM    5  C4  UNL     1      24.742   5.409  48.882  1.00  0.00     0.004 C 
HETATM    6  C5  UNL     1      23.484   5.366  48.560  1.00  0.00     0.179 C 
HETATM    7  O1  UNL     1      23.278   4.127  49.260  1.00  0.00    -0.361 OA
HETATM    8  C6  UNL     1      22.753   4.199  50.582  1.00  0.00     0.287 C 
HETATM    9  N2  UNL     1      22.587   3.024  51.292  1.00  0.00    -0.387 N 
HETATM   10  C7  UNL     1      23.505   2.235  51.899  1.00  0.00     0.159 C 
HETATM   11  S1  UNL     1      24.519   3.133  53.181  1.00  0.00    -0.106 SA
HETATM   12  C8  UNL     1      25.438   1.593  53.571  1.00  0.00     0.001 C 
HETATM   13  C9  UNL     1      25.312   0.786  52.475  1.00  0.00    -0.051 C 
HETATM   14  C10 UNL     1      25.896  -0.622  52.324  1.00  0.00     0.055 C 
HETATM   15  C11 UNL     1      27.098  -0.781  53.216  1.00  0.00     0.122 C 
HETATM   16  N3  UNL     1      27.404   0.384  53.941  1.00  0.00    -0.399 N 
HETATM   17  C15 UNL     1      26.313   0.969  54.646  1.00  0.00     0.163 C 
HETATM   18  C16 UNL     1      24.632   1.517  51.301  1.00  0.00     0.096 C 
HETATM   19  H1  UNL     1      27.632   3.182  50.990  1.00  0.00     0.186 HD
HETATM   20  H8  UNL     1      21.563   2.871  51.630  1.00  0.00     0.156 HD
ENDROOT
BRANCH  16  21
HETATM   21  C12 UNL     1      28.624   0.466  54.616  1.00  0.00     0.136 C 
BRANCH  21  22
HETATM   22  C13 UNL     1      29.538  -0.585  54.022  1.00  0.00     0.418 C 
HETATM   23  O2  UNL     1      30.522  -0.474  53.346  1.00  0.00    -0.428 OA
ENDBRANCH  21  22
BRANCH  21  24
HETATM   24  C14 UNL     1      29.371   1.779  54.556  1.00  0.00     0.191 C 
BRANCH  24  25
HETATM   25  O3  UNL     1      29.296   2.178  53.209  1.00  0.00    -0.399 OA
HETATM   26  H18 UNL     1      28.512   2.793  53.046  1.00  0.00     0.209 HD
ENDBRANCH  24  25
ENDBRANCH  21  24
ENDBRANCH  16  21
TORSDOF 4
ENDMDL
MODEL 2
REMARK VINA RESULT:      -7.0      2.464      3.972
REMARK  4 active torsions:
REMARK  status: ('A' for Active; 'I' for Inactive)
REMARK    1  A    between atoms: N3_16  and  C12_17 
REMARK    2  A    between atoms: C12_17  and  C13_18 
REMARK    3  A    between atoms: C12_17  and  C14_20 
REMARK    4  A    between atoms: C14_20  and  O3_21 
ROOT
HETATM    1  N1  UNL     1      23.499   0.130  52.961  1.00  0.00    -0.307 NA
HETATM    2  C1  UNL     1      22.830   1.280  52.847  1.00  0.00     0.023 C 
HETATM    3  C2  UNL     1      21.668   0.399  52.512  1.00  0.00     0.069 C 
HETATM    4  C3  UNL     1      20.460   0.487  52.193  1.00  0.00    -0.017 C 
HETATM    5  C4  UNL     1      19.217   1.245  51.911  1.00  0.00     0.004 C 
HETATM    6  C5  UNL     1      18.712   2.440  51.854  1.00  0.00     0.179 C 
HETATM    7  O1  UNL     1      19.961   3.058  52.212  1.00  0.00    -0.361 OA
HETATM    8  C6  UNL     1      20.779   3.546  51.154  1.00  0.00     0.287 C 
HETATM    9  N2  UNL     1      22.004   4.104  51.469  1.00  0.00    -0.387 N 
HETATM   10  C7  UNL     1      23.162   3.510  51.842  1.00  0.00     0.159 C 
HETATM   11  S1  UNL     1      23.791   2.272  50.598  1.00  0.00    -0.106 SA
HETATM   12  C8  UNL     1      25.258   1.926  51.646  1.00  0.00     0.001 C 
HETATM   13  C9  UNL     1      24.917   2.299  52.915  1.00  0.00    -0.051 C 
HETATM   14  C10 UNL     1      25.819   2.217  54.149  1.00  0.00     0.055 C 
HETATM   15  C11 UNL     1      26.863   1.149  53.956  1.00  0.00     0.122 C 
HETATM   16  N3  UNL     1      26.746   0.481  52.724  1.00  0.00    -0.399 N 
HETATM   17  C15 UNL     1      26.652   1.324  51.580  1.00  0.00     0.163 C 
HETATM   18  C16 UNL     1      23.427   2.681  53.018  1.00  0.00     0.096 C 
HETATM   19  H1  UNL     1      22.850  -0.708  52.773  1.00  0.00     0.186 HD
HETATM   20  H8  UNL     1      22.114   5.125  51.106  1.00  0.00     0.156 HD
ENDROOT
BRANCH  16  21
HETATM   21  C12 UNL     1      27.480  -0.687  52.510  1.00  0.00     0.136 C 
BRANCH  21  22
HETATM   22  C13 UNL     1      28.558  -0.742  53.572  1.00  0.00     0.418 C 
HETATM   23  O2  UNL     1      29.710  -1.071  53.503  1.00  0.00    -0.428 OA
ENDBRANCH  21  22
BRANCH  21  24
HETATM   24  C14 UNL     1      26.738  -2.002  52.573  1.00  0.00     0.191 C 
BRANCH  24  25
HETATM   25  O3  UNL     1      27.740  -2.977  52.737  1.00  0.00    -0.399 OA
HETATM   26  H18 UNL     1      28.119  -3.274  51.849  1.00  0.00     0.209 HD
ENDBRANCH  24  25
ENDBRANCH  21  24
ENDBRANCH  16  21
TORSDOF 4
ENDMDL
MODEL 3
REMARK VINA RESULT:      -6.9      2.178      3.030
REMARK  4 active torsions:
REMARK  status: ('A' for Active; 'I' for Inactive)
REMARK    1  A    between atoms: N3_16  and  C12_17 
REMARK    2  A    between atoms: C12_17  and  C13_18 
REMARK    3  A    between atoms: C12_17  and  C14_20 
REMARK    4  A    between atoms: C14_20  and  O3_21 
ROOT
HETATM    1  N1  UNL     1      26.325   3.954  50.371  1.00  0.00    -0.307 NA
HETATM    2  C1  UNL     1      25.309   4.502  49.700  1.00  0.00     0.023 C 
HETATM    3  C2  UNL     1      26.343   5.472  49.220  1.00  0.00     0.069 C 
HETATM    4  C3  UNL     1      26.440   6.488  48.494  1.00  0.00    -0.017 C 
HETATM    5  C4  UNL     1      25.892   7.517  47.578  1.00  0.00     0.004 C 
HETATM    6  C5  UNL     1      24.808   7.918  46.985  1.00  0.00     0.179 C 
HETATM    7  O1  UNL     1      24.019   6.868  47.570  1.00  0.00    -0.361 OA
HETATM    8  C6  UNL     1      23.278   7.180  48.744  1.00  0.00     0.287 C 
HETATM    9  N2  UNL     1      22.546   6.176  49.351  1.00  0.00    -0.387 N 
HETATM   10  C7  UNL     1      22.958   5.135  50.112  1.00  0.00     0.159 C 
HETATM   11  S1  UNL     1      23.919   5.659  51.622  1.00  0.00    -0.106 SA
HETATM   12  C8  UNL     1      24.108   3.908  52.141  1.00  0.00     0.001 C 
HETATM   13  C9  UNL     1      23.944   3.156  51.012  1.00  0.00    -0.051 C 
HETATM   14  C10 UNL     1      23.997   1.627  50.934  1.00  0.00     0.055 C 
HETATM   15  C11 UNL     1      24.832   1.082  52.063  1.00  0.00     0.122 C 
HETATM   16  N3  UNL     1      25.370   2.087  52.885  1.00  0.00    -0.399 N 
HETATM   17  C15 UNL     1      24.437   3.056  53.355  1.00  0.00     0.163 C 
HETATM   18  C16 UNL     1      23.851   4.034  49.748  1.00  0.00     0.096 C 
HETATM   19  H1  UNL     1      27.240   4.486  50.176  1.00  0.00     0.186 HD
HETATM   20  H8  UNL     1      21.488   6.417  49.448  1.00  0.00     0.156 HD
ENDROOT
BRANCH  16  21
HETATM   21  C12 UNL     1      26.356   1.750  53.815  1.00  0.00     0.136 C 
BRANCH  21  22
HETATM   22  C13 UNL     1      26.053   0.351  54.306  1.00  0.00     0.418 C 
HETATM   23  O2  UNL     1      26.305  -0.185  55.349  1.00  0.00    -0.428 OA
ENDBRANCH  21  22
BRANCH  21  24
HETATM   24  C14 UNL     1      27.792   1.747  53.343  1.00  0.00     0.191 C 
BRANCH  24  25
HETATM   25  O3  UNL     1      27.887   2.836  52.458  1.00  0.00    -0.399 OA
HETATM   26  H18 UNL     1      28.634   2.709  51.790  1.00  0.00     0.209 HD
ENDBRANCH  24  25
ENDBRANCH  21  24
ENDBRANCH  16  21
TORSDOF 4
ENDMDL
MODEL 4
REMARK VINA RESULT:      -6.8      3.082      6.087
REMARK  4 active torsions:
REMARK  status: ('A' for Active; 'I' for Inactive)
REMARK    1  A    between atoms: N3_16  and  C12_17 
REMARK    2  A    between atoms: C12_17  and  C13_18 
REMARK    3  A    between atoms: C12_17  and  C14_20 
REMARK    4  A    between atoms: C14_20  and  O3_21 
ROOT
HETATM    1  N1  UNL     1      25.146   2.966  51.939  1.00  0.00    -0.307 NA
HETATM    2  C1  UNL     1      23.963   2.588  52.432  1.00  0.00     0.023 C 
HETATM    3  C2  UNL     1      24.700   1.355  52.852  1.00  0.00     0.069 C 
HETATM    4  C3  UNL     1      24.488   0.262  53.428  1.00  0.00    -0.017 C 
HETATM    5  C4  UNL     1      23.626  -0.718  54.131  1.00  0.00     0.004 C 
HETATM    6  C5  UNL     1      22.419  -0.928  54.562  1.00  0.00     0.179 C 
HETATM    7  O1  UNL     1      21.950   0.339  54.071  1.00  0.00    -0.361 OA
HETATM    8  C6  UNL     1      21.303   0.352  52.803  1.00  0.00     0.287 C 
HETATM    9  N2  UNL     1      20.882   1.565  52.288  1.00  0.00    -0.387 N 
HETATM   10  C7  UNL     1      21.597   2.569  51.727  1.00  0.00     0.159 C 
HETATM   11  S1  UNL     1      22.594   2.028  50.246  1.00  0.00    -0.106 SA
HETATM   12  C8  UNL     1      23.216   3.739  50.008  1.00  0.00     0.001 C 
HETATM   13  C9  UNL     1      23.086   4.363  51.216  1.00  0.00    -0.051 C 
HETATM   14  C10 UNL     1      23.459   5.817  51.521  1.00  0.00     0.055 C 
HETATM   15  C11 UNL     1      24.519   6.290  50.563  1.00  0.00     0.122 C 
HETATM   16  N3  UNL     1      24.921   5.297  49.652  1.00  0.00    -0.399 N 
HETATM   17  C15 UNL     1      23.863   4.635  48.965  1.00  0.00     0.163 C 
HETATM   18  C16 UNL     1      22.657   3.381  52.325  1.00  0.00     0.096 C 
HETATM   19  H1  UNL     1      25.895   2.217  52.133  1.00  0.00     0.186 HD
HETATM   20  H8  UNL     1      19.817   1.587  52.065  1.00  0.00     0.156 HD
ENDROOT
BRANCH  16  21
HETATM   21  C12 UNL     1      26.058   5.510  48.871  1.00  0.00     0.136 C 
BRANCH  21  22
HETATM   22  C13 UNL     1      26.636   6.850  49.273  1.00  0.00     0.418 C 
HETATM   23  O2  UNL     1      27.603   7.438  48.872  1.00  0.00    -0.428 OA
ENDBRANCH  21  22
BRANCH  21  24
HETATM   24  C14 UNL     1      27.180   4.502  48.978  1.00  0.00     0.191 C 
BRANCH  24  25
HETATM   25  O3  UNL     1      27.156   4.072  50.317  1.00  0.00    -0.399 OA
HETATM   26  H18 UNL     1      27.456   4.802  50.948  1.00  0.00     0.209 HD
ENDBRANCH  24  25
ENDBRANCH  21  24
ENDBRANCH  16  21
TORSDOF 4
ENDMDL
MODEL 5
REMARK VINA RESULT:      -6.7      2.193      6.544
REMARK  4 active torsions:
REMARK  status: ('A' for Active; 'I' for Inactive)
REMARK    1  A    between atoms: N3_16  and  C12_17 
REMARK    2  A    between atoms: C12_17  and  C13_18 
REMARK    3  A    between atoms: C12_17  and  C14_20 
REMARK    4  A    between atoms: C14_20  and  O3_21 
ROOT
HETATM    1  N1  UNL     1      25.328   0.183  51.687  1.00  0.00    -0.307 NA
HETATM    2  C1  UNL     1      26.566   0.582  51.993  1.00  0.00     0.023 C 
HETATM    3  C2  UNL     1      26.758  -0.839  52.421  1.00  0.00     0.069 C 
HETATM    4  C3  UNL     1      27.637  -1.579  52.920  1.00  0.00    -0.017 C 
HETATM    5  C4  UNL     1      28.998  -1.850  53.443  1.00  0.00     0.004 C 
HETATM    6  C5  UNL     1      30.156  -1.310  53.673  1.00  0.00     0.179 C 
HETATM    7  O1  UNL     1      29.729  -0.025  53.188  1.00  0.00    -0.361 OA
HETATM    8  C6  UNL     1      29.292   0.928  54.151  1.00  0.00     0.287 C 
HETATM    9  N2  UNL     1      28.835   2.155  53.707  1.00  0.00    -0.387 N 
HETATM   10  C7  UNL     1      27.660   2.487  53.120  1.00  0.00     0.159 C 
HETATM   11  S1  UNL     1      26.169   2.049  54.151  1.00  0.00    -0.106 SA
HETATM   12  C8  UNL     1      25.050   2.745  52.874  1.00  0.00     0.001 C 
HETATM   13  C9  UNL     1      25.756   2.740  51.704  1.00  0.00    -0.051 C 
HETATM   14  C10 UNL     1      25.251   3.241  50.348  1.00  0.00     0.055 C 
HETATM   15  C11 UNL     1      23.748   3.168  50.297  1.00  0.00     0.122 C 
HETATM   16  N3  UNL     1      23.182   2.646  51.473  1.00  0.00    -0.399 N 
HETATM   17  C15 UNL     1      23.628   3.248  52.684  1.00  0.00     0.163 C 
HETATM   18  C16 UNL     1      27.105   2.009  51.853  1.00  0.00     0.096 C 
HETATM   19  H1  UNL     1      25.203  -0.864  51.898  1.00  0.00     0.186 HD
HETATM   20  H8  UNL     1      29.382   2.994  54.133  1.00  0.00     0.156 HD
ENDROOT
BRANCH  16  21
HETATM   21  C12 UNL     1      21.831   2.292  51.479  1.00  0.00     0.136 C 
BRANCH  21  22
HETATM   22  C13 UNL     1      21.690   1.071  52.363  1.00  0.00     0.418 C 
HETATM   23  O2  UNL     1      22.273   0.023  52.350  1.00  0.00    -0.428 OA
ENDBRANCH  21  22
BRANCH  21  24
HETATM   24  C14 UNL     1      20.841   3.316  51.985  1.00  0.00     0.191 C 
BRANCH  24  25
HETATM   25  O3  UNL     1      20.065   2.630  52.937  1.00  0.00    -0.399 OA
HETATM   26  H18 UNL     1      20.195   3.006  53.865  1.00  0.00     0.209 HD
ENDBRANCH  24  25
ENDBRANCH  21  24
ENDBRANCH  16  21
TORSDOF 4
ENDMDL
MODEL 6
REMARK VINA RESULT:      -6.7      7.226     10.057
REMARK  4 active torsions:
REMARK  status: ('A' for Active; 'I' for Inactive)
REMARK    1  A    between atoms: N3_16  and  C12_17 
REMARK    2  A    between atoms: C12_17  and  C13_18 
REMARK    3  A    between atoms: C12_17  and  C14_20 
REMARK    4  A    between atoms: C14_20  and  O3_21 
ROOT
HETATM    1  N1  UNL     1      30.156   6.101  47.432  1.00  0.00    -0.307 NA
HETATM    2  C1  UNL     1      31.481   6.228  47.326  1.00  0.00     0.023 C 
HETATM    3  C2  UNL     1      31.487   4.740  47.490  1.00  0.00     0.069 C 
HETATM    4  C3  UNL     1      32.297   3.787  47.557  1.00  0.00    -0.017 C 
HETATM    5  C4  UNL     1      33.661   3.205  47.531  1.00  0.00     0.004 C 
HETATM    6  C5  UNL     1      34.919   3.496  47.398  1.00  0.00     0.179 C 
HETATM    7  O1  UNL     1      34.648   4.900  47.248  1.00  0.00    -0.361 OA
HETATM    8  C6  UNL     1      34.765   5.719  48.406  1.00  0.00     0.287 C 
HETATM    9  N2  UNL     1      34.466   7.065  48.298  1.00  0.00    -0.387 N 
HETATM   10  C7  UNL     1      33.267   7.687  48.206  1.00  0.00     0.159 C 
HETATM   11  S1  UNL     1      32.132   7.318  49.639  1.00  0.00    -0.106 SA
HETATM   12  C8  UNL     1      30.839   8.412  48.930  1.00  0.00     0.001 C 
HETATM   13  C9  UNL     1      31.110   8.506  47.594  1.00  0.00    -0.051 C 
HETATM   14  C10 UNL     1      30.316   9.323  46.572  1.00  0.00     0.055 C 
HETATM   15  C11 UNL     1      28.900   9.509  47.046  1.00  0.00     0.122 C 
HETATM   16  N3  UNL     1      28.645   8.880  48.277  1.00  0.00    -0.399 N 
HETATM   17  C15 UNL     1      29.578   9.167  49.315  1.00  0.00     0.163 C 
HETATM   18  C16 UNL     1      32.242   7.548  47.171  1.00  0.00     0.096 C 
HETATM   19  H1  UNL     1      29.881   5.067  47.552  1.00  0.00     0.186 HD
HETATM   20  H8  UNL     1      35.290   7.710  48.598  1.00  0.00     0.156 HD
ENDROOT
BRANCH  16  21
HETATM   21  C12 UNL     1      27.326   8.757  48.719  1.00  0.00     0.136 C 
BRANCH  21  22
HETATM   22  C13 UNL     1      26.917   7.313  48.522  1.00  0.00     0.418 C 
HETATM   23  O2  UNL     1      27.558   6.301  48.593  1.00  0.00    -0.428 OA
ENDBRANCH  21  22
BRANCH  21  24
HETATM   24  C14 UNL     1      27.036   9.100  50.163  1.00  0.00     0.191 C 
BRANCH  24  25
HETATM   25  O3  UNL     1      26.504   7.922  50.716  1.00  0.00    -0.399 OA
HETATM   26  H18 UNL     1      25.654   8.103  51.231  1.00  0.00     0.209 HD
ENDBRANCH  24  25
ENDBRANCH  21  24
ENDBRANCH  16  21
TORSDOF 4
ENDMDL
MODEL 7
REMARK VINA RESULT:      -6.7      1.831      2.385
REMARK  4 active torsions:
REMARK  status: ('A' for Active; 'I' for Inactive)
REMARK    1  A    between atoms: N3_16  and  C12_17 
REMARK    2  A    between atoms: C12_17  and  C13_18 
REMARK    3  A    between atoms: C12_17  and  C14_20 
REMARK    4  A    between atoms: C14_20  and  O3_21 
ROOT
HETATM    1  N1  UNL     1      24.782   2.215  50.318  1.00  0.00    -0.307 NA
HETATM    2  C1  UNL     1      23.503   2.555  50.499  1.00  0.00     0.023 C 
HETATM    3  C2  UNL     1      23.687   3.339  49.238  1.00  0.00     0.069 C 
HETATM    4  C3  UNL     1      23.043   4.104  48.483  1.00  0.00    -0.017 C 
HETATM    5  C4  UNL     1      21.820   4.833  48.067  1.00  0.00     0.004 C 
HETATM    6  C5  UNL     1      20.579   5.054  48.379  1.00  0.00     0.179 C 
HETATM    7  O1  UNL     1      20.653   4.222  49.548  1.00  0.00    -0.361 OA
HETATM    8  C6  UNL     1      20.895   4.862  50.797  1.00  0.00     0.287 C 
HETATM    9  N2  UNL     1      21.015   4.079  51.930  1.00  0.00    -0.387 N 
HETATM   10  C7  UNL     1      22.039   3.296  52.344  1.00  0.00     0.159 C 
HETATM   11  S1  UNL     1      23.646   4.223  52.539  1.00  0.00    -0.106 SA
HETATM   12  C8  UNL     1      24.490   2.692  53.099  1.00  0.00     0.001 C 
HETATM   13  C9  UNL     1      23.745   1.650  52.625  1.00  0.00    -0.051 C 
HETATM   14  C10 UNL     1      24.037   0.163  52.845  1.00  0.00     0.055 C 
HETATM   15  C11 UNL     1      25.507  -0.043  53.095  1.00  0.00     0.122 C 
HETATM   16  N3  UNL     1      26.247   1.151  53.045  1.00  0.00    -0.399 N 
HETATM   17  C15 UNL     1      25.734   2.221  53.834  1.00  0.00     0.163 C 
HETATM   18  C16 UNL     1      22.625   2.130  51.681  1.00  0.00     0.096 C 
HETATM   19  H1  UNL     1      25.170   2.662  49.419  1.00  0.00     0.186 HD
HETATM   20  H8  UNL     1      20.304   4.345  52.710  1.00  0.00     0.156 HD
ENDROOT
BRANCH  16  21
HETATM   21  C12 UNL     1      27.641   1.088  53.014  1.00  0.00     0.136 C 
BRANCH  21  22
HETATM   22  C13 UNL     1      28.164   2.278  53.790  1.00  0.00     0.418 C 
HETATM   23  O2  UNL     1      29.173   2.417  54.425  1.00  0.00    -0.428 OA
ENDBRANCH  21  22
BRANCH  21  24
HETATM   24  C14 UNL     1      28.300  -0.140  53.601  1.00  0.00     0.191 C 
BRANCH  24  25
HETATM   25  O3  UNL     1      28.124  -0.017  54.991  1.00  0.00    -0.399 OA
HETATM   26  H18 UNL     1      28.869   0.516  55.415  1.00  0.00     0.209 HD
ENDBRANCH  24  25
ENDBRANCH  21  24
ENDBRANCH  16  21
TORSDOF 4
ENDMDL
MODEL 8
REMARK VINA RESULT:      -6.6      3.514      7.239
REMARK  4 active torsions:
REMARK  status: ('A' for Active; 'I' for Inactive)
REMARK    1  A    between atoms: N3_16  and  C12_17 
REMARK    2  A    between atoms: C12_17  and  C13_18 
REMARK    3  A    between atoms: C12_17  and  C14_20 
REMARK    4  A    between atoms: C14_20  and  O3_21 
ROOT
HETATM    1  N1  UNL     1      21.288   2.828  51.450  1.00  0.00    -0.307 NA
HETATM    2  C1  UNL     1      22.058   1.774  51.738  1.00  0.00     0.023 C 
HETATM    3  C2  UNL     1      21.075   1.545  52.842  1.00  0.00     0.069 C 
HETATM    4  C3  UNL     1      20.870   0.757  53.795  1.00  0.00    -0.017 C 
HETATM    5  C4  UNL     1      21.192  -0.431  54.622  1.00  0.00     0.004 C 
HETATM    6  C5  UNL     1      22.030  -1.413  54.759  1.00  0.00     0.179 C 
HETATM    7  O1  UNL     1      22.815  -0.990  53.631  1.00  0.00    -0.361 OA
HETATM    8  C6  UNL     1      23.971  -0.202  53.893  1.00  0.00     0.287 C 
HETATM    9  N2  UNL     1      24.718   0.255  52.822  1.00  0.00    -0.387 N 
HETATM   10  C7  UNL     1      24.462   1.254  51.945  1.00  0.00     0.159 C 
HETATM   11  S1  UNL     1      24.208   2.910  52.765  1.00  0.00    -0.106 SA
HETATM   12  C8  UNL     1      23.966   3.710  51.131  1.00  0.00     0.001 C 
HETATM   13  C9  UNL     1      23.594   2.717  50.271  1.00  0.00    -0.051 C 
HETATM   14  C10 UNL     1      23.291   2.886  48.779  1.00  0.00     0.055 C 
HETATM   15  C11 UNL     1      22.855   4.299  48.498  1.00  0.00     0.122 C 
HETATM   16  N3  UNL     1      22.809   5.101  49.651  1.00  0.00    -0.399 N 
HETATM   17  C15 UNL     1      23.981   5.074  50.461  1.00  0.00     0.163 C 
HETATM   18  C16 UNL     1      23.347   1.385  51.007  1.00  0.00     0.096 C 
HETATM   19  H1  UNL     1      20.454   2.885  52.128  1.00  0.00     0.186 HD
HETATM   20  H8  UNL     1      25.760  -0.055  52.866  1.00  0.00     0.156 HD
ENDROOT
BRANCH  16  21
HETATM   21  C12 UNL     1      22.193   6.352  49.586  1.00  0.00     0.136 C 
BRANCH  21  22
HETATM   22  C13 UNL     1      20.712   6.138  49.819  1.00  0.00     0.418 C 
HETATM   23  O2  UNL     1      20.133   5.310  50.464  1.00  0.00    -0.428 OA
ENDBRANCH  21  22
BRANCH  21  24
HETATM   24  C14 UNL     1      22.642   7.407  50.572  1.00  0.00     0.191 C 
BRANCH  24  25
HETATM   25  O3  UNL     1      21.570   7.542  51.472  1.00  0.00    -0.399 OA
HETATM   26  H18 UNL     1      21.409   6.691  51.991  1.00  0.00     0.209 HD
ENDBRANCH  24  25
ENDBRANCH  21  24
ENDBRANCH  16  21
TORSDOF 4
ENDMDL
MODEL 9
REMARK VINA RESULT:      -6.6      3.035      7.316
REMARK  4 active torsions:
REMARK  status: ('A' for Active; 'I' for Inactive)
REMARK    1  A    between atoms: N3_16  and  C12_17 
REMARK    2  A    between atoms: C12_17  and  C13_18 
REMARK    3  A    between atoms: C12_17  and  C14_20 
REMARK    4  A    between atoms: C14_20  and  O3_21 
ROOT
HETATM    1  N1  UNL     1      23.044   0.290  52.788  1.00  0.00    -0.307 NA
HETATM    2  C1  UNL     1      24.261   0.698  52.422  1.00  0.00     0.023 C 
HETATM    3  C2  UNL     1      24.713  -0.031  53.648  1.00  0.00     0.069 C 
HETATM    4  C3  UNL     1      25.763  -0.274  54.286  1.00  0.00    -0.017 C 
HETATM    5  C4  UNL     1      27.229  -0.201  54.500  1.00  0.00     0.004 C 
HETATM    6  C5  UNL     1      28.336   0.261  54.002  1.00  0.00     0.179 C 
HETATM    7  O1  UNL     1      27.660   0.870  52.888  1.00  0.00    -0.361 OA
HETATM    8  C6  UNL     1      27.338   2.253  52.992  1.00  0.00     0.287 C 
HETATM    9  N2  UNL     1      26.649   2.851  51.952  1.00  0.00    -0.387 N 
HETATM   10  C7  UNL     1      25.343   2.763  51.608  1.00  0.00     0.159 C 
HETATM   11  S1  UNL     1      24.183   3.277  52.975  1.00  0.00    -0.106 SA
HETATM   12  C8  UNL     1      22.731   2.964  51.895  1.00  0.00     0.001 C 
HETATM   13  C9  UNL     1      23.154   2.094  50.931  1.00  0.00    -0.051 C 
HETATM   14  C10 UNL     1      22.304   1.542  49.783  1.00  0.00     0.055 C 
HETATM   15  C11 UNL     1      20.847   1.563  50.163  1.00  0.00     0.122 C 
HETATM   16  N3  UNL     1      20.624   2.051  51.462  1.00  0.00    -0.399 N 
HETATM   17  C15 UNL     1      21.253   3.293  51.764  1.00  0.00     0.163 C 
HETATM   18  C16 UNL     1      24.580   1.579  51.210  1.00  0.00     0.096 C 
HETATM   19  H1  UNL     1      23.095  -0.301  53.686  1.00  0.00     0.186 HD
HETATM   20  H8  UNL     1      27.173   3.707  51.530  1.00  0.00     0.156 HD
ENDROOT
BRANCH  16  21
HETATM   21  C12 UNL     1      19.361   1.900  52.038  1.00  0.00     0.136 C 
BRANCH  21  22
HETATM   22  C13 UNL     1      18.483   3.008  51.496  1.00  0.00     0.418 C 
HETATM   23  O2  UNL     1      17.768   3.788  52.062  1.00  0.00    -0.428 OA
ENDBRANCH  21  22
BRANCH  21  24
HETATM   24  C14 UNL     1      18.629   0.602  51.790  1.00  0.00     0.191 C 
BRANCH  24  25
HETATM   25  O3  UNL     1      17.267   0.952  51.763  1.00  0.00    -0.399 OA
HETATM   26  H18 UNL     1      17.138   1.927  51.534  1.00  0.00     0.209 HD
ENDBRANCH  24  25
ENDBRANCH  21  24
ENDBRANCH  16  21
TORSDOF 4
ENDMDL
