MODEL 1
REMARK VINA RESULT:      -7.9      0.000      0.000
REMARK  1 active torsions:
REMARK  status: ('A' for Active; 'I' for Inactive)
REMARK    1  A    between atoms: N1_2  and  C2_3 
ROOT
HETATM    1  C2  UNL     1      21.819   3.188  50.596  1.00  0.00     0.341 C 
HETATM    2  C3  UNL     1      22.495   2.569  51.784  1.00  0.00     0.177 C 
HETATM    3  N2  UNL     1      22.342   1.136  51.893  1.00  0.00    -0.386 N 
HETATM    4  C4  UNL     1      22.968   0.377  52.942  1.00  0.00     0.036 A 
HETATM    5  C5  UNL     1      24.328   0.267  52.612  1.00  0.00     0.048 A 
HETATM    6  C6  UNL     1      25.336  -0.374  53.347  1.00  0.00     0.013 A 
HETATM    7 BR1  UNL     1      27.144  -0.473  52.829  1.00  0.00    -0.051 Br
HETATM    8  C7  UNL     1      24.872  -0.940  54.513  1.00  0.00     0.020 A 
HETATM    9  C8  UNL     1      23.546  -0.837  54.840  1.00  0.00     0.011 A 
HETATM   10  C9  UNL     1      22.560  -0.203  54.108  1.00  0.00    -0.028 A 
HETATM   11  C10 UNL     1      21.236  -0.314  54.761  1.00  0.00     0.069 C 
HETATM   12  C11 UNL     1      20.172  -0.653  53.782  1.00  0.00    -0.005 C 
HETATM   13  C12 UNL     1      19.013  -0.399  53.241  1.00  0.00     0.081 C 
HETATM   14  N3  UNL     1      17.870  -0.480  52.424  1.00  0.00    -0.391 N 
HETATM   15  C13 UNL     1      17.511  -1.865  52.588  1.00  0.00     0.149 C 
HETATM   16  C14 UNL     1      17.493   0.777  51.773  1.00  0.00     0.149 C 
HETATM   17  C15 UNL     1      18.532   1.172  50.767  1.00  0.00    -0.003 C 
HETATM   18  C16 UNL     1      19.646   1.018  50.083  1.00  0.00     0.052 C 
HETATM   19  C17 UNL     1      20.515   1.622  49.064  1.00  0.00     0.173 C 
HETATM   20  O1  UNL     1      21.444   0.742  48.935  1.00  0.00    -0.288 OA
HETATM   21  C18 UNL     1      19.924   2.928  48.674  1.00  0.00     0.088 C 
HETATM   22  C19 UNL     1      19.828   3.794  49.647  1.00  0.00     0.086 C 
HETATM   23  N4  UNL     1      20.432   3.439  50.731  1.00  0.00    -0.251 NA
HETATM   24  H6  UNL     1      21.981   0.227  51.573  1.00  0.00     0.159 HD
ENDROOT
BRANCH   1  25
HETATM   25  N1  UNL     1      22.240   4.623  50.796  1.00  0.00     0.039 NA
HETATM   26  C1  UNL     1      22.695   4.940  51.957  1.00  0.00     0.713 C 
ENDBRANCH   1  25
TORSDOF 1
ENDMDL
MODEL 2
REMARK VINA RESULT:      -7.6      1.428      1.728
REMARK  1 active torsions:
REMARK  status: ('A' for Active; 'I' for Inactive)
REMARK    1  A    between atoms: N1_2  and  C2_3 
ROOT
HETATM    1  C2  UNL     1      22.681   4.637  50.966  1.00  0.00     0.341 C 
HETATM    2  C3  UNL     1      23.097   3.636  52.005  1.00  0.00     0.177 C 
HETATM    3  N2  UNL     1      22.795   2.261  51.678  1.00  0.00    -0.386 N 
HETATM    4  C4  UNL     1      23.170   1.171  52.538  1.00  0.00     0.036 A 
HETATM    5  C5  UNL     1      24.549   0.972  52.369  1.00  0.00     0.048 A 
HETATM    6  C6  UNL     1      25.362   0.028  53.013  1.00  0.00     0.013 A 
HETATM    7 BR1  UNL     1      27.212  -0.171  52.726  1.00  0.00    -0.051 Br
HETATM    8  C7  UNL     1      24.665  -0.763  53.899  1.00  0.00     0.020 A 
HETATM    9  C8  UNL     1      23.320  -0.575  54.067  1.00  0.00     0.011 A 
HETATM   10  C9  UNL     1      22.528   0.359  53.427  1.00  0.00    -0.028 A 
HETATM   11  C10 UNL     1      21.111   0.255  53.845  1.00  0.00     0.069 C 
HETATM   12  C11 UNL     1      20.192   0.339  52.681  1.00  0.00    -0.005 C 
HETATM   13  C12 UNL     1      19.165   0.882  52.090  1.00  0.00     0.081 C 
HETATM   14  N3  UNL     1      18.166   1.178  51.144  1.00  0.00    -0.391 N 
HETATM   15  C13 UNL     1      17.658  -0.139  50.857  1.00  0.00     0.149 C 
HETATM   16  C14 UNL     1      18.017   2.603  50.837  1.00  0.00     0.149 C 
HETATM   17  C15 UNL     1      19.236   3.111  50.129  1.00  0.00    -0.003 C 
HETATM   18  C16 UNL     1      20.428   2.998  49.579  1.00  0.00     0.052 C 
HETATM   19  C17 UNL     1      21.502   3.731  48.895  1.00  0.00     0.173 C 
HETATM   20  O1  UNL     1      22.354   2.801  48.641  1.00  0.00    -0.288 OA
HETATM   21  C18 UNL     1      21.106   5.160  48.823  1.00  0.00     0.088 C 
HETATM   22  C19 UNL     1      20.935   5.738  49.982  1.00  0.00     0.086 C 
HETATM   23  N4  UNL     1      21.321   5.027  50.987  1.00  0.00    -0.251 NA
HETATM   24  H6  UNL     1      22.407   1.528  51.068  1.00  0.00     0.159 HD
ENDROOT
BRANCH   1  25
HETATM   25  N1  UNL     1      23.196   5.895  51.620  1.00  0.00     0.039 NA
HETATM   26  C1  UNL     1      24.249   6.428  51.108  1.00  0.00     0.713 C 
ENDBRANCH   1  25
TORSDOF 1
ENDMDL
MODEL 3
REMARK VINA RESULT:      -7.4      3.440      6.138
REMARK  1 active torsions:
REMARK  status: ('A' for Active; 'I' for Inactive)
REMARK    1  A    between atoms: N1_2  and  C2_3 
ROOT
HETATM    1  C2  UNL     1      25.581   3.005  50.971  1.00  0.00     0.341 C 
HETATM    2  C3  UNL     1      24.537   3.132  49.900  1.00  0.00     0.177 C 
HETATM    3  N2  UNL     1      23.179   3.234  50.384  1.00  0.00    -0.386 N 
HETATM    4  C4  UNL     1      22.062   3.413  49.495  1.00  0.00     0.036 A 
HETATM    5  C5  UNL     1      22.080   4.754  49.080  1.00  0.00     0.048 A 
HETATM    6  C6  UNL     1      21.192   5.387  48.198  1.00  0.00     0.013 A 
HETATM    7 BR1  UNL     1      21.290   7.198  47.692  1.00  0.00    -0.051 Br
HETATM    8  C7  UNL     1      20.216   4.541  47.722  1.00  0.00     0.020 A 
HETATM    9  C8  UNL     1      20.192   3.233  48.124  1.00  0.00     0.011 A 
HETATM   10  C9  UNL     1      21.072   2.618  48.995  1.00  0.00    -0.028 A 
HETATM   11  C10 UNL     1      20.723   1.196  49.214  1.00  0.00     0.069 C 
HETATM   12  C11 UNL     1      20.808   0.830  50.651  1.00  0.00    -0.005 C 
HETATM   13  C12 UNL     1      21.265   0.052  51.592  1.00  0.00     0.081 C 
HETATM   14  N3  UNL     1      21.522  -0.512  52.855  1.00  0.00    -0.391 N 
HETATM   15  C13 UNL     1      20.189  -0.621  53.387  1.00  0.00     0.149 C 
HETATM   16  C14 UNL     1      22.938  -0.771  53.133  1.00  0.00     0.149 C 
HETATM   17  C15 UNL     1      23.689   0.522  53.242  1.00  0.00    -0.003 C 
HETATM   18  C16 UNL     1      23.808   1.833  53.246  1.00  0.00     0.052 C 
HETATM   19  C17 UNL     1      24.759   2.946  53.384  1.00  0.00     0.173 C 
HETATM   20  O1  UNL     1      23.992   3.976  53.299  1.00  0.00    -0.288 OA
HETATM   21  C18 UNL     1      26.117   2.370  53.552  1.00  0.00     0.088 C 
HETATM   22  C19 UNL     1      26.529   1.645  52.546  1.00  0.00     0.086 C 
HETATM   23  N4  UNL     1      25.770   1.708  51.505  1.00  0.00    -0.251 NA
HETATM   24  H6  UNL     1      22.473   3.262  51.133  1.00  0.00     0.159 HD
ENDROOT
BRANCH   1  25
HETATM   25  N1  UNL     1      26.816   2.981  50.106  1.00  0.00     0.039 NA
HETATM   26  C1  UNL     1      26.969   3.958  49.282  1.00  0.00     0.713 C 
ENDBRANCH   1  25
TORSDOF 1
ENDMDL
MODEL 4
REMARK VINA RESULT:      -7.3      3.119      6.175
REMARK  1 active torsions:
REMARK  status: ('A' for Active; 'I' for Inactive)
REMARK    1  A    between atoms: N1_2  and  C2_3 
ROOT
HETATM    1  C2  UNL     1      21.177   3.304  49.675  1.00  0.00     0.341 C 
HETATM    2  C3  UNL     1      22.400   2.469  49.919  1.00  0.00     0.177 C 
HETATM    3  N2  UNL     1      23.424   3.108  50.713  1.00  0.00    -0.386 N 
HETATM    4  C4  UNL     1      24.639   2.432  51.084  1.00  0.00     0.036 A 
HETATM    5  C5  UNL     1      24.310   1.538  52.116  1.00  0.00     0.048 A 
HETATM    6  C6  UNL     1      25.168   0.653  52.784  1.00  0.00     0.013 A 
HETATM    7 BR1  UNL     1      24.642  -0.517  54.163  1.00  0.00    -0.051 Br
HETATM    8  C7  UNL     1      26.466   0.718  52.329  1.00  0.00     0.020 A 
HETATM    9  C8  UNL     1      26.793   1.588  51.324  1.00  0.00     0.011 A 
HETATM   10  C9  UNL     1      25.939   2.457  50.671  1.00  0.00    -0.028 A 
HETATM   11  C10 UNL     1      26.650   3.263  49.653  1.00  0.00     0.069 C 
HETATM   12  C11 UNL     1      26.246   4.691  49.708  1.00  0.00    -0.005 C 
HETATM   13  C12 UNL     1      25.800   5.762  49.112  1.00  0.00     0.081 C 
HETATM   14  N3  UNL     1      25.361   7.077  48.875  1.00  0.00    -0.391 N 
HETATM   15  C13 UNL     1      26.419   7.837  49.490  1.00  0.00     0.149 C 
HETATM   16  C14 UNL     1      24.099   7.178  48.137  1.00  0.00     0.149 C 
HETATM   17  C15 UNL     1      22.970   6.648  48.968  1.00  0.00    -0.003 C 
HETATM   18  C16 UNL     1      22.430   6.129  50.051  1.00  0.00     0.052 C 
HETATM   19  C17 UNL     1      21.173   5.659  50.651  1.00  0.00     0.173 C 
HETATM   20  O1  UNL     1      21.542   5.323  51.837  1.00  0.00    -0.288 OA
HETATM   21  C18 UNL     1      20.101   5.792  49.633  1.00  0.00     0.088 C 
HETATM   22  C19 UNL     1      20.288   5.085  48.550  1.00  0.00     0.086 C 
HETATM   23  N4  UNL     1      21.269   4.252  48.627  1.00  0.00    -0.251 NA
HETATM   24  H6  UNL     1      23.809   3.901  51.245  1.00  0.00     0.159 HD
ENDROOT
BRANCH   1  25
HETATM   25  N1  UNL     1      20.356   2.310  48.892  1.00  0.00     0.039 NA
HETATM   26  C1  UNL     1      19.612   1.508  49.569  1.00  0.00     0.713 C 
ENDBRANCH   1  25
TORSDOF 1
ENDMDL
MODEL 5
REMARK VINA RESULT:      -7.3      2.910      5.756
REMARK  1 active torsions:
REMARK  status: ('A' for Active; 'I' for Inactive)
REMARK    1  A    between atoms: N1_2  and  C2_3 
ROOT
HETATM    1  C2  UNL     1      19.089   2.901  51.271  1.00  0.00     0.341 C 
HETATM    2  C3  UNL     1      19.963   4.097  51.514  1.00  0.00     0.177 C 
HETATM    3  N2  UNL     1      21.309   3.980  51.001  1.00  0.00    -0.386 N 
HETATM    4  C4  UNL     1      22.263   5.053  51.102  1.00  0.00     0.036 A 
HETATM    5  C5  UNL     1      21.911   6.005  50.133  1.00  0.00     0.048 A 
HETATM    6  C6  UNL     1      22.543   7.229  49.868  1.00  0.00     0.013 A 
HETATM    7 BR1  UNL     1      22.003   8.453  48.544  1.00  0.00    -0.051 Br
HETATM    8  C7  UNL     1      23.625   7.461  50.688  1.00  0.00     0.020 A 
HETATM    9  C8  UNL     1      23.974   6.535  51.634  1.00  0.00     0.011 A 
HETATM   10  C9  UNL     1      23.344   5.332  51.887  1.00  0.00    -0.028 A 
HETATM   11  C10 UNL     1      24.014   4.579  52.971  1.00  0.00     0.069 C 
HETATM   12  C11 UNL     1      24.161   3.141  52.627  1.00  0.00    -0.005 C 
HETATM   13  C12 UNL     1      23.984   1.885  52.927  1.00  0.00     0.081 C 
HETATM   14  N3  UNL     1      23.988   0.479  52.861  1.00  0.00    -0.391 N 
HETATM   15  C13 UNL     1      25.361   0.222  52.513  1.00  0.00     0.149 C 
HETATM   16  C14 UNL     1      22.699  -0.150  53.160  1.00  0.00     0.149 C 
HETATM   17  C15 UNL     1      21.700   0.180  52.092  1.00  0.00    -0.003 C 
HETATM   18  C16 UNL     1      21.301   0.732  50.965  1.00  0.00     0.052 C 
HETATM   19  C17 UNL     1      20.151   0.920  50.069  1.00  0.00     0.173 C 
HETATM   20  O1  UNL     1      20.662   1.596  49.102  1.00  0.00    -0.288 OA
HETATM   21  C18 UNL     1      18.976   0.256  50.688  1.00  0.00     0.088 C 
HETATM   22  C19 UNL     1      18.628   0.738  51.851  1.00  0.00     0.086 C 
HETATM   23  N4  UNL     1      19.243   1.824  52.177  1.00  0.00    -0.251 NA
HETATM   24  H6  UNL     1      22.067   3.472  50.522  1.00  0.00     0.159 HD
ENDROOT
BRANCH   1  25
HETATM   25  N1  UNL     1      17.805   3.411  51.877  1.00  0.00     0.039 NA
HETATM   26  C1  UNL     1      16.975   3.988  51.081  1.00  0.00     0.713 C 
ENDBRANCH   1  25
TORSDOF 1
ENDMDL
MODEL 6
REMARK VINA RESULT:      -7.2      3.443      6.590
REMARK  1 active torsions:
REMARK  status: ('A' for Active; 'I' for Inactive)
REMARK    1  A    between atoms: N1_2  and  C2_3 
ROOT
HETATM    1  C2  UNL     1      20.039   2.892  51.280  1.00  0.00     0.341 C 
HETATM    2  C3  UNL     1      20.745   4.075  50.683  1.00  0.00     0.177 C 
HETATM    3  N2  UNL     1      21.908   3.751  49.889  1.00  0.00    -0.386 N 
HETATM    4  C4  UNL     1      22.671   4.760  49.203  1.00  0.00     0.036 A 
HETATM    5  C5  UNL     1      21.929   5.136  48.073  1.00  0.00     0.048 A 
HETATM    6  C6  UNL     1      22.266   6.100  47.112  1.00  0.00     0.013 A 
HETATM    7 BR1  UNL     1      21.207   6.545  45.620  1.00  0.00    -0.051 Br
HETATM    8  C7  UNL     1      23.475   6.708  47.365  1.00  0.00     0.020 A 
HETATM    9  C8  UNL     1      24.204   6.345  48.465  1.00  0.00     0.011 A 
HETATM   10  C9  UNL     1      23.863   5.393  49.406  1.00  0.00    -0.028 A 
HETATM   11  C10 UNL     1      24.906   5.252  50.447  1.00  0.00     0.069 C 
HETATM   12  C11 UNL     1      25.183   3.825  50.751  1.00  0.00    -0.005 C 
HETATM   13  C12 UNL     1      25.294   2.856  51.617  1.00  0.00     0.081 C 
HETATM   14  N3  UNL     1      25.504   1.586  52.185  1.00  0.00    -0.391 N 
HETATM   15  C13 UNL     1      26.759   1.217  51.584  1.00  0.00     0.149 C 
HETATM   16  C14 UNL     1      24.457   1.151  53.114  1.00  0.00     0.149 C 
HETATM   17  C15 UNL     1      23.172   0.922  52.376  1.00  0.00    -0.003 C 
HETATM   18  C16 UNL     1      22.406   0.871  51.307  1.00  0.00     0.052 C 
HETATM   19  C17 UNL     1      21.046   0.595  50.823  1.00  0.00     0.173 C 
HETATM   20  O1  UNL     1      21.169   0.743  49.552  1.00  0.00    -0.288 OA
HETATM   21  C18 UNL     1      20.197   0.283  52.001  1.00  0.00     0.088 C 
HETATM   22  C19 UNL     1      20.097   1.252  52.872  1.00  0.00     0.086 C 
HETATM   23  N4  UNL     1      20.595   2.373  52.473  1.00  0.00    -0.251 NA
HETATM   24  H6  UNL     1      22.582   3.090  49.479  1.00  0.00     0.159 HD
ENDROOT
BRANCH   1  25
HETATM   25  N1  UNL     1      18.897   3.607  51.958  1.00  0.00     0.039 NA
HETATM   26  C1  UNL     1      17.879   3.901  51.229  1.00  0.00     0.713 C 
ENDBRANCH   1  25
TORSDOF 1
ENDMDL
MODEL 7
REMARK VINA RESULT:      -7.1      8.009     11.263
REMARK  1 active torsions:
REMARK  status: ('A' for Active; 'I' for Inactive)
REMARK    1  A    between atoms: N1_2  and  C2_3 
ROOT
HETATM    1  C2  UNL     1      25.914   9.602  46.600  1.00  0.00     0.341 C 
HETATM    2  C3  UNL     1      25.881   8.129  46.887  1.00  0.00     0.177 C 
HETATM    3  N2  UNL     1      26.546   7.733  48.108  1.00  0.00    -0.386 N 
HETATM    4  C4  UNL     1      26.565   6.367  48.561  1.00  0.00     0.036 A 
HETATM    5  C5  UNL     1      25.294   6.094  49.091  1.00  0.00     0.048 A 
HETATM    6  C6  UNL     1      24.839   4.886  49.638  1.00  0.00     0.013 A 
HETATM    7 BR1  UNL     1      23.110   4.604  50.330  1.00  0.00    -0.051 Br
HETATM    8  C7  UNL     1      25.796   3.896  49.623  1.00  0.00     0.020 A 
HETATM    9  C8  UNL     1      27.037   4.157  49.108  1.00  0.00     0.011 A 
HETATM   10  C9  UNL     1      27.477   5.352  48.571  1.00  0.00    -0.028 A 
HETATM   11  C10 UNL     1      28.888   5.271  48.132  1.00  0.00     0.069 C 
HETATM   12  C11 UNL     1      29.658   6.471  48.546  1.00  0.00    -0.005 C 
HETATM   13  C12 UNL     1      30.440   7.471  48.245  1.00  0.00     0.081 C 
HETATM   14  N3  UNL     1      31.240   8.623  48.350  1.00  0.00    -0.391 N 
HETATM   15  C13 UNL     1      32.087   8.272  49.461  1.00  0.00     0.149 C 
HETATM   16  C14 UNL     1      30.946   9.664  47.361  1.00  0.00     0.149 C 
HETATM   17  C15 UNL     1      29.585  10.242  47.605  1.00  0.00    -0.003 C 
HETATM   18  C16 UNL     1      28.442  10.367  48.247  1.00  0.00     0.052 C 
HETATM   19  C17 UNL     1      27.155  11.077  48.268  1.00  0.00     0.173 C 
HETATM   20  O1  UNL     1      26.595  10.602  49.324  1.00  0.00    -0.288 OA
HETATM   21  C18 UNL     1      27.114  11.983  47.092  1.00  0.00     0.088 C 
HETATM   22  C19 UNL     1      27.191  11.379  45.936  1.00  0.00     0.086 C 
HETATM   23  N4  UNL     1      27.100  10.094  46.006  1.00  0.00    -0.251 NA
HETATM   24  H6  UNL     1      27.085   7.930  48.963  1.00  0.00     0.159 HD
ENDROOT
BRANCH   1  25
HETATM   25  N1  UNL     1      25.103   9.620  45.328  1.00  0.00     0.039 NA
HETATM   26  C1  UNL     1      24.822   8.481  44.800  1.00  0.00     0.713 C 
ENDBRANCH   1  25
TORSDOF 1
ENDMDL
MODEL 8
REMARK VINA RESULT:      -6.9      4.995      8.067
REMARK  1 active torsions:
REMARK  status: ('A' for Active; 'I' for Inactive)
REMARK    1  A    between atoms: N1_2  and  C2_3 
ROOT
HETATM    1  C2  UNL     1      22.132   5.674  47.427  1.00  0.00     0.341 C 
HETATM    2  C3  UNL     1      23.018   4.604  47.997  1.00  0.00     0.177 C 
HETATM    3  N2  UNL     1      23.930   5.054  49.024  1.00  0.00    -0.386 N 
HETATM    4  C4  UNL     1      24.813   4.150  49.713  1.00  0.00     0.036 A 
HETATM    5  C5  UNL     1      24.030   3.437  50.635  1.00  0.00     0.048 A 
HETATM    6  C6  UNL     1      24.454   2.434  51.519  1.00  0.00     0.013 A 
HETATM    7 BR1  UNL     1      23.332   1.524  52.727  1.00  0.00    -0.051 Br
HETATM    8  C7  UNL     1      25.801   2.168  51.421  1.00  0.00     0.020 A 
HETATM    9  C8  UNL     1      26.569   2.861  50.525  1.00  0.00     0.011 A 
HETATM   10  C9  UNL     1      26.142   3.849  49.658  1.00  0.00    -0.028 A 
HETATM   11  C10 UNL     1      27.259   4.391  48.851  1.00  0.00     0.069 C 
HETATM   12  C11 UNL     1      27.207   5.873  48.776  1.00  0.00    -0.005 C 
HETATM   13  C12 UNL     1      27.197   6.968  48.068  1.00  0.00     0.081 C 
HETATM   14  N3  UNL     1      27.160   8.327  47.704  1.00  0.00    -0.391 N 
HETATM   15  C13 UNL     1      28.177   8.872  48.565  1.00  0.00     0.149 C 
HETATM   16  C14 UNL     1      26.187   8.653  46.657  1.00  0.00     0.149 C 
HETATM   17  C15 UNL     1      24.791   8.460  47.168  1.00  0.00    -0.003 C 
HETATM   18  C16 UNL     1      23.887   8.161  48.078  1.00  0.00     0.052 C 
HETATM   19  C17 UNL     1      22.445   8.036  48.333  1.00  0.00     0.173 C 
HETATM   20  O1  UNL     1      22.411   7.718  49.578  1.00  0.00    -0.288 OA
HETATM   21  C18 UNL     1      21.729   8.330  47.065  1.00  0.00     0.088 C 
HETATM   22  C19 UNL     1      22.009   7.518  46.081  1.00  0.00     0.086 C 
HETATM   23  N4  UNL     1      22.710   6.492  46.427  1.00  0.00    -0.251 NA
HETATM   24  H6  UNL     1      24.346   5.777  49.627  1.00  0.00     0.159 HD
ENDROOT
BRANCH   1  25
HETATM   25  N1  UNL     1      21.323   4.835  46.470  1.00  0.00     0.039 NA
HETATM   26  C1  UNL     1      21.827   3.705  46.116  1.00  0.00     0.713 C 
ENDBRANCH   1  25
TORSDOF 1
ENDMDL
MODEL 9
REMARK VINA RESULT:      -6.9     13.254     15.581
REMARK  1 active torsions:
REMARK  status: ('A' for Active; 'I' for Inactive)
REMARK    1  A    between atoms: N1_2  and  C2_3 
ROOT
HETATM    1  C2  UNL     1      34.020   5.626  48.214  1.00  0.00     0.341 C 
HETATM    2  C3  UNL     1      33.976   7.097  47.917  1.00  0.00     0.177 C 
HETATM    3  N2  UNL     1      32.970   7.494  46.958  1.00  0.00    -0.386 N 
HETATM    4  C4  UNL     1      32.757   8.871  46.598  1.00  0.00     0.036 A 
HETATM    5  C5  UNL     1      32.067   9.470  47.663  1.00  0.00     0.048 A 
HETATM    6  C6  UNL     1      31.655  10.806  47.769  1.00  0.00     0.013 A 
HETATM    7 BR1  UNL     1      30.730  11.531  49.241  1.00  0.00    -0.051 Br
HETATM    8  C7  UNL     1      31.997  11.562  46.670  1.00  0.00     0.020 A 
HETATM    9  C8  UNL     1      32.669  10.982  45.628  1.00  0.00     0.011 A 
HETATM   10  C9  UNL     1      33.071   9.663  45.533  1.00  0.00    -0.028 A 
HETATM   11  C10 UNL     1      33.755   9.390  44.248  1.00  0.00     0.069 C 
HETATM   12  C11 UNL     1      33.289   8.115  43.644  1.00  0.00    -0.005 C 
HETATM   13  C12 UNL     1      33.553   6.944  43.136  1.00  0.00     0.081 C 
HETATM   14  N3  UNL     1      33.401   5.671  42.556  1.00  0.00    -0.391 N 
HETATM   15  C13 UNL     1      32.526   5.972  41.453  1.00  0.00     0.149 C 
HETATM   16  C14 UNL     1      34.141   4.600  43.229  1.00  0.00     0.149 C 
HETATM   17  C15 UNL     1      33.574   4.357  44.596  1.00  0.00    -0.003 C 
HETATM   18  C16 UNL     1      32.732   4.558  45.588  1.00  0.00     0.052 C 
HETATM   19  C17 UNL     1      32.373   4.144  46.952  1.00  0.00     0.173 C 
HETATM   20  O1  UNL     1      31.328   4.855  47.191  1.00  0.00    -0.288 OA
HETATM   21  C18 UNL     1      33.360   3.127  47.396  1.00  0.00     0.088 C 
HETATM   22  C19 UNL     1      34.595   3.551  47.445  1.00  0.00     0.086 C 
HETATM   23  N4  UNL     1      34.722   4.824  47.282  1.00  0.00    -0.251 NA
HETATM   24  H6  UNL     1      32.201   7.297  46.303  1.00  0.00     0.159 HD
ENDROOT
BRANCH   1  25
HETATM   25  N1  UNL     1      35.112   5.620  49.254  1.00  0.00     0.039 NA
HETATM   26  C1  UNL     1      36.109   6.410  49.057  1.00  0.00     0.713 C 
ENDBRANCH   1  25
TORSDOF 1
ENDMDL
