MODEL 1
REMARK VINA RESULT:      -8.3      0.000      0.000
REMARK  7 active torsions:
REMARK  status: ('A' for Active; 'I' for Inactive)
REMARK    1  A    between atoms: S1_2  and  N1_4 
REMARK    2  A    between atoms: N1_4  and  C2_5 
REMARK    3  A    between atoms: C9_14  and  C10_15 
REMARK    4  A    between atoms: C10_15  and  N4_16 
REMARK    5  A    between atoms: N4_16  and  C11_17 
REMARK    6  A    between atoms: C14_20  and  C15_21 
REMARK    7  A    between atoms: C15_21  and  O3_23 
ROOT
HETATM    1  C2  UNL     1      25.675   0.033  52.786  1.00  0.00     0.162 A 
HETATM    2  N2  UNL     1      24.838  -0.684  53.534  1.00  0.00    -0.226 NA
HETATM    3  C3  UNL     1      23.526  -0.363  53.683  1.00  0.00     0.088 A 
HETATM    4  C4  UNL     1      22.681  -1.112  54.467  1.00  0.00     0.034 A 
HETATM    5  C5  UNL     1      21.343  -0.826  54.661  1.00  0.00     0.002 A 
HETATM    6  C6  UNL     1      20.833   0.282  54.025  1.00  0.00     0.002 A 
HETATM    7  C7  UNL     1      21.659   1.061  53.225  1.00  0.00     0.034 A 
HETATM    8  C8  UNL     1      23.003   0.744  53.050  1.00  0.00     0.086 A 
HETATM    9  N3  UNL     1      23.852   1.477  52.285  1.00  0.00    -0.246 NA
HETATM   10  C9  UNL     1      25.156   1.160  52.136  1.00  0.00     0.099 A 
ENDROOT
BRANCH  10  11
HETATM   11  C10 UNL     1      26.054   2.044  51.302  1.00  0.00     0.183 C 
BRANCH  11  12
HETATM   12  N4  UNL     1      25.185   2.878  50.496  1.00  0.00    -0.384 N 
HETATM   13  H11 UNL     1      24.163   2.739  50.335  1.00  0.00     0.160 HD
BRANCH  12  14
HETATM   14  C11 UNL     1      25.852   3.987  49.877  1.00  0.00     0.028 A 
HETATM   15  C12 UNL     1      27.020   3.928  49.185  1.00  0.00     0.030 A 
HETATM   16  C13 UNL     1      27.687   4.988  48.615  1.00  0.00     0.020 A 
HETATM   17  C14 UNL     1      27.113   6.245  48.762  1.00  0.00     0.037 A 
HETATM   18  C16 UNL     1      25.922   6.345  49.461  1.00  0.00     0.020 A 
HETATM   19  C17 UNL     1      25.275   5.256  50.022  1.00  0.00     0.030 A 
BRANCH  17  20
HETATM   20  C15 UNL     1      27.757   7.418  48.194  1.00  0.00     0.176 C 
HETATM   21  O2  UNL     1      27.489   7.838  47.030  1.00  0.00    -0.646 OA
BRANCH  20  22
HETATM   22  O3  UNL     1      28.708   8.121  48.932  1.00  0.00    -0.773 OA
HETATM   23  H14 UNL     1      28.574   9.139  49.005  1.00  0.00     0.167 HD
ENDBRANCH  20  22
ENDBRANCH  17  20
ENDBRANCH  12  14
ENDBRANCH  11  12
ENDBRANCH  10  11
BRANCH   1  24
HETATM   24  N1  UNL     1      27.063  -0.210  52.597  1.00  0.00    -0.289 N 
HETATM   25  H4  UNL     1      27.355  -0.568  51.663  1.00  0.00     0.178 HD
BRANCH  24  26
HETATM   26  S1  UNL     1      28.247   0.068  53.841  1.00  0.00     0.111 S 
HETATM   27  C1  UNL     1      29.815  -0.712  53.463  1.00  0.00     0.152 C 
HETATM   28  O1  UNL     1      27.720  -0.287  55.215  1.00  0.00    -0.236 OA
ENDBRANCH  24  26
ENDBRANCH   1  24
TORSDOF 7
ENDMDL
MODEL 2
REMARK VINA RESULT:      -8.2      4.593      6.691
REMARK  7 active torsions:
REMARK  status: ('A' for Active; 'I' for Inactive)
REMARK    1  A    between atoms: S1_2  and  N1_4 
REMARK    2  A    between atoms: N1_4  and  C2_5 
REMARK    3  A    between atoms: C9_14  and  C10_15 
REMARK    4  A    between atoms: C10_15  and  N4_16 
REMARK    5  A    between atoms: N4_16  and  C11_17 
REMARK    6  A    between atoms: C14_20  and  C15_21 
REMARK    7  A    between atoms: C15_21  and  O3_23 
ROOT
HETATM    1  C2  UNL     1      22.865   1.118  52.287  1.00  0.00     0.162 A 
HETATM    2  N2  UNL     1      22.056   0.856  51.262  1.00  0.00    -0.226 NA
HETATM    3  C3  UNL     1      22.135   1.515  50.076  1.00  0.00     0.088 A 
HETATM    4  C4  UNL     1      21.285   1.235  49.033  1.00  0.00     0.034 A 
HETATM    5  C5  UNL     1      21.315   1.879  47.811  1.00  0.00     0.002 A 
HETATM    6  C6  UNL     1      22.261   2.864  47.637  1.00  0.00     0.002 A 
HETATM    7  C7  UNL     1      23.136   3.171  48.670  1.00  0.00     0.034 A 
HETATM    8  C8  UNL     1      23.079   2.501  49.889  1.00  0.00     0.086 A 
HETATM    9  N3  UNL     1      23.908   2.771  50.931  1.00  0.00    -0.246 NA
HETATM   10  C9  UNL     1      23.830   2.118  52.110  1.00  0.00     0.099 A 
ENDROOT
BRANCH  10  11
HETATM   11  C10 UNL     1      24.757   2.496  53.241  1.00  0.00     0.183 C 
BRANCH  11  12
HETATM   12  N4  UNL     1      26.091   2.572  52.679  1.00  0.00    -0.384 N 
HETATM   13  H11 UNL     1      26.513   3.390  52.187  1.00  0.00     0.160 HD
BRANCH  12  14
HETATM   14  C11 UNL     1      26.858   1.370  52.838  1.00  0.00     0.028 A 
HETATM   15  C12 UNL     1      26.449   0.115  52.517  1.00  0.00     0.030 A 
HETATM   16  C13 UNL     1      27.162  -1.048  52.694  1.00  0.00     0.020 A 
HETATM   17  C14 UNL     1      28.425  -0.932  53.261  1.00  0.00     0.037 A 
HETATM   18  C16 UNL     1      28.877   0.332  53.601  1.00  0.00     0.020 A 
HETATM   19  C17 UNL     1      28.134   1.485  53.407  1.00  0.00     0.030 A 
BRANCH  17  20
HETATM   20  C15 UNL     1      29.242  -2.113  53.487  1.00  0.00     0.176 C 
HETATM   21  O2  UNL     1      30.457  -2.036  53.834  1.00  0.00    -0.646 OA
BRANCH  20  22
HETATM   22  O3  UNL     1      28.695  -3.384  53.319  1.00  0.00    -0.773 OA
HETATM   23  H14 UNL     1      29.238  -4.173  53.697  1.00  0.00     0.167 HD
ENDBRANCH  20  22
ENDBRANCH  17  20
ENDBRANCH  12  14
ENDBRANCH  11  12
ENDBRANCH  10  11
BRANCH   1  24
HETATM   24  N1  UNL     1      22.836   0.502  53.569  1.00  0.00    -0.289 N 
HETATM   25  H4  UNL     1      23.432   0.927  54.310  1.00  0.00     0.178 HD
BRANCH  24  26
HETATM   26  S1  UNL     1      21.858  -0.894  53.921  1.00  0.00     0.111 S 
HETATM   27  C1  UNL     1      20.107  -0.529  53.829  1.00  0.00     0.152 C 
HETATM   28  O1  UNL     1      22.263  -1.554  55.222  1.00  0.00    -0.236 OA
ENDBRANCH  24  26
ENDBRANCH   1  24
TORSDOF 7
ENDMDL
MODEL 3
REMARK VINA RESULT:      -8.0      3.617      8.258
REMARK  7 active torsions:
REMARK  status: ('A' for Active; 'I' for Inactive)
REMARK    1  A    between atoms: S1_2  and  N1_4 
REMARK    2  A    between atoms: N1_4  and  C2_5 
REMARK    3  A    between atoms: C9_14  and  C10_15 
REMARK    4  A    between atoms: C10_15  and  N4_16 
REMARK    5  A    between atoms: N4_16  and  C11_17 
REMARK    6  A    between atoms: C14_20  and  C15_21 
REMARK    7  A    between atoms: C15_21  and  O3_23 
ROOT
HETATM    1  C2  UNL     1      24.344   4.736  49.600  1.00  0.00     0.162 A 
HETATM    2  N2  UNL     1      24.719   5.817  48.917  1.00  0.00    -0.226 NA
HETATM    3  C3  UNL     1      26.006   6.043  48.548  1.00  0.00     0.088 A 
HETATM    4  C4  UNL     1      26.373   7.170  47.850  1.00  0.00     0.034 A 
HETATM    5  C5  UNL     1      27.667   7.454  47.459  1.00  0.00     0.002 A 
HETATM    6  C6  UNL     1      28.645   6.547  47.795  1.00  0.00     0.002 A 
HETATM    7  C7  UNL     1      28.309   5.398  48.499  1.00  0.00     0.034 A 
HETATM    8  C8  UNL     1      26.994   5.141  48.877  1.00  0.00     0.086 A 
HETATM    9  N3  UNL     1      26.617   4.037  49.573  1.00  0.00    -0.246 NA
HETATM   10  C9  UNL     1      25.338   3.811  49.940  1.00  0.00     0.099 A 
ENDROOT
BRANCH  10  11
HETATM   11  C10 UNL     1      24.995   2.581  50.749  1.00  0.00     0.183 C 
BRANCH  11  12
HETATM   12  N4  UNL     1      25.719   2.689  51.999  1.00  0.00    -0.384 N 
HETATM   13  H11 UNL     1      25.701   3.497  52.660  1.00  0.00     0.160 HD
BRANCH  12  14
HETATM   14  C11 UNL     1      26.529   1.546  52.304  1.00  0.00     0.028 A 
HETATM   15  C12 UNL     1      26.224   0.253  52.018  1.00  0.00     0.030 A 
HETATM   16  C13 UNL     1      26.978  -0.854  52.334  1.00  0.00     0.020 A 
HETATM   17  C14 UNL     1      28.168  -0.632  53.015  1.00  0.00     0.037 A 
HETATM   18  C16 UNL     1      28.513   0.672  53.324  1.00  0.00     0.020 A 
HETATM   19  C17 UNL     1      27.732   1.767  52.990  1.00  0.00     0.030 A 
BRANCH  17  20
HETATM   20  C15 UNL     1      29.020  -1.748  53.391  1.00  0.00     0.176 C 
HETATM   21  O2  UNL     1      30.171  -1.580  53.891  1.00  0.00    -0.646 OA
BRANCH  20  22
HETATM   22  O3  UNL     1      28.582  -3.058  53.202  1.00  0.00    -0.773 OA
HETATM   23  H14 UNL     1      27.835  -3.389  53.827  1.00  0.00     0.167 HD
ENDBRANCH  20  22
ENDBRANCH  17  20
ENDBRANCH  12  14
ENDBRANCH  11  12
ENDBRANCH  10  11
BRANCH   1  24
HETATM   24  N1  UNL     1      23.030   4.432  50.051  1.00  0.00    -0.289 N 
HETATM   25  H4  UNL     1      22.472   3.773  49.468  1.00  0.00     0.178 HD
BRANCH  24  26
HETATM   26  S1  UNL     1      22.353   5.106  51.506  1.00  0.00     0.111 S 
HETATM   27  C1  UNL     1      21.267   3.950  52.340  1.00  0.00     0.152 C 
HETATM   28  O1  UNL     1      21.712   6.455  51.261  1.00  0.00    -0.236 OA
ENDBRANCH  24  26
ENDBRANCH   1  24
TORSDOF 7
ENDMDL
MODEL 4
REMARK VINA RESULT:      -7.9      3.390      8.793
REMARK  7 active torsions:
REMARK  status: ('A' for Active; 'I' for Inactive)
REMARK    1  A    between atoms: S1_2  and  N1_4 
REMARK    2  A    between atoms: N1_4  and  C2_5 
REMARK    3  A    between atoms: C9_14  and  C10_15 
REMARK    4  A    between atoms: C10_15  and  N4_16 
REMARK    5  A    between atoms: N4_16  and  C11_17 
REMARK    6  A    between atoms: C14_20  and  C15_21 
REMARK    7  A    between atoms: C15_21  and  O3_23 
ROOT
HETATM    1  C2  UNL     1      23.989   5.012  49.263  1.00  0.00     0.162 A 
HETATM    2  N2  UNL     1      24.653   6.060  48.776  1.00  0.00    -0.226 NA
HETATM    3  C3  UNL     1      25.994   6.044  48.563  1.00  0.00     0.088 A 
HETATM    4  C4  UNL     1      26.662   7.139  48.066  1.00  0.00     0.034 A 
HETATM    5  C5  UNL     1      28.024   7.181  47.838  1.00  0.00     0.002 A 
HETATM    6  C6  UNL     1      28.751   6.050  48.131  1.00  0.00     0.002 A 
HETATM    7  C7  UNL     1      28.107   4.926  48.633  1.00  0.00     0.034 A 
HETATM    8  C8  UNL     1      26.733   4.917  48.849  1.00  0.00     0.086 A 
HETATM    9  N3  UNL     1      26.060   3.846  49.345  1.00  0.00    -0.246 NA
HETATM   10  C9  UNL     1      24.727   3.860  49.559  1.00  0.00     0.099 A 
ENDROOT
BRANCH  10  11
HETATM   11  C10 UNL     1      24.049   2.646  50.151  1.00  0.00     0.183 C 
BRANCH  11  12
HETATM   12  N4  UNL     1      24.879   2.200  51.252  1.00  0.00    -0.384 N 
HETATM   13  H11 UNL     1      25.873   2.466  51.429  1.00  0.00     0.160 HD
BRANCH  12  14
HETATM   14  C11 UNL     1      24.218   1.299  52.151  1.00  0.00     0.028 A 
HETATM   15  C12 UNL     1      22.881   1.241  52.382  1.00  0.00     0.030 A 
HETATM   16  C13 UNL     1      22.238   0.405  53.266  1.00  0.00     0.020 A 
HETATM   17  C14 UNL     1      23.035  -0.467  53.998  1.00  0.00     0.037 A 
HETATM   18  C16 UNL     1      24.403  -0.438  53.791  1.00  0.00     0.020 A 
HETATM   19  C17 UNL     1      25.019   0.417  52.890  1.00  0.00     0.030 A 
BRANCH  17  20
HETATM   20  C15 UNL     1      22.435  -1.380  54.958  1.00  0.00     0.176 C 
HETATM   21  O2  UNL     1      21.225  -1.742  54.879  1.00  0.00    -0.646 OA
BRANCH  20  22
HETATM   22  O3  UNL     1      23.195  -1.886  56.011  1.00  0.00    -0.773 OA
HETATM   23  H14 UNL     1      22.757  -1.873  56.943  1.00  0.00     0.167 HD
ENDBRANCH  20  22
ENDBRANCH  17  20
ENDBRANCH  12  14
ENDBRANCH  11  12
ENDBRANCH  10  11
BRANCH   1  24
HETATM   24  N1  UNL     1      22.596   4.949  49.546  1.00  0.00    -0.289 N 
HETATM   25  H4  UNL     1      21.990   4.497  48.828  1.00  0.00     0.178 HD
BRANCH  24  26
HETATM   26  S1  UNL     1      21.901   5.581  51.011  1.00  0.00     0.111 S 
HETATM   27  C1  UNL     1      21.507   7.323  50.871  1.00  0.00     0.152 C 
HETATM   28  O1  UNL     1      22.746   5.256  52.224  1.00  0.00    -0.236 OA
ENDBRANCH  24  26
ENDBRANCH   1  24
TORSDOF 7
ENDMDL
MODEL 5
REMARK VINA RESULT:      -7.9      3.882      8.425
REMARK  7 active torsions:
REMARK  status: ('A' for Active; 'I' for Inactive)
REMARK    1  A    between atoms: S1_2  and  N1_4 
REMARK    2  A    between atoms: N1_4  and  C2_5 
REMARK    3  A    between atoms: C9_14  and  C10_15 
REMARK    4  A    between atoms: C10_15  and  N4_16 
REMARK    5  A    between atoms: N4_16  and  C11_17 
REMARK    6  A    between atoms: C14_20  and  C15_21 
REMARK    7  A    between atoms: C15_21  and  O3_23 
ROOT
HETATM    1  C2  UNL     1      25.783   2.049  52.803  1.00  0.00     0.162 A 
HETATM    2  N2  UNL     1      27.083   2.049  53.098  1.00  0.00    -0.226 NA
HETATM    3  C3  UNL     1      27.816   0.909  53.184  1.00  0.00     0.088 A 
HETATM    4  C4  UNL     1      29.155   0.931  53.498  1.00  0.00     0.034 A 
HETATM    5  C5  UNL     1      29.946  -0.197  53.607  1.00  0.00     0.002 A 
HETATM    6  C6  UNL     1      29.346  -1.416  53.388  1.00  0.00     0.002 A 
HETATM    7  C7  UNL     1      27.995  -1.473  53.068  1.00  0.00     0.034 A 
HETATM    8  C8  UNL     1      27.228  -0.317  52.965  1.00  0.00     0.086 A 
HETATM    9  N3  UNL     1      25.904  -0.322  52.663  1.00  0.00    -0.246 NA
HETATM   10  C9  UNL     1      25.173   0.810  52.578  1.00  0.00     0.099 A 
ENDROOT
BRANCH  10  11
HETATM   11  C10 UNL     1      23.694   0.728  52.277  1.00  0.00     0.183 C 
BRANCH  11  12
HETATM   12  N4  UNL     1      23.014   0.630  53.553  1.00  0.00    -0.384 N 
HETATM   13  H11 UNL     1      23.391   0.920  54.482  1.00  0.00     0.160 HD
BRANCH  12  14
HETATM   14  C11 UNL     1      21.699   0.064  53.470  1.00  0.00     0.028 A 
HETATM   15  C12 UNL     1      20.652   0.579  52.774  1.00  0.00     0.030 A 
HETATM   16  C13 UNL     1      19.377   0.063  52.713  1.00  0.00     0.020 A 
HETATM   17  C14 UNL     1      19.133  -1.097  53.437  1.00  0.00     0.037 A 
HETATM   18  C16 UNL     1      20.176  -1.652  54.160  1.00  0.00     0.020 A 
HETATM   19  C17 UNL     1      21.450  -1.108  54.198  1.00  0.00     0.030 A 
BRANCH  17  20
HETATM   20  C15 UNL     1      17.812  -1.704  53.431  1.00  0.00     0.176 C 
HETATM   21  O2  UNL     1      17.645  -2.957  53.380  1.00  0.00    -0.646 OA
BRANCH  20  22
HETATM   22  O3  UNL     1      16.673  -0.901  53.478  1.00  0.00    -0.773 OA
HETATM   23  H14 UNL     1      16.701  -0.030  52.931  1.00  0.00     0.167 HD
ENDBRANCH  20  22
ENDBRANCH  17  20
ENDBRANCH  12  14
ENDBRANCH  11  12
ENDBRANCH  10  11
BRANCH   1  24
HETATM   24  N1  UNL     1      24.933   3.186  52.721  1.00  0.00    -0.289 N 
HETATM   25  H4  UNL     1      24.538   3.545  53.616  1.00  0.00     0.178 HD
BRANCH  24  26
HETATM   26  S1  UNL     1      24.552   3.972  51.215  1.00  0.00     0.111 S 
HETATM   27  C1  UNL     1      22.785   4.126  50.966  1.00  0.00     0.152 C 
HETATM   28  O1  UNL     1      25.266   3.329  50.045  1.00  0.00    -0.236 OA
ENDBRANCH  24  26
ENDBRANCH   1  24
TORSDOF 7
ENDMDL
MODEL 6
REMARK VINA RESULT:      -7.8      3.622      5.684
REMARK  7 active torsions:
REMARK  status: ('A' for Active; 'I' for Inactive)
REMARK    1  A    between atoms: S1_2  and  N1_4 
REMARK    2  A    between atoms: N1_4  and  C2_5 
REMARK    3  A    between atoms: C9_14  and  C10_15 
REMARK    4  A    between atoms: C10_15  and  N4_16 
REMARK    5  A    between atoms: N4_16  and  C11_17 
REMARK    6  A    between atoms: C14_20  and  C15_21 
REMARK    7  A    between atoms: C15_21  and  O3_23 
ROOT
HETATM    1  C2  UNL     1      25.027   0.215  53.190  1.00  0.00     0.162 A 
HETATM    2  N2  UNL     1      25.923  -0.771  53.168  1.00  0.00    -0.226 NA
HETATM    3  C3  UNL     1      27.258  -0.554  53.293  1.00  0.00     0.088 A 
HETATM    4  C4  UNL     1      28.166  -1.586  53.260  1.00  0.00     0.034 A 
HETATM    5  C5  UNL     1      29.533  -1.422  53.373  1.00  0.00     0.002 A 
HETATM    6  C6  UNL     1      30.007  -0.140  53.527  1.00  0.00     0.002 A 
HETATM    7  C7  UNL     1      29.117   0.926  53.566  1.00  0.00     0.034 A 
HETATM    8  C8  UNL     1      27.744   0.725  53.451  1.00  0.00     0.086 A 
HETATM    9  N3  UNL     1      26.836   1.734  53.475  1.00  0.00    -0.246 NA
HETATM   10  C9  UNL     1      25.508   1.521  53.350  1.00  0.00     0.099 A 
ENDROOT
BRANCH  10  11
HETATM   11  C10 UNL     1      24.556   2.694  53.345  1.00  0.00     0.183 C 
BRANCH  11  12
HETATM   12  N4  UNL     1      24.851   3.465  52.154  1.00  0.00    -0.384 N 
HETATM   13  H11 UNL     1      25.641   4.135  52.027  1.00  0.00     0.160 HD
BRANCH  12  14
HETATM   14  C11 UNL     1      23.926   3.251  51.079  1.00  0.00     0.028 A 
HETATM   15  C12 UNL     1      24.237   3.212  49.756  1.00  0.00     0.030 A 
HETATM   16  C13 UNL     1      23.356   3.041  48.714  1.00  0.00     0.020 A 
HETATM   17  C14 UNL     1      22.013   2.897  49.042  1.00  0.00     0.037 A 
HETATM   18  C16 UNL     1      21.657   2.932  50.379  1.00  0.00     0.020 A 
HETATM   19  C17 UNL     1      22.571   3.104  51.406  1.00  0.00     0.030 A 
BRANCH  17  20
HETATM   20  C15 UNL     1      21.016   2.717  47.999  1.00  0.00     0.176 C 
HETATM   21  O2  UNL     1      21.125   3.262  46.861  1.00  0.00    -0.646 OA
BRANCH  20  22
HETATM   22  O3  UNL     1      19.892   1.929  48.234  1.00  0.00    -0.773 OA
HETATM   23  H14 UNL     1      18.985   2.415  48.259  1.00  0.00     0.167 HD
ENDBRANCH  20  22
ENDBRANCH  17  20
ENDBRANCH  12  14
ENDBRANCH  11  12
ENDBRANCH  10  11
BRANCH   1  24
HETATM   24  N1  UNL     1      23.619   0.085  53.038  1.00  0.00    -0.289 N 
HETATM   25  H4  UNL     1      23.187   0.569  52.223  1.00  0.00     0.178 HD
BRANCH  24  26
HETATM   26  S1  UNL     1      22.633  -0.835  54.138  1.00  0.00     0.111 S 
HETATM   27  C1  UNL     1      21.131   0.035  54.582  1.00  0.00     0.152 C 
HETATM   28  O1  UNL     1      23.421  -1.316  55.338  1.00  0.00    -0.236 OA
ENDBRANCH  24  26
ENDBRANCH   1  24
TORSDOF 7
ENDMDL
MODEL 7
REMARK VINA RESULT:      -7.6      3.185      8.906
REMARK  7 active torsions:
REMARK  status: ('A' for Active; 'I' for Inactive)
REMARK    1  A    between atoms: S1_2  and  N1_4 
REMARK    2  A    between atoms: N1_4  and  C2_5 
REMARK    3  A    between atoms: C9_14  and  C10_15 
REMARK    4  A    between atoms: C10_15  and  N4_16 
REMARK    5  A    between atoms: N4_16  and  C11_17 
REMARK    6  A    between atoms: C14_20  and  C15_21 
REMARK    7  A    between atoms: C15_21  and  O3_23 
ROOT
HETATM    1  C2  UNL     1      25.934   5.930  48.857  1.00  0.00     0.162 A 
HETATM    2  N2  UNL     1      26.603   6.910  48.252  1.00  0.00    -0.226 NA
HETATM    3  C3  UNL     1      27.919   6.810  47.929  1.00  0.00     0.088 A 
HETATM    4  C4  UNL     1      28.594   7.837  47.311  1.00  0.00     0.034 A 
HETATM    5  C5  UNL     1      29.932   7.792  46.968  1.00  0.00     0.002 A 
HETATM    6  C6  UNL     1      30.625   6.642  47.269  1.00  0.00     0.002 A 
HETATM    7  C7  UNL     1      29.973   5.585  47.891  1.00  0.00     0.034 A 
HETATM    8  C8  UNL     1      28.623   5.663  48.222  1.00  0.00     0.086 A 
HETATM    9  N3  UNL     1      27.945   4.660  48.837  1.00  0.00    -0.246 NA
HETATM   10  C9  UNL     1      26.638   4.758  49.161  1.00  0.00     0.099 A 
ENDROOT
BRANCH  10  11
HETATM   11  C10 UNL     1      25.954   3.619  49.881  1.00  0.00     0.183 C 
BRANCH  11  12
HETATM   12  N4  UNL     1      26.827   3.232  50.971  1.00  0.00    -0.384 N 
HETATM   13  H11 UNL     1      27.785   3.602  51.163  1.00  0.00     0.160 HD
BRANCH  12  14
HETATM   14  C11 UNL     1      26.271   2.232  51.836  1.00  0.00     0.028 A 
HETATM   15  C12 UNL     1      26.879   1.077  52.212  1.00  0.00     0.030 A 
HETATM   16  C13 UNL     1      26.344   0.094  53.014  1.00  0.00     0.020 A 
HETATM   17  C14 UNL     1      25.053   0.300  53.484  1.00  0.00     0.037 A 
HETATM   18  C16 UNL     1      24.401   1.466  53.122  1.00  0.00     0.020 A 
HETATM   19  C17 UNL     1      24.970   2.438  52.314  1.00  0.00     0.030 A 
BRANCH  17  20
HETATM   20  C15 UNL     1      24.413  -0.692  54.332  1.00  0.00     0.176 C 
HETATM   21  O2  UNL     1      25.041  -1.309  55.242  1.00  0.00    -0.646 OA
BRANCH  20  22
HETATM   22  O3  UNL     1      23.064  -0.997  54.157  1.00  0.00    -0.773 OA
HETATM   23  H14 UNL     1      22.573  -0.498  53.402  1.00  0.00     0.167 HD
ENDBRANCH  20  22
ENDBRANCH  17  20
ENDBRANCH  12  14
ENDBRANCH  11  12
ENDBRANCH  10  11
BRANCH   1  24
HETATM   24  N1  UNL     1      24.569   5.958  49.258  1.00  0.00    -0.289 N 
HETATM   25  H4  UNL     1      23.869   5.604  48.572  1.00  0.00     0.178 HD
BRANCH  24  26
HETATM   26  S1  UNL     1      24.056   6.545  50.814  1.00  0.00     0.111 S 
HETATM   27  C1  UNL     1      22.882   5.439  51.595  1.00  0.00     0.152 C 
HETATM   28  O1  UNL     1      23.572   7.978  50.748  1.00  0.00    -0.236 OA
ENDBRANCH  24  26
ENDBRANCH   1  24
TORSDOF 7
ENDMDL
MODEL 8
REMARK VINA RESULT:      -7.5      4.459      7.543
REMARK  7 active torsions:
REMARK  status: ('A' for Active; 'I' for Inactive)
REMARK    1  A    between atoms: S1_2  and  N1_4 
REMARK    2  A    between atoms: N1_4  and  C2_5 
REMARK    3  A    between atoms: C9_14  and  C10_15 
REMARK    4  A    between atoms: C10_15  and  N4_16 
REMARK    5  A    between atoms: N4_16  and  C11_17 
REMARK    6  A    between atoms: C14_20  and  C15_21 
REMARK    7  A    between atoms: C15_21  and  O3_23 
ROOT
HETATM    1  C2  UNL     1      25.519   2.130  53.394  1.00  0.00     0.162 A 
HETATM    2  N2  UNL     1      26.844   2.170  53.528  1.00  0.00    -0.226 NA
HETATM    3  C3  UNL     1      27.623   1.060  53.461  1.00  0.00     0.088 A 
HETATM    4  C4  UNL     1      28.989   1.121  53.611  1.00  0.00     0.034 A 
HETATM    5  C5  UNL     1      29.827   0.024  53.561  1.00  0.00     0.002 A 
HETATM    6  C6  UNL     1      29.248  -1.206  53.350  1.00  0.00     0.002 A 
HETATM    7  C7  UNL     1      27.872  -1.304  53.194  1.00  0.00     0.034 A 
HETATM    8  C8  UNL     1      27.056  -0.178  53.248  1.00  0.00     0.086 A 
HETATM    9  N3  UNL     1      25.706  -0.224  53.109  1.00  0.00    -0.246 NA
HETATM   10  C9  UNL     1      24.930   0.879  53.176  1.00  0.00     0.099 A 
ENDROOT
BRANCH  10  11
HETATM   11  C10 UNL     1      23.429   0.750  53.052  1.00  0.00     0.183 C 
BRANCH  11  12
HETATM   12  N4  UNL     1      23.128   0.722  51.635  1.00  0.00    -0.384 N 
HETATM   13  H11 UNL     1      23.819   0.725  50.853  1.00  0.00     0.160 HD
BRANCH  12  14
HETATM   14  C11 UNL     1      21.726   0.697  51.338  1.00  0.00     0.028 A 
HETATM   15  C12 UNL     1      20.749   0.198  52.141  1.00  0.00     0.030 A 
HETATM   16  C13 UNL     1      19.405   0.138  51.854  1.00  0.00     0.020 A 
HETATM   17  C14 UNL     1      19.002   0.634  50.620  1.00  0.00     0.037 A 
HETATM   18  C16 UNL     1      19.968   1.150  49.774  1.00  0.00     0.020 A 
HETATM   19  C17 UNL     1      21.316   1.198  50.095  1.00  0.00     0.030 A 
BRANCH  17  20
HETATM   20  C15 UNL     1      17.601   0.602  50.237  1.00  0.00     0.176 C 
HETATM   21  O2  UNL     1      16.694   0.212  51.029  1.00  0.00    -0.646 OA
BRANCH  20  22
HETATM   22  O3  UNL     1      17.215   1.005  48.959  1.00  0.00    -0.773 OA
HETATM   23  H14 UNL     1      16.485   0.443  48.500  1.00  0.00     0.167 HD
ENDBRANCH  20  22
ENDBRANCH  17  20
ENDBRANCH  12  14
ENDBRANCH  11  12
ENDBRANCH  10  11
BRANCH   1  24
HETATM   24  N1  UNL     1      24.626   3.233  53.478  1.00  0.00    -0.289 N 
HETATM   25  H4  UNL     1      24.312   3.514  54.431  1.00  0.00     0.178 HD
BRANCH  24  26
HETATM   26  S1  UNL     1      24.064   4.101  52.077  1.00  0.00     0.111 S 
HETATM   27  C1  UNL     1      22.342   4.571  52.224  1.00  0.00     0.152 C 
HETATM   28  O1  UNL     1      24.373   3.362  50.792  1.00  0.00    -0.236 OA
ENDBRANCH  24  26
ENDBRANCH   1  24
TORSDOF 7
ENDMDL
MODEL 9
REMARK VINA RESULT:      -7.5      3.291      6.408
REMARK  7 active torsions:
REMARK  status: ('A' for Active; 'I' for Inactive)
REMARK    1  A    between atoms: S1_2  and  N1_4 
REMARK    2  A    between atoms: N1_4  and  C2_5 
REMARK    3  A    between atoms: C9_14  and  C10_15 
REMARK    4  A    between atoms: C10_15  and  N4_16 
REMARK    5  A    between atoms: N4_16  and  C11_17 
REMARK    6  A    between atoms: C14_20  and  C15_21 
REMARK    7  A    between atoms: C15_21  and  O3_23 
ROOT
HETATM    1  C2  UNL     1      22.815   2.280  50.532  1.00  0.00     0.162 A 
HETATM    2  N2  UNL     1      21.632   1.670  50.479  1.00  0.00    -0.226 NA
HETATM    3  C3  UNL     1      21.074   1.053  51.554  1.00  0.00     0.088 A 
HETATM    4  C4  UNL     1      19.855   0.422  51.476  1.00  0.00     0.034 A 
HETATM    5  C5  UNL     1      19.247  -0.227  52.533  1.00  0.00     0.002 A 
HETATM    6  C6  UNL     1      19.912  -0.238  53.737  1.00  0.00     0.002 A 
HETATM    7  C7  UNL     1      21.145   0.391  53.851  1.00  0.00     0.034 A 
HETATM    8  C8  UNL     1      21.729   1.037  52.765  1.00  0.00     0.086 A 
HETATM    9  N3  UNL     1      22.935   1.659  52.825  1.00  0.00    -0.246 NA
HETATM   10  C9  UNL     1      23.492   2.271  51.758  1.00  0.00     0.099 A 
ENDROOT
BRANCH  10  11
HETATM   11  C10 UNL     1      24.856   2.909  51.884  1.00  0.00     0.183 C 
BRANCH  11  12
HETATM   12  N4  UNL     1      25.342   2.592  53.212  1.00  0.00    -0.384 N 
HETATM   13  H11 UNL     1      25.076   3.069  54.102  1.00  0.00     0.160 HD
BRANCH  12  14
HETATM   14  C11 UNL     1      26.288   1.515  53.244  1.00  0.00     0.028 A 
HETATM   15  C12 UNL     1      25.991   0.191  53.170  1.00  0.00     0.030 A 
HETATM   16  C13 UNL     1      26.885  -0.853  53.232  1.00  0.00     0.020 A 
HETATM   17  C14 UNL     1      28.226  -0.524  53.390  1.00  0.00     0.037 A 
HETATM   18  C16 UNL     1      28.568   0.815  53.469  1.00  0.00     0.020 A 
HETATM   19  C17 UNL     1      27.642   1.843  53.400  1.00  0.00     0.030 A 
BRANCH  17  20
HETATM   20  C15 UNL     1      29.234  -1.568  53.470  1.00  0.00     0.176 C 
HETATM   21  O2  UNL     1      30.426  -1.328  53.823  1.00  0.00    -0.646 OA
BRANCH  20  22
HETATM   22  O3  UNL     1      28.907  -2.884  53.149  1.00  0.00    -0.773 OA
HETATM   23  H14 UNL     1      27.905  -3.118  53.126  1.00  0.00     0.167 HD
ENDBRANCH  20  22
ENDBRANCH  17  20
ENDBRANCH  12  14
ENDBRANCH  11  12
ENDBRANCH  10  11
BRANCH   1  24
HETATM   24  N1  UNL     1      23.486   2.922  49.455  1.00  0.00    -0.289 N 
HETATM   25  H4  UNL     1      24.194   2.359  48.938  1.00  0.00     0.178 HD
BRANCH  24  26
HETATM   26  S1  UNL     1      23.163   4.568  48.991  1.00  0.00     0.111 S 
HETATM   27  C1  UNL     1      24.669   5.521  48.805  1.00  0.00     0.152 C 
HETATM   28  O1  UNL     1      22.150   5.226  49.903  1.00  0.00    -0.236 OA
ENDBRANCH  24  26
ENDBRANCH   1  24
TORSDOF 7
ENDMDL
