MODEL 1
REMARK VINA RESULT:      -8.6      0.000      0.000
REMARK  0 active torsions:
REMARK  status: ('A' for Active; 'I' for Inactive)
REMARK       I    between atoms: C2_2  and  N1_4 
ROOT
HETATM    1  C1  UNL     1      27.971   0.281  54.149  1.00  0.00     0.117 C 
HETATM    2  C2  UNL     1      26.948   1.319  53.818  1.00  0.00     0.216 C 
HETATM    3  O1  UNL     1      27.403   2.497  54.054  1.00  0.00    -0.274 OA
HETATM    4  N1  UNL     1      25.609   1.032  53.297  1.00  0.00    -0.348 N 
HETATM    5  C3  UNL     1      25.420  -0.411  53.134  1.00  0.00     0.130 C 
HETATM    6  C4  UNL     1      24.743  -0.981  54.351  1.00  0.00     0.047 C 
HETATM    7  C5  UNL     1      23.272  -0.692  54.335  1.00  0.00    -0.020 C 
HETATM    8  C6  UNL     1      22.309  -0.176  53.622  1.00  0.00     0.070 C 
HETATM    9  C7  UNL     1      20.944   0.215  53.351  1.00  0.00     0.241 C 
HETATM   10  O2  UNL     1      19.990   0.071  54.153  1.00  0.00    -0.269 OA
HETATM   11  N2  UNL     1      20.698   0.794  52.075  1.00  0.00    -0.353 N 
HETATM   12  C8  UNL     1      19.354   1.228  51.756  1.00  0.00     0.086 C 
HETATM   13  C9  UNL     1      18.611  -0.033  51.168  1.00  0.00     0.032 C 
HETATM   14  C10 UNL     1      19.253   2.226  50.662  1.00  0.00     0.080 C 
HETATM   15  C11 UNL     1      20.005   3.490  50.852  1.00  0.00     0.025 C 
HETATM   16  N3  UNL     1      20.580   3.938  51.901  1.00  0.00    -0.276 NA
HETATM   17  C12 UNL     1      21.603   4.927  51.712  1.00  0.00     0.291 C 
HETATM   18  N4  UNL     1      22.309   4.546  50.509  1.00  0.00    -0.297 N 
HETATM   19  N5  UNL     1      21.509   4.703  49.365  1.00  0.00    -0.231 NA
HETATM   20  C13 UNL     1      20.124   4.396  49.648  1.00  0.00     0.164 C 
HETATM   21  C14 UNL     1      23.635   4.067  50.525  1.00  0.00     0.029 C 
HETATM   22  C15 UNL     1      24.403   3.357  49.677  1.00  0.00     0.027 C 
HETATM   23  C16 UNL     1      25.310   2.501  50.483  1.00  0.00     0.007 C 
HETATM   24  C17 UNL     1      25.004   2.775  51.764  1.00  0.00    -0.056 C 
HETATM   25  C18 UNL     1      24.619   4.244  51.654  1.00  0.00     0.094 C 
HETATM   26  C19 UNL     1      24.875   2.251  53.128  1.00  0.00     0.160 C 
HETATM   27  H10 UNL     1      21.421   0.932  51.336  1.00  0.00     0.163 HD
HETATM   28  H19 UNL     1      21.887   4.218  48.524  1.00  0.00     0.147 HD
ENDROOT
TORSDOF 0
ENDMDL
MODEL 2
REMARK VINA RESULT:      -8.1      1.743      5.605
REMARK  0 active torsions:
REMARK  status: ('A' for Active; 'I' for Inactive)
REMARK       I    between atoms: C2_2  and  N1_4 
ROOT
HETATM    1  C1  UNL     1      17.780  -1.263  53.452  1.00  0.00     0.117 C 
HETATM    2  C2  UNL     1      18.627  -0.562  52.441  1.00  0.00     0.216 C 
HETATM    3  O1  UNL     1      18.016  -0.479  51.313  1.00  0.00    -0.274 OA
HETATM    4  N1  UNL     1      19.973  -0.041  52.698  1.00  0.00    -0.348 N 
HETATM    5  C3  UNL     1      20.362  -0.292  54.087  1.00  0.00     0.130 C 
HETATM    6  C4  UNL     1      21.162  -1.565  54.174  1.00  0.00     0.047 C 
HETATM    7  C5  UNL     1      22.573  -1.346  53.720  1.00  0.00    -0.020 C 
HETATM    8  C6  UNL     1      23.423  -0.438  53.324  1.00  0.00     0.070 C 
HETATM    9  C7  UNL     1      24.705   0.044  52.863  1.00  0.00     0.241 C 
HETATM   10  O2  UNL     1      25.701  -0.686  52.636  1.00  0.00    -0.269 OA
HETATM   11  N2  UNL     1      24.815   1.449  52.668  1.00  0.00    -0.353 N 
HETATM   12  C8  UNL     1      26.068   1.987  52.183  1.00  0.00     0.086 C 
HETATM   13  C9  UNL     1      26.963   2.239  53.458  1.00  0.00     0.032 C 
HETATM   14  C10 UNL     1      25.980   3.330  51.556  1.00  0.00     0.080 C 
HETATM   15  C11 UNL     1      25.061   3.458  50.399  1.00  0.00     0.025 C 
HETATM   16  N3  UNL     1      24.469   2.543  49.733  1.00  0.00    -0.276 NA
HETATM   17  C12 UNL     1      23.306   2.930  48.985  1.00  0.00     0.291 C 
HETATM   18  N4  UNL     1      22.617   3.908  49.796  1.00  0.00    -0.297 N 
HETATM   19  N5  UNL     1      23.341   5.108  49.890  1.00  0.00    -0.231 NA
HETATM   20  C13 UNL     1      24.765   4.860  49.919  1.00  0.00     0.164 C 
HETATM   21  C14 UNL     1      21.376   3.646  50.412  1.00  0.00     0.029 C 
HETATM   22  C15 UNL     1      20.687   4.185  51.435  1.00  0.00     0.027 C 
HETATM   23  C16 UNL     1      19.945   3.094  52.117  1.00  0.00     0.007 C 
HETATM   24  C17 UNL     1      20.258   1.978  51.435  1.00  0.00    -0.056 C 
HETATM   25  C18 UNL     1      20.421   2.543  50.031  1.00  0.00     0.094 C 
HETATM   26  C19 UNL     1      20.514   0.535  51.504  1.00  0.00     0.160 C 
HETATM   27  H10 UNL     1      24.051   2.135  52.851  1.00  0.00     0.163 HD
HETATM   28  H19 UNL     1      23.005   5.737  50.649  1.00  0.00     0.147 HD
ENDROOT
TORSDOF 0
ENDMDL
MODEL 3
REMARK VINA RESULT:      -8.1      2.418      5.307
REMARK  0 active torsions:
REMARK  status: ('A' for Active; 'I' for Inactive)
REMARK       I    between atoms: C2_2  and  N1_4 
ROOT
HETATM    1  C1  UNL     1      23.872  -0.860  54.384  1.00  0.00     0.117 C 
HETATM    2  C2  UNL     1      23.334  -0.199  53.157  1.00  0.00     0.216 C 
HETATM    3  O1  UNL     1      22.362  -0.878  52.661  1.00  0.00    -0.274 OA
HETATM    4  N1  UNL     1      23.845   1.054  52.594  1.00  0.00    -0.348 N 
HETATM    5  C3  UNL     1      24.946   1.572  53.410  1.00  0.00     0.130 C 
HETATM    6  C4  UNL     1      26.263   1.125  52.837  1.00  0.00     0.047 C 
HETATM    7  C5  UNL     1      26.638   1.948  51.642  1.00  0.00    -0.020 C 
HETATM    8  C6  UNL     1      26.285   2.976  50.919  1.00  0.00     0.070 C 
HETATM    9  C7  UNL     1      26.413   3.917  49.829  1.00  0.00     0.241 C 
HETATM   10  O2  UNL     1      27.312   3.877  48.955  1.00  0.00    -0.269 OA
HETATM   11  N2  UNL     1      25.438   4.952  49.776  1.00  0.00    -0.353 N 
HETATM   12  C8  UNL     1      25.500   5.910  48.693  1.00  0.00     0.086 C 
HETATM   13  C9  UNL     1      26.478   7.052  49.169  1.00  0.00     0.032 C 
HETATM   14  C10 UNL     1      24.235   6.636  48.416  1.00  0.00     0.080 C 
HETATM   15  C11 UNL     1      23.053   5.801  48.092  1.00  0.00     0.025 C 
HETATM   16  N3  UNL     1      22.995   4.552  47.827  1.00  0.00    -0.276 NA
HETATM   17  C12 UNL     1      21.724   3.907  48.002  1.00  0.00     0.291 C 
HETATM   18  N4  UNL     1      21.129   4.510  49.174  1.00  0.00    -0.297 N 
HETATM   19  N5  UNL     1      20.770   5.848  48.946  1.00  0.00    -0.231 NA
HETATM   20  C13 UNL     1      21.714   6.500  48.065  1.00  0.00     0.164 C 
HETATM   21  C14 UNL     1      20.959   3.808  50.386  1.00  0.00     0.029 C 
HETATM   22  C15 UNL     1      20.766   4.158  51.670  1.00  0.00     0.027 C 
HETATM   23  C16 UNL     1      21.448   3.156  52.529  1.00  0.00     0.007 C 
HETATM   24  C17 UNL     1      22.000   2.278  51.672  1.00  0.00    -0.056 C 
HETATM   25  C18 UNL     1      20.979   2.309  50.543  1.00  0.00     0.094 C 
HETATM   26  C19 UNL     1      23.130   1.385  51.398  1.00  0.00     0.160 C 
HETATM   27  H10 UNL     1      24.669   5.079  50.470  1.00  0.00     0.163 HD
HETATM   28  H19 UNL     1      20.569   6.379  49.818  1.00  0.00     0.147 HD
ENDROOT
TORSDOF 0
ENDMDL
MODEL 4
REMARK VINA RESULT:      -7.7      2.128      4.566
REMARK  0 active torsions:
REMARK  status: ('A' for Active; 'I' for Inactive)
REMARK       I    between atoms: C2_2  and  N1_4 
ROOT
HETATM    1  C1  UNL     1      28.436  -0.818  53.809  1.00  0.00     0.117 C 
HETATM    2  C2  UNL     1      27.078  -0.881  53.189  1.00  0.00     0.216 C 
HETATM    3  O1  UNL     1      26.776  -2.090  52.873  1.00  0.00    -0.274 OA
HETATM    4  N1  UNL     1      26.208   0.278  52.969  1.00  0.00    -0.348 N 
HETATM    5  C3  UNL     1      26.851   1.501  53.455  1.00  0.00     0.130 C 
HETATM    6  C4  UNL     1      27.559   2.193  52.321  1.00  0.00     0.047 C 
HETATM    7  C5  UNL     1      26.588   2.936  51.454  1.00  0.00    -0.020 C 
HETATM    8  C6  UNL     1      25.335   3.279  51.330  1.00  0.00     0.070 C 
HETATM    9  C7  UNL     1      24.207   3.913  50.685  1.00  0.00     0.241 C 
HETATM   10  O2  UNL     1      24.265   4.527  49.592  1.00  0.00    -0.269 OA
HETATM   11  N2  UNL     1      22.962   3.823  51.367  1.00  0.00    -0.353 N 
HETATM   12  C8  UNL     1      21.792   4.417  50.758  1.00  0.00     0.086 C 
HETATM   13  C9  UNL     1      21.771   5.926  51.220  1.00  0.00     0.032 C 
HETATM   14  C10 UNL     1      20.489   3.894  51.241  1.00  0.00     0.080 C 
HETATM   15  C11 UNL     1      20.270   2.435  51.094  1.00  0.00     0.025 C 
HETATM   16  N3  UNL     1      20.955   1.577  50.439  1.00  0.00    -0.276 NA
HETATM   17  C12 UNL     1      20.813   0.201  50.821  1.00  0.00     0.291 C 
HETATM   18  N4  UNL     1      20.685   0.197  52.261  1.00  0.00    -0.297 N 
HETATM   19  N5  UNL     1      19.468   0.763  52.676  1.00  0.00    -0.231 NA
HETATM   20  C13 UNL     1      19.074   1.852  51.810  1.00  0.00     0.164 C 
HETATM   21  C14 UNL     1      21.689  -0.310  53.112  1.00  0.00     0.029 C 
HETATM   22  C15 UNL     1      22.002  -0.159  54.412  1.00  0.00     0.027 C 
HETATM   23  C16 UNL     1      23.480  -0.224  54.541  1.00  0.00     0.007 C 
HETATM   24  C17 UNL     1      23.933  -0.412  53.289  1.00  0.00    -0.056 C 
HETATM   25  C18 UNL     1      22.800  -1.242  52.701  1.00  0.00     0.094 C 
HETATM   26  C19 UNL     1      24.998  -0.131  52.321  1.00  0.00     0.160 C 
HETATM   27  H10 UNL     1      22.822   3.354  52.288  1.00  0.00     0.163 HD
HETATM   28  H19 UNL     1      19.444   0.999  53.690  1.00  0.00     0.147 HD
ENDROOT
TORSDOF 0
ENDMDL
MODEL 5
REMARK VINA RESULT:      -7.7     10.479     13.865
REMARK  0 active torsions:
REMARK  status: ('A' for Active; 'I' for Inactive)
REMARK       I    between atoms: C2_2  and  N1_4 
ROOT
HETATM    1  C1  UNL     1      29.790  12.656  47.658  1.00  0.00     0.117 C 
HETATM    2  C2  UNL     1      30.617  11.482  48.071  1.00  0.00     0.216 C 
HETATM    3  O1  UNL     1      30.893  11.539  49.325  1.00  0.00    -0.274 OA
HETATM    4  N1  UNL     1      31.055  10.413  47.170  1.00  0.00    -0.348 N 
HETATM    5  C3  UNL     1      30.557  10.649  45.814  1.00  0.00     0.130 C 
HETATM    6  C4  UNL     1      31.605  11.358  44.999  1.00  0.00     0.047 C 
HETATM    7  C5  UNL     1      32.668  10.404  44.543  1.00  0.00    -0.020 C 
HETATM    8  C6  UNL     1      33.017   9.147  44.524  1.00  0.00     0.070 C 
HETATM    9  C7  UNL     1      33.879   8.031  44.207  1.00  0.00     0.241 C 
HETATM   10  O2  UNL     1      34.988   8.130  43.628  1.00  0.00    -0.269 OA
HETATM   11  N2  UNL     1      33.404   6.744  44.584  1.00  0.00    -0.353 N 
HETATM   12  C8  UNL     1      34.235   5.590  44.314  1.00  0.00     0.086 C 
HETATM   13  C9  UNL     1      33.888   5.129  42.846  1.00  0.00     0.032 C 
HETATM   14  C10 UNL     1      33.935   4.387  45.130  1.00  0.00     0.080 C 
HETATM   15  C11 UNL     1      34.015   4.553  46.602  1.00  0.00     0.025 C 
HETATM   16  N3  UNL     1      34.489   5.526  47.280  1.00  0.00    -0.276 NA
HETATM   17  C12 UNL     1      34.040   5.653  48.639  1.00  0.00     0.291 C 
HETATM   18  N4  UNL     1      32.644   5.280  48.635  1.00  0.00    -0.297 N 
HETATM   19  N5  UNL     1      32.472   3.910  48.376  1.00  0.00    -0.231 NA
HETATM   20  C13 UNL     1      33.464   3.424  47.443  1.00  0.00     0.164 C 
HETATM   21  C14 UNL     1      31.608   6.212  48.854  1.00  0.00     0.029 C 
HETATM   22  C15 UNL     1      30.288   6.248  48.595  1.00  0.00     0.027 C 
HETATM   23  C16 UNL     1      29.916   7.653  48.289  1.00  0.00     0.007 C 
HETATM   24  C17 UNL     1      31.062   8.349  48.393  1.00  0.00    -0.056 C 
HETATM   25  C18 UNL     1      31.767   7.568  49.493  1.00  0.00     0.094 C 
HETATM   26  C19 UNL     1      31.861   9.468  47.883  1.00  0.00     0.160 C 
HETATM   27  H10 UNL     1      32.487   6.562  45.047  1.00  0.00     0.163 HD
HETATM   28  H19 UNL     1      31.494   3.654  48.127  1.00  0.00     0.147 HD
ENDROOT
TORSDOF 0
ENDMDL
MODEL 6
REMARK VINA RESULT:      -7.6      2.681      3.677
REMARK  0 active torsions:
REMARK  status: ('A' for Active; 'I' for Inactive)
REMARK       I    between atoms: C2_2  and  N1_4 
ROOT
HETATM    1  C1  UNL     1      24.763   0.435  53.530  1.00  0.00     0.117 C 
HETATM    2  C2  UNL     1      23.645   1.231  52.942  1.00  0.00     0.216 C 
HETATM    3  O1  UNL     1      23.956   2.477  52.879  1.00  0.00    -0.274 OA
HETATM    4  N1  UNL     1      22.366   0.670  52.498  1.00  0.00    -0.348 N 
HETATM    5  C3  UNL     1      22.345  -0.781  52.699  1.00  0.00     0.130 C 
HETATM    6  C4  UNL     1      21.691  -1.107  54.015  1.00  0.00     0.047 C 
HETATM    7  C5  UNL     1      20.199  -1.005  53.914  1.00  0.00    -0.020 C 
HETATM    8  C6  UNL     1      19.211  -0.798  53.086  1.00  0.00     0.070 C 
HETATM    9  C7  UNL     1      17.822  -0.649  52.715  1.00  0.00     0.241 C 
HETATM   10  O2  UNL     1      16.860  -0.701  53.520  1.00  0.00    -0.269 OA
HETATM   11  N2  UNL     1      17.561  -0.437  51.332  1.00  0.00    -0.353 N 
HETATM   12  C8  UNL     1      16.190  -0.256  50.904  1.00  0.00     0.086 C 
HETATM   13  C9  UNL     1      15.614  -1.702  50.644  1.00  0.00     0.032 C 
HETATM   14  C10 UNL     1      16.020   0.421  49.594  1.00  0.00     0.080 C 
HETATM   15  C11 UNL     1      16.618   1.772  49.468  1.00  0.00     0.025 C 
HETATM   16  N3  UNL     1      17.100   2.530  50.377  1.00  0.00    -0.276 NA
HETATM   17  C12 UNL     1      18.014   3.554  49.955  1.00  0.00     0.291 C 
HETATM   18  N4  UNL     1      18.802   2.973  48.891  1.00  0.00    -0.297 N 
HETATM   19  N5  UNL     1      18.032   2.747  47.738  1.00  0.00    -0.231 NA
HETATM   20  C13 UNL     1      16.681   2.360  48.077  1.00  0.00     0.164 C 
HETATM   21  C14 UNL     1      20.172   2.672  49.038  1.00  0.00     0.029 C 
HETATM   22  C15 UNL     1      21.044   1.869  48.402  1.00  0.00     0.027 C 
HETATM   23  C16 UNL     1      22.011   1.352  49.403  1.00  0.00     0.007 C 
HETATM   24  C17 UNL     1      21.628   1.896  50.572  1.00  0.00    -0.056 C 
HETATM   25  C18 UNL     1      21.087   3.236  50.095  1.00  0.00     0.094 C 
HETATM   26  C19 UNL     1      21.508   1.714  52.023  1.00  0.00     0.160 C 
HETATM   27  H10 UNL     1      18.292  -0.402  50.589  1.00  0.00     0.163 HD
HETATM   28  H19 UNL     1      18.493   2.117  47.049  1.00  0.00     0.147 HD
ENDROOT
TORSDOF 0
ENDMDL
MODEL 7
REMARK VINA RESULT:      -7.4      2.384      7.232
REMARK  0 active torsions:
REMARK  status: ('A' for Active; 'I' for Inactive)
REMARK       I    between atoms: C2_2  and  N1_4 
ROOT
HETATM    1  C1  UNL     1      17.197   4.511  50.006  1.00  0.00     0.117 C 
HETATM    2  C2  UNL     1      18.318   4.036  50.872  1.00  0.00     0.216 C 
HETATM    3  O1  UNL     1      17.880   3.673  52.025  1.00  0.00    -0.274 OA
HETATM    4  N1  UNL     1      19.725   3.991  50.464  1.00  0.00    -0.348 N 
HETATM    5  C3  UNL     1      19.874   4.463  49.086  1.00  0.00     0.130 C 
HETATM    6  C4  UNL     1      20.229   5.926  49.080  1.00  0.00     0.047 C 
HETATM    7  C5  UNL     1      21.677   6.130  49.407  1.00  0.00    -0.020 C 
HETATM    8  C6  UNL     1      22.802   5.510  49.640  1.00  0.00     0.070 C 
HETATM    9  C7  UNL     1      24.210   5.424  49.953  1.00  0.00     0.241 C 
HETATM   10  O2  UNL     1      24.950   6.410  50.185  1.00  0.00    -0.269 OA
HETATM   11  N2  UNL     1      24.767   4.115  49.986  1.00  0.00    -0.353 N 
HETATM   12  C8  UNL     1      26.167   3.964  50.319  1.00  0.00     0.086 C 
HETATM   13  C9  UNL     1      26.962   4.112  48.964  1.00  0.00     0.032 C 
HETATM   14  C10 UNL     1      26.563   2.617  50.802  1.00  0.00     0.080 C 
HETATM   15  C11 UNL     1      25.851   2.112  52.001  1.00  0.00     0.025 C 
HETATM   16  N3  UNL     1      25.076   2.735  52.802  1.00  0.00    -0.276 NA
HETATM   17  C12 UNL     1      24.172   1.941  53.585  1.00  0.00     0.291 C 
HETATM   18  N4  UNL     1      23.740   0.863  52.725  1.00  0.00    -0.297 N 
HETATM   19  N5  UNL     1      24.785  -0.034  52.449  1.00  0.00    -0.231 NA
HETATM   20  C13 UNL     1      26.052   0.654  52.346  1.00  0.00     0.164 C 
HETATM   21  C14 UNL     1      22.422   0.767  52.231  1.00  0.00     0.029 C 
HETATM   22  C15 UNL     1      21.832   0.122  51.207  1.00  0.00     0.027 C 
HETATM   23  C16 UNL     1      20.725   0.973  50.702  1.00  0.00     0.007 C 
HETATM   24  C17 UNL     1      20.746   2.072  51.478  1.00  0.00    -0.056 C 
HETATM   25  C18 UNL     1      21.218   1.476  52.797  1.00  0.00     0.094 C 
HETATM   26  C19 UNL     1      20.536   3.522  51.547  1.00  0.00     0.160 C 
HETATM   27  H10 UNL     1      24.237   3.239  49.785  1.00  0.00     0.163 HD
HETATM   28  H19 UNL     1      24.583  -0.674  51.653  1.00  0.00     0.147 HD
ENDROOT
TORSDOF 0
ENDMDL
MODEL 8
REMARK VINA RESULT:      -7.3      8.166     11.255
REMARK  0 active torsions:
REMARK  status: ('A' for Active; 'I' for Inactive)
REMARK       I    between atoms: C2_2  and  N1_4 
ROOT
HETATM    1  C1  UNL     1      23.453   7.295  48.689  1.00  0.00     0.117 C 
HETATM    2  C2  UNL     1      24.608   7.846  47.918  1.00  0.00     0.216 C 
HETATM    3  O1  UNL     1      24.198   8.572  46.940  1.00  0.00    -0.274 OA
HETATM    4  N1  UNL     1      26.017   7.592  48.233  1.00  0.00    -0.348 N 
HETATM    5  C3  UNL     1      26.132   6.736  49.415  1.00  0.00     0.130 C 
HETATM    6  C4  UNL     1      26.276   5.298  48.995  1.00  0.00     0.047 C 
HETATM    7  C5  UNL     1      27.673   5.008  48.534  1.00  0.00    -0.020 C 
HETATM    8  C6  UNL     1      28.868   5.519  48.410  1.00  0.00     0.070 C 
HETATM    9  C7  UNL     1      30.266   5.508  48.044  1.00  0.00     0.241 C 
HETATM   10  O2  UNL     1      30.852   4.539  47.503  1.00  0.00    -0.269 OA
HETATM   11  N2  UNL     1      31.001   6.690  48.338  1.00  0.00    -0.353 N 
HETATM   12  C8  UNL     1      32.401   6.746  47.971  1.00  0.00     0.086 C 
HETATM   13  C9  UNL     1      33.199   6.122  49.180  1.00  0.00     0.032 C 
HETATM   14  C10 UNL     1      32.971   8.112  47.854  1.00  0.00     0.080 C 
HETATM   15  C11 UNL     1      32.308   9.022  46.888  1.00  0.00     0.025 C 
HETATM   16  N3  UNL     1      31.433   8.754  45.996  1.00  0.00    -0.276 NA
HETATM   17  C12 UNL     1      30.631   9.847  45.521  1.00  0.00     0.291 C 
HETATM   18  N4  UNL     1      30.377  10.685  46.671  1.00  0.00    -0.297 N 
HETATM   19  N5  UNL     1      31.545  11.326  47.116  1.00  0.00    -0.231 NA
HETATM   20  C13 UNL     1      32.705  10.479  46.946  1.00  0.00     0.164 C 
HETATM   21  C14 UNL     1      29.099  10.807  47.254  1.00  0.00     0.029 C 
HETATM   22  C15 UNL     1      28.632  11.208  48.451  1.00  0.00     0.027 C 
HETATM   23  C16 UNL     1      27.428  10.400  48.771  1.00  0.00     0.007 C 
HETATM   24  C17 UNL     1      27.275   9.570  47.724  1.00  0.00    -0.056 C 
HETATM   25  C18 UNL     1      27.793  10.447  46.593  1.00  0.00     0.094 C 
HETATM   26  C19 UNL     1      26.860   8.238  47.272  1.00  0.00     0.160 C 
HETATM   27  H10 UNL     1      30.606   7.534  48.805  1.00  0.00     0.163 HD
HETATM   28  H19 UNL     1      31.456  11.736  48.068  1.00  0.00     0.147 HD
ENDROOT
TORSDOF 0
ENDMDL
MODEL 9
REMARK VINA RESULT:      -7.2      2.851      5.371
REMARK  0 active torsions:
REMARK  status: ('A' for Active; 'I' for Inactive)
REMARK       I    between atoms: C2_2  and  N1_4 
ROOT
HETATM    1  C1  UNL     1      27.187   5.947  48.597  1.00  0.00     0.117 C 
HETATM    2  C2  UNL     1      26.391   4.748  48.998  1.00  0.00     0.216 C 
HETATM    3  O1  UNL     1      27.132   3.698  49.024  1.00  0.00    -0.274 OA
HETATM    4  N1  UNL     1      24.961   4.765  49.316  1.00  0.00    -0.348 N 
HETATM    5  C3  UNL     1      24.426   6.124  49.200  1.00  0.00     0.130 C 
HETATM    6  C4  UNL     1      23.821   6.322  47.836  1.00  0.00     0.047 C 
HETATM    7  C5  UNL     1      22.468   5.682  47.750  1.00  0.00    -0.020 C 
HETATM    8  C6  UNL     1      21.555   5.053  48.438  1.00  0.00     0.070 C 
HETATM    9  C7  UNL     1      20.291   4.379  48.629  1.00  0.00     0.241 C 
HETATM   10  O2  UNL     1      19.455   4.161  47.719  1.00  0.00    -0.269 OA
HETATM   11  N2  UNL     1      20.001   3.951  49.955  1.00  0.00    -0.353 N 
HETATM   12  C8  UNL     1      18.761   3.248  50.203  1.00  0.00     0.086 C 
HETATM   13  C9  UNL     1      17.672   4.357  50.477  1.00  0.00     0.032 C 
HETATM   14  C10 UNL     1      18.733   2.429  51.441  1.00  0.00     0.080 C 
HETATM   15  C11 UNL     1      19.772   1.377  51.558  1.00  0.00     0.025 C 
HETATM   16  N3  UNL     1      20.579   0.937  50.671  1.00  0.00    -0.276 NA
HETATM   17  C12 UNL     1      21.763   0.273  51.139  1.00  0.00     0.291 C 
HETATM   18  N4  UNL     1      22.182   0.990  52.323  1.00  0.00    -0.297 N 
HETATM   19  N5  UNL     1      21.282   0.809  53.386  1.00  0.00    -0.231 NA
HETATM   20  C13 UNL     1      19.920   0.717  52.909  1.00  0.00     0.164 C 
HETATM   21  C14 UNL     1      23.352   1.777  52.360  1.00  0.00     0.029 C 
HETATM   22  C15 UNL     1      23.806   2.771  53.144  1.00  0.00     0.027 C 
HETATM   23  C16 UNL     1      24.601   3.698  52.299  1.00  0.00     0.007 C 
HETATM   24  C17 UNL     1      24.554   3.172  51.062  1.00  0.00    -0.056 C 
HETATM   25  C18 UNL     1      24.503   1.686  51.391  1.00  0.00     0.094 C 
HETATM   26  C19 UNL     1      24.508   3.441  49.621  1.00  0.00     0.160 C 
HETATM   27  H10 UNL     1      20.623   4.108  50.778  1.00  0.00     0.163 HD
HETATM   28  H19 UNL     1      21.414   1.490  54.162  1.00  0.00     0.147 HD
ENDROOT
TORSDOF 0
ENDMDL
