MODEL 1
REMARK VINA RESULT:      -8.3      0.000      0.000
REMARK  6 active torsions:
REMARK  status: ('A' for Active; 'I' for Inactive)
REMARK    1  A    between atoms: C2_2  and  N1_3 
REMARK    2  A    between atoms: N4_10  and  C7_11 
REMARK    3  A    between atoms: C7_11  and  P1_12 
REMARK    4  A    between atoms: C11_16  and  N5_17 
REMARK    5  A    between atoms: C13_20  and  N7_21 
REMARK    6  A    between atoms: N7_21  and  C14_22 
ROOT
HETATM    1  N1  UNL     1      20.238  -0.772  53.389  1.00  0.00    -0.325 N 
HETATM    2  C3  UNL     1      21.012  -1.475  54.267  1.00  0.00     0.212 A 
HETATM    3  N2  UNL     1      22.303  -1.098  54.070  1.00  0.00    -0.236 NA
HETATM    4  C4  UNL     1      22.288  -0.182  53.081  1.00  0.00     0.149 A 
HETATM    5  C5  UNL     1      20.980   0.045  52.628  1.00  0.00     0.160 A 
HETATM    6  N3  UNL     1      20.445   0.798  51.737  1.00  0.00    -0.249 NA
HETATM    7  C6  UNL     1      21.129   1.719  50.858  1.00  0.00     0.293 C 
HETATM    8  N4  UNL     1      22.349   2.234  51.287  1.00  0.00    -0.302 N 
HETATM    9  N6  UNL     1      23.422   1.443  51.508  1.00  0.00    -0.284 N 
HETATM   10  C13 UNL     1      23.348   0.462  52.554  1.00  0.00     0.153 C 
HETATM   11  H22 UNL     1      24.369   1.416  51.020  1.00  0.00     0.188 HD
ENDROOT
BRANCH   8  12
HETATM   12  C7  UNL     1      22.703   3.451  50.626  1.00  0.00     0.178 C 
BRANCH  12  13
HETATM   13  P1  UNL     1      24.046   4.427  51.413  1.00  0.00    -0.095 P 
HETATM   14  C8  UNL     1      25.656   4.027  50.573  1.00  0.00     0.036 C 
HETATM   15  C9  UNL     1      25.632   4.447  49.122  1.00  0.00     0.007 C 
HETATM   16  C10 UNL     1      24.693   5.606  48.889  1.00  0.00     0.036 C 
HETATM   17  C11 UNL     1      24.713   6.642  49.963  1.00  0.00     0.222 C 
HETATM   18  C12 UNL     1      23.781   6.267  51.088  1.00  0.00     0.071 C 
BRANCH  17  19
HETATM   19  N5  UNL     1      26.036   6.898  50.504  1.00  0.00     0.083 N 
HETATM   20  H18 UNL     1      26.668   6.079  50.332  1.00  0.00     0.313 HD
HETATM   21  H19 UNL     1      26.374   7.764  50.037  1.00  0.00     0.313 HD
ENDBRANCH  17  19
ENDBRANCH  12  13
ENDBRANCH   8  12
BRANCH  10  22
HETATM   22  N7  UNL     1      24.610   0.089  53.144  1.00  0.00    -0.339 N 
HETATM   23  H23 UNL     1      24.615  -0.838  53.641  1.00  0.00     0.167 HD
BRANCH  22  24
HETATM   24  C14 UNL     1      25.939   0.577  53.292  1.00  0.00     0.035 A 
HETATM   25  C15 UNL     1      26.411   1.862  53.472  1.00  0.00     0.029 A 
HETATM   26  C16 UNL     1      27.767   2.037  53.596  1.00  0.00     0.004 A 
HETATM   27  C17 UNL     1      28.665   0.994  53.550  1.00  0.00     0.024 A 
HETATM   28  C18 UNL     1      28.204  -0.297  53.370  1.00  0.00     0.036 A 
HETATM   29 CL1  UNL     1      29.402  -1.583  53.318  1.00  0.00    -0.084 Cl
HETATM   30  C19 UNL     1      26.841  -0.495  53.243  1.00  0.00     0.053 A 
ENDBRANCH  22  24
ENDBRANCH  10  22
BRANCH   1  31
HETATM   31  C2  UNL     1      18.799  -0.888  53.284  1.00  0.00     0.127 C 
HETATM   32  C1  UNL     1      18.411  -2.293  53.684  1.00  0.00     0.027 C 
ENDBRANCH   1  31
TORSDOF 6
ENDMDL
MODEL 2
REMARK VINA RESULT:      -8.2      2.064      6.534
REMARK  6 active torsions:
REMARK  status: ('A' for Active; 'I' for Inactive)
REMARK    1  A    between atoms: C2_2  and  N1_3 
REMARK    2  A    between atoms: N4_10  and  C7_11 
REMARK    3  A    between atoms: C7_11  and  P1_12 
REMARK    4  A    between atoms: C11_16  and  N5_17 
REMARK    5  A    between atoms: C13_20  and  N7_21 
REMARK    6  A    between atoms: N7_21  and  C14_22 
ROOT
HETATM    1  N1  UNL     1      26.530   6.051  48.772  1.00  0.00    -0.325 N 
HETATM    2  C3  UNL     1      27.482   5.114  48.489  1.00  0.00     0.212 A 
HETATM    3  N2  UNL     1      27.251   4.040  49.290  1.00  0.00    -0.236 NA
HETATM    4  C4  UNL     1      26.172   4.346  50.040  1.00  0.00     0.149 A 
HETATM    5  C5  UNL     1      25.692   5.625  49.728  1.00  0.00     0.160 A 
HETATM    6  N3  UNL     1      24.721   6.357  50.140  1.00  0.00    -0.249 NA
HETATM    7  C6  UNL     1      23.752   6.017  51.157  1.00  0.00     0.293 C 
HETATM    8  N4  UNL     1      23.494   4.666  51.374  1.00  0.00    -0.302 N 
HETATM    9  N6  UNL     1      24.449   3.816  51.814  1.00  0.00    -0.284 N 
HETATM   10  C13 UNL     1      25.589   3.573  50.977  1.00  0.00     0.153 C 
HETATM   11  H22 UNL     1      24.511   3.261  52.722  1.00  0.00     0.188 HD
ENDROOT
BRANCH   8  12
HETATM   12  C7  UNL     1      22.234   4.436  52.008  1.00  0.00     0.178 C 
BRANCH  12  13
HETATM   13  P1  UNL     1      21.062   3.359  51.088  1.00  0.00    -0.095 P 
HETATM   14  C8  UNL     1      21.978   1.869  50.457  1.00  0.00     0.036 C 
HETATM   15  C9  UNL     1      22.505   1.031  51.598  1.00  0.00     0.007 C 
HETATM   16  C10 UNL     1      21.661   1.180  52.841  1.00  0.00     0.036 C 
HETATM   17  C11 UNL     1      20.191   1.248  52.584  1.00  0.00     0.222 C 
HETATM   18  C12 UNL     1      19.766   2.660  52.269  1.00  0.00     0.071 C 
BRANCH  17  19
HETATM   19  N5  UNL     1      19.742   0.366  51.522  1.00  0.00     0.083 N 
HETATM   20  H18 UNL     1      19.233  -0.460  51.920  1.00  0.00     0.313 HD
HETATM   21  H19 UNL     1      19.137   0.944  50.904  1.00  0.00     0.313 HD
ENDBRANCH  17  19
ENDBRANCH  12  13
ENDBRANCH   8  12
BRANCH  10  22
HETATM   22  N7  UNL     1      26.231   2.294  51.162  1.00  0.00    -0.339 N 
HETATM   23  H23 UNL     1      26.108   1.613  50.369  1.00  0.00     0.167 HD
BRANCH  22  24
HETATM   24  C14 UNL     1      27.029   1.593  52.109  1.00  0.00     0.035 A 
HETATM   25  C15 UNL     1      27.896   2.062  53.076  1.00  0.00     0.029 A 
HETATM   26  C16 UNL     1      28.534   1.139  53.868  1.00  0.00     0.004 A 
HETATM   27  C17 UNL     1      28.344  -0.219  53.739  1.00  0.00     0.024 A 
HETATM   28  C18 UNL     1      27.478  -0.699  52.775  1.00  0.00     0.036 A 
HETATM   29 CL1  UNL     1      27.281  -2.443  52.661  1.00  0.00    -0.084 Cl
HETATM   30  C19 UNL     1      26.825   0.214  51.966  1.00  0.00     0.053 A 
ENDBRANCH  22  24
ENDBRANCH  10  22
BRANCH   1  31
HETATM   31  C2  UNL     1      26.431   7.345  48.128  1.00  0.00     0.127 C 
HETATM   32  C1  UNL     1      27.778   7.672  47.525  1.00  0.00     0.027 C 
ENDBRANCH   1  31
TORSDOF 6
ENDMDL
MODEL 3
REMARK VINA RESULT:      -8.2      2.547      6.243
REMARK  6 active torsions:
REMARK  status: ('A' for Active; 'I' for Inactive)
REMARK    1  A    between atoms: C2_2  and  N1_3 
REMARK    2  A    between atoms: N4_10  and  C7_11 
REMARK    3  A    between atoms: C7_11  and  P1_12 
REMARK    4  A    between atoms: C11_16  and  N5_17 
REMARK    5  A    between atoms: C13_20  and  N7_21 
REMARK    6  A    between atoms: N7_21  and  C14_22 
ROOT
HETATM    1  N1  UNL     1      26.269   5.378  49.275  1.00  0.00    -0.325 N 
HETATM    2  C3  UNL     1      27.180   4.415  48.949  1.00  0.00     0.212 A 
HETATM    3  N2  UNL     1      26.861   3.295  49.649  1.00  0.00    -0.236 NA
HETATM    4  C4  UNL     1      25.771   3.598  50.383  1.00  0.00     0.149 A 
HETATM    5  C5  UNL     1      25.373   4.924  50.162  1.00  0.00     0.160 A 
HETATM    6  N3  UNL     1      24.426   5.673  50.600  1.00  0.00    -0.249 NA
HETATM    7  C6  UNL     1      23.401   5.307  51.550  1.00  0.00     0.293 C 
HETATM    8  N4  UNL     1      23.063   3.960  51.645  1.00  0.00    -0.302 N 
HETATM    9  N6  UNL     1      23.953   3.024  52.046  1.00  0.00    -0.284 N 
HETATM   10  C13 UNL     1      25.110   2.786  51.231  1.00  0.00     0.153 C 
HETATM   11  H22 UNL     1      23.949   2.395  52.905  1.00  0.00     0.188 HD
ENDROOT
BRANCH   8  12
HETATM   12  C7  UNL     1      21.768   3.750  52.212  1.00  0.00     0.178 C 
BRANCH  12  13
HETATM   13  P1  UNL     1      20.396   3.522  51.011  1.00  0.00    -0.095 P 
HETATM   14  C8  UNL     1      21.083   2.810  49.437  1.00  0.00     0.036 C 
HETATM   15  C9  UNL     1      21.664   1.435  49.669  1.00  0.00     0.007 C 
HETATM   16  C10 UNL     1      20.996   0.732  50.826  1.00  0.00     0.036 C 
HETATM   17  C11 UNL     1      19.519   0.939  50.904  1.00  0.00     0.222 C 
HETATM   18  C12 UNL     1      19.194   2.212  51.645  1.00  0.00     0.071 C 
BRANCH  17  19
HETATM   19  N5  UNL     1      18.862   0.958  49.610  1.00  0.00     0.083 N 
HETATM   20  H18 UNL     1      18.634   1.941  49.328  1.00  0.00     0.313 HD
HETATM   21  H19 UNL     1      19.520   0.498  48.947  1.00  0.00     0.313 HD
ENDBRANCH  17  19
ENDBRANCH  12  13
ENDBRANCH   8  12
BRANCH  10  22
HETATM   22  N7  UNL     1      25.675   1.462  51.331  1.00  0.00    -0.339 N 
HETATM   23  H23 UNL     1      25.318   0.768  50.626  1.00  0.00     0.167 HD
BRANCH  22  24
HETATM   24  C14 UNL     1      26.615   0.726  52.106  1.00  0.00     0.035 A 
HETATM   25  C15 UNL     1      26.793  -0.636  52.248  1.00  0.00     0.029 A 
HETATM   26  C16 UNL     1      27.804  -1.069  53.069  1.00  0.00     0.004 A 
HETATM   27  C17 UNL     1      28.639  -0.211  53.750  1.00  0.00     0.024 A 
HETATM   28  C18 UNL     1      28.469   1.155  53.615  1.00  0.00     0.036 A 
HETATM   29 CL1  UNL     1      29.566   2.197  54.512  1.00  0.00    -0.084 Cl
HETATM   30  C19 UNL     1      27.456   1.613  52.792  1.00  0.00     0.053 A 
ENDBRANCH  22  24
ENDBRANCH  10  22
BRANCH   1  31
HETATM   31  C2  UNL     1      26.265   6.723  48.738  1.00  0.00     0.127 C 
HETATM   32  C1  UNL     1      27.635   7.003  48.165  1.00  0.00     0.027 C 
ENDBRANCH   1  31
TORSDOF 6
ENDMDL
MODEL 4
REMARK VINA RESULT:      -8.0      1.409      1.853
REMARK  6 active torsions:
REMARK  status: ('A' for Active; 'I' for Inactive)
REMARK    1  A    between atoms: C2_2  and  N1_3 
REMARK    2  A    between atoms: N4_10  and  C7_11 
REMARK    3  A    between atoms: C7_11  and  P1_12 
REMARK    4  A    between atoms: C11_16  and  N5_17 
REMARK    5  A    between atoms: C13_20  and  N7_21 
REMARK    6  A    between atoms: N7_21  and  C14_22 
ROOT
HETATM    1  N1  UNL     1      19.951  -0.274  52.938  1.00  0.00    -0.325 N 
HETATM    2  C3  UNL     1      20.506  -0.528  54.160  1.00  0.00     0.212 A 
HETATM    3  N2  UNL     1      21.798  -0.107  54.118  1.00  0.00    -0.236 NA
HETATM    4  C4  UNL     1      22.001   0.388  52.880  1.00  0.00     0.149 A 
HETATM    5  C5  UNL     1      20.836   0.293  52.106  1.00  0.00     0.160 A 
HETATM    6  N3  UNL     1      20.514   0.614  50.906  1.00  0.00    -0.249 NA
HETATM    7  C6  UNL     1      21.368   1.229  49.915  1.00  0.00     0.293 C 
HETATM    8  N4  UNL     1      22.437   1.994  50.373  1.00  0.00    -0.302 N 
HETATM    9  N6  UNL     1      23.444   1.457  51.099  1.00  0.00    -0.284 N 
HETATM   10  C13 UNL     1      23.142   0.913  52.392  1.00  0.00     0.153 C 
HETATM   11  H22 UNL     1      24.480   1.361  50.872  1.00  0.00     0.188 HD
ENDROOT
BRANCH   8  12
HETATM   12  C7  UNL     1      22.913   2.925  49.398  1.00  0.00     0.178 C 
BRANCH  12  13
HETATM   13  P1  UNL     1      22.131   4.588  49.432  1.00  0.00    -0.095 P 
HETATM   14  C8  UNL     1      21.235   4.802  51.048  1.00  0.00     0.036 C 
HETATM   15  C9  UNL     1      22.197   4.770  52.212  1.00  0.00     0.007 C 
HETATM   16  C10 UNL     1      23.576   5.238  51.813  1.00  0.00     0.036 C 
HETATM   17  C11 UNL     1      23.586   6.396  50.870  1.00  0.00     0.222 C 
HETATM   18  C12 UNL     1      23.462   5.926  49.442  1.00  0.00     0.071 C 
BRANCH  17  19
HETATM   19  N5  UNL     1      22.554   7.379  51.141  1.00  0.00     0.083 N 
HETATM   20  H18 UNL     1      22.272   7.870  50.258  1.00  0.00     0.313 HD
HETATM   21  H19 UNL     1      21.764   6.856  51.573  1.00  0.00     0.313 HD
ENDBRANCH  17  19
ENDBRANCH  12  13
ENDBRANCH   8  12
BRANCH  10  22
HETATM   22  N7  UNL     1      24.233   0.917  53.335  1.00  0.00    -0.339 N 
HETATM   23  H23 UNL     1      23.957   1.069  54.339  1.00  0.00     0.167 HD
BRANCH  22  24
HETATM   24  C14 UNL     1      25.649   0.772  53.377  1.00  0.00     0.035 A 
HETATM   25  C15 UNL     1      26.640   1.695  53.644  1.00  0.00     0.029 A 
HETATM   26  C16 UNL     1      27.943   1.263  53.623  1.00  0.00     0.004 A 
HETATM   27  C17 UNL     1      28.297  -0.039  53.350  1.00  0.00     0.024 A 
HETATM   28  C18 UNL     1      27.313  -0.973  53.082  1.00  0.00     0.036 A 
HETATM   29 CL1  UNL     1      27.831  -2.618  52.739  1.00  0.00    -0.084 Cl
HETATM   30  C19 UNL     1      25.993  -0.558  53.097  1.00  0.00     0.053 A 
ENDBRANCH  22  24
ENDBRANCH  10  22
BRANCH   1  31
HETATM   31  C2  UNL     1      18.581  -0.577  52.577  1.00  0.00     0.127 C 
HETATM   32  C1  UNL     1      18.107  -1.714  53.453  1.00  0.00     0.027 C 
ENDBRANCH   1  31
TORSDOF 6
ENDMDL
MODEL 5
REMARK VINA RESULT:      -7.8      2.813      6.169
REMARK  6 active torsions:
REMARK  status: ('A' for Active; 'I' for Inactive)
REMARK    1  A    between atoms: C2_2  and  N1_3 
REMARK    2  A    between atoms: N4_10  and  C7_11 
REMARK    3  A    between atoms: C7_11  and  P1_12 
REMARK    4  A    between atoms: C11_16  and  N5_17 
REMARK    5  A    between atoms: C13_20  and  N7_21 
REMARK    6  A    between atoms: N7_21  and  C14_22 
ROOT
HETATM    1  N1  UNL     1      26.234   5.426  49.135  1.00  0.00    -0.325 N 
HETATM    2  C3  UNL     1      27.169   4.454  48.922  1.00  0.00     0.212 A 
HETATM    3  N2  UNL     1      26.894   3.428  49.770  1.00  0.00    -0.236 NA
HETATM    4  C4  UNL     1      25.808   3.797  50.479  1.00  0.00     0.149 A 
HETATM    5  C5  UNL     1      25.366   5.070  50.093  1.00  0.00     0.160 A 
HETATM    6  N3  UNL     1      24.405   5.844  50.445  1.00  0.00    -0.249 NA
HETATM    7  C6  UNL     1      23.406   5.579  51.456  1.00  0.00     0.293 C 
HETATM    8  N4  UNL     1      23.111   4.248  51.736  1.00  0.00    -0.302 N 
HETATM    9  N6  UNL     1      24.035   3.399  52.240  1.00  0.00    -0.284 N 
HETATM   10  C13 UNL     1      25.186   3.087  51.441  1.00  0.00     0.153 C 
HETATM   11  H22 UNL     1      24.064   2.890  53.175  1.00  0.00     0.188 HD
ENDROOT
BRANCH   8  12
HETATM   12  C7  UNL     1      21.832   4.079  52.352  1.00  0.00     0.178 C 
BRANCH  12  13
HETATM   13  P1  UNL     1      20.940   2.528  51.933  1.00  0.00    -0.095 P 
HETATM   14  C8  UNL     1      19.120   2.888  51.821  1.00  0.00     0.036 C 
HETATM   15  C9  UNL     1      18.824   3.855  50.698  1.00  0.00     0.007 C 
HETATM   16  C10 UNL     1      19.851   3.764  49.595  1.00  0.00     0.036 C 
HETATM   17  C11 UNL     1      20.301   2.375  49.283  1.00  0.00     0.222 C 
HETATM   18  C12 UNL     1      21.423   1.955  50.200  1.00  0.00     0.071 C 
BRANCH  17  19
HETATM   19  N5  UNL     1      19.238   1.389  49.346  1.00  0.00     0.083 N 
HETATM   20  H18 UNL     1      18.639   1.438  48.486  1.00  0.00     0.313 HD
HETATM   21  H19 UNL     1      19.708   0.466  49.449  1.00  0.00     0.313 HD
ENDBRANCH  17  19
ENDBRANCH  12  13
ENDBRANCH   8  12
BRANCH  10  22
HETATM   22  N7  UNL     1      25.792   1.805  51.705  1.00  0.00    -0.339 N 
HETATM   23  H23 UNL     1      25.300   0.980  51.275  1.00  0.00     0.167 HD
BRANCH  22  24
HETATM   24  C14 UNL     1      26.903   1.236  52.389  1.00  0.00     0.035 A 
HETATM   25  C15 UNL     1      27.938   1.835  53.079  1.00  0.00     0.029 A 
HETATM   26  C16 UNL     1      28.881   1.022  53.657  1.00  0.00     0.004 A 
HETATM   27  C17 UNL     1      28.836  -0.352  53.579  1.00  0.00     0.024 A 
HETATM   28  C18 UNL     1      27.804  -0.963  52.891  1.00  0.00     0.036 A 
HETATM   29 CL1  UNL     1      27.806  -2.721  52.827  1.00  0.00    -0.084 Cl
HETATM   30  C19 UNL     1      26.844  -0.162  52.301  1.00  0.00     0.053 A 
ENDBRANCH  22  24
ENDBRANCH  10  22
BRANCH   1  31
HETATM   31  C2  UNL     1      26.180   6.687  48.425  1.00  0.00     0.127 C 
HETATM   32  C1  UNL     1      27.584   7.039  47.988  1.00  0.00     0.027 C 
ENDBRANCH   1  31
TORSDOF 6
ENDMDL
MODEL 6
REMARK VINA RESULT:      -7.8      1.566      2.034
REMARK  6 active torsions:
REMARK  status: ('A' for Active; 'I' for Inactive)
REMARK    1  A    between atoms: C2_2  and  N1_3 
REMARK    2  A    between atoms: N4_10  and  C7_11 
REMARK    3  A    between atoms: C7_11  and  P1_12 
REMARK    4  A    between atoms: C11_16  and  N5_17 
REMARK    5  A    between atoms: C13_20  and  N7_21 
REMARK    6  A    between atoms: N7_21  and  C14_22 
ROOT
HETATM    1  N1  UNL     1      21.510   0.473  53.355  1.00  0.00    -0.325 N 
HETATM    2  C3  UNL     1      22.365  -0.566  53.585  1.00  0.00     0.212 A 
HETATM    3  N2  UNL     1      23.584  -0.209  53.101  1.00  0.00    -0.236 NA
HETATM    4  C4  UNL     1      23.445   1.031  52.588  1.00  0.00     0.149 A 
HETATM    5  C5  UNL     1      22.129   1.490  52.738  1.00  0.00     0.160 A 
HETATM    6  N3  UNL     1      21.502   2.567  52.433  1.00  0.00    -0.249 NA
HETATM    7  C6  UNL     1      22.050   3.730  51.772  1.00  0.00     0.293 C 
HETATM    8  N4  UNL     1      23.416   3.962  51.905  1.00  0.00    -0.302 N 
HETATM    9  N6  UNL     1      24.339   3.095  51.430  1.00  0.00    -0.284 N 
HETATM   10  C13 UNL     1      24.399   1.778  51.999  1.00  0.00     0.153 C 
HETATM   11  H22 UNL     1      25.073   3.220  50.668  1.00  0.00     0.188 HD
ENDROOT
BRANCH   8  12
HETATM   12  C7  UNL     1      23.777   5.322  51.656  1.00  0.00     0.178 C 
BRANCH  12  13
HETATM   13  P1  UNL     1      24.808   5.616  50.163  1.00  0.00    -0.095 P 
HETATM   14  C8  UNL     1      23.701   5.718  48.674  1.00  0.00     0.036 C 
HETATM   15  C9  UNL     1      22.764   6.900  48.771  1.00  0.00     0.007 C 
HETATM   16  C10 UNL     1      23.351   8.013  49.606  1.00  0.00     0.036 C 
HETATM   17  C11 UNL     1      24.812   8.236  49.397  1.00  0.00     0.222 C 
HETATM   18  C12 UNL     1      25.626   7.314  50.270  1.00  0.00     0.071 C 
BRANCH  17  19
HETATM   19  N5  UNL     1      25.235   8.086  48.017  1.00  0.00     0.083 N 
HETATM   20  H18 UNL     1      24.458   8.347  47.363  1.00  0.00     0.313 HD
HETATM   21  H19 UNL     1      26.070   8.697  47.904  1.00  0.00     0.313 HD
ENDBRANCH  17  19
ENDBRANCH  12  13
ENDBRANCH   8  12
BRANCH  10  22
HETATM   22  N7  UNL     1      25.687   1.133  51.930  1.00  0.00    -0.339 N 
HETATM   23  H23 UNL     1      25.805   0.454  51.135  1.00  0.00     0.167 HD
BRANCH  22  24
HETATM   24  C14 UNL     1      26.936   1.099  52.612  1.00  0.00     0.035 A 
HETATM   25  C15 UNL     1      27.667   2.112  53.200  1.00  0.00     0.029 A 
HETATM   26  C16 UNL     1      28.854   1.779  53.805  1.00  0.00     0.004 A 
HETATM   27  C17 UNL     1      29.338   0.491  53.850  1.00  0.00     0.024 A 
HETATM   28  C18 UNL     1      28.615  -0.531  53.264  1.00  0.00     0.036 A 
HETATM   29 CL1  UNL     1      29.289  -2.153  53.353  1.00  0.00    -0.084 Cl
HETATM   30  C19 UNL     1      27.416  -0.218  52.649  1.00  0.00     0.053 A 
ENDBRANCH  22  24
ENDBRANCH  10  22
BRANCH   1  31
HETATM   31  C2  UNL     1      20.110   0.485  53.726  1.00  0.00     0.127 C 
HETATM   32  C1  UNL     1      19.365  -0.418  52.770  1.00  0.00     0.027 C 
ENDBRANCH   1  31
TORSDOF 6
ENDMDL
MODEL 7
REMARK VINA RESULT:      -7.7      3.685      6.807
REMARK  6 active torsions:
REMARK  status: ('A' for Active; 'I' for Inactive)
REMARK    1  A    between atoms: C2_2  and  N1_3 
REMARK    2  A    between atoms: N4_10  and  C7_11 
REMARK    3  A    between atoms: C7_11  and  P1_12 
REMARK    4  A    between atoms: C11_16  and  N5_17 
REMARK    5  A    between atoms: C13_20  and  N7_21 
REMARK    6  A    between atoms: N7_21  and  C14_22 
ROOT
HETATM    1  N1  UNL     1      20.623   4.699  50.971  1.00  0.00    -0.325 N 
HETATM    2  C3  UNL     1      20.773   5.928  50.397  1.00  0.00     0.212 A 
HETATM    3  N2  UNL     1      22.099   6.226  50.406  1.00  0.00    -0.236 NA
HETATM    4  C4  UNL     1      22.723   5.180  50.984  1.00  0.00     0.149 A 
HETATM    5  C5  UNL     1      21.802   4.190  51.354  1.00  0.00     0.160 A 
HETATM    6  N3  UNL     1      21.883   3.038  51.915  1.00  0.00    -0.249 NA
HETATM    7  C6  UNL     1      23.086   2.380  52.371  1.00  0.00     0.293 C 
HETATM    8  N4  UNL     1      24.283   2.723  51.749  1.00  0.00    -0.302 N 
HETATM    9  N6  UNL     1      24.789   3.975  51.809  1.00  0.00    -0.284 N 
HETATM   10  C13 UNL     1      24.046   5.044  51.206  1.00  0.00     0.153 C 
HETATM   11  H22 UNL     1      25.692   4.332  52.247  1.00  0.00     0.188 HD
ENDROOT
BRANCH   8  12
HETATM   12  C7  UNL     1      25.295   1.725  51.901  1.00  0.00     0.178 C 
BRANCH  12  13
HETATM   13  P1  UNL     1      26.016   1.567  53.584  1.00  0.00    -0.095 P 
HETATM   14  C8  UNL     1      25.634  -0.128  54.248  1.00  0.00     0.036 C 
HETATM   15  C9  UNL     1      26.291  -1.201  53.412  1.00  0.00     0.007 C 
HETATM   16  C10 UNL     1      27.544  -0.698  52.737  1.00  0.00     0.036 C 
HETATM   17  C11 UNL     1      28.381   0.204  53.583  1.00  0.00     0.222 C 
HETATM   18  C12 UNL     1      27.900   1.630  53.487  1.00  0.00     0.071 C 
BRANCH  17  19
HETATM   19  N5  UNL     1      28.437  -0.190  54.978  1.00  0.00     0.083 N 
HETATM   20  H18 UNL     1      27.704   0.315  55.533  1.00  0.00     0.313 HD
HETATM   21  H19 UNL     1      28.302  -1.222  54.992  1.00  0.00     0.313 HD
ENDBRANCH  17  19
ENDBRANCH  12  13
ENDBRANCH   8  12
BRANCH  10  22
HETATM   22  N7  UNL     1      24.831   6.171  50.763  1.00  0.00    -0.339 N 
HETATM   23  H23 UNL     1      24.597   7.088  51.224  1.00  0.00     0.167 HD
BRANCH  22  24
HETATM   24  C14 UNL     1      25.884   6.488  49.861  1.00  0.00     0.035 A 
HETATM   25  C15 UNL     1      26.542   5.703  48.934  1.00  0.00     0.029 A 
HETATM   26  C16 UNL     1      27.528   6.288  48.181  1.00  0.00     0.004 A 
HETATM   27  C17 UNL     1      27.885   7.612  48.309  1.00  0.00     0.024 A 
HETATM   28  C18 UNL     1      27.233   8.408  49.233  1.00  0.00     0.036 A 
HETATM   29 CL1  UNL     1      27.736  10.089  49.350  1.00  0.00    -0.084 Cl
HETATM   30  C19 UNL     1      26.236   7.837  50.003  1.00  0.00     0.053 A 
ENDBRANCH  22  24
ENDBRANCH  10  22
BRANCH   1  31
HETATM   31  C2  UNL     1      19.355   4.022  51.149  1.00  0.00     0.127 C 
HETATM   32  C1  UNL     1      18.388   4.560  50.119  1.00  0.00     0.027 C 
ENDBRANCH   1  31
TORSDOF 6
ENDMDL
MODEL 8
REMARK VINA RESULT:      -7.7      2.698      5.987
REMARK  6 active torsions:
REMARK  status: ('A' for Active; 'I' for Inactive)
REMARK    1  A    between atoms: C2_2  and  N1_3 
REMARK    2  A    between atoms: N4_10  and  C7_11 
REMARK    3  A    between atoms: C7_11  and  P1_12 
REMARK    4  A    between atoms: C11_16  and  N5_17 
REMARK    5  A    between atoms: C13_20  and  N7_21 
REMARK    6  A    between atoms: N7_21  and  C14_22 
ROOT
HETATM    1  N1  UNL     1      27.799   0.306  53.537  1.00  0.00    -0.325 N 
HETATM    2  C3  UNL     1      27.258  -0.783  54.158  1.00  0.00     0.212 A 
HETATM    3  N2  UNL     1      25.923  -0.780  53.903  1.00  0.00    -0.236 NA
HETATM    4  C4  UNL     1      25.682   0.306  53.139  1.00  0.00     0.149 A 
HETATM    5  C5  UNL     1      26.864   1.017  52.891  1.00  0.00     0.160 A 
HETATM    6  N3  UNL     1      27.165   2.080  52.239  1.00  0.00    -0.249 NA
HETATM    7  C6  UNL     1      26.257   2.931  51.503  1.00  0.00     0.293 C 
HETATM    8  N4  UNL     1      25.087   2.354  51.016  1.00  0.00    -0.302 N 
HETATM    9  N6  UNL     1      24.146   1.839  51.839  1.00  0.00    -0.284 N 
HETATM   10  C13 UNL     1      24.491   0.708  52.652  1.00  0.00     0.153 C 
HETATM   11  H22 UNL     1      23.136   2.137  52.001  1.00  0.00     0.188 HD
ENDROOT
BRANCH   8  12
HETATM   12  C7  UNL     1      24.512   3.091  49.934  1.00  0.00     0.178 C 
BRANCH  12  13
HETATM   13  P1  UNL     1      24.243   4.883  50.240  1.00  0.00    -0.095 P 
HETATM   14  C8  UNL     1      22.998   5.524  49.018  1.00  0.00     0.036 C 
HETATM   15  C9  UNL     1      21.653   4.863  49.212  1.00  0.00     0.007 C 
HETATM   16  C10 UNL     1      21.450   4.414  50.640  1.00  0.00     0.036 C 
HETATM   17  C11 UNL     1      21.966   5.368  51.666  1.00  0.00     0.222 C 
HETATM   18  C12 UNL     1      23.434   5.135  51.926  1.00  0.00     0.071 C 
BRANCH  17  19
HETATM   19  N5  UNL     1      21.758   6.763  51.324  1.00  0.00     0.083 N 
HETATM   20  H18 UNL     1      22.485   7.366  51.779  1.00  0.00     0.313 HD
HETATM   21  H19 UNL     1      21.794   6.813  50.285  1.00  0.00     0.313 HD
ENDBRANCH  17  19
ENDBRANCH  12  13
ENDBRANCH   8  12
BRANCH  10  22
HETATM   22  N7  UNL     1      23.390  -0.148  53.021  1.00  0.00    -0.339 N 
HETATM   23  H23 UNL     1      23.658  -1.025  53.537  1.00  0.00     0.167 HD
BRANCH  22  24
HETATM   24  C14 UNL     1      21.972  -0.215  52.924  1.00  0.00     0.035 A 
HETATM   25  C15 UNL     1      21.032  -0.708  53.807  1.00  0.00     0.029 A 
HETATM   26  C16 UNL     1      19.709  -0.632  53.446  1.00  0.00     0.004 A 
HETATM   27  C17 UNL     1      19.287  -0.089  52.253  1.00  0.00     0.024 A 
HETATM   28  C18 UNL     1      20.219   0.408  51.361  1.00  0.00     0.036 A 
HETATM   29 CL1  UNL     1      19.616   1.086  49.855  1.00  0.00    -0.084 Cl
HETATM   30  C19 UNL     1      21.557   0.340  51.705  1.00  0.00     0.053 A 
ENDBRANCH  22  24
ENDBRANCH  10  22
BRANCH   1  31
HETATM   31  C2  UNL     1      29.204   0.658  53.568  1.00  0.00     0.127 C 
HETATM   32  C1  UNL     1      30.008  -0.621  53.566  1.00  0.00     0.027 C 
ENDBRANCH   1  31
TORSDOF 6
ENDMDL
MODEL 9
REMARK VINA RESULT:      -7.7      2.938      6.454
REMARK  6 active torsions:
REMARK  status: ('A' for Active; 'I' for Inactive)
REMARK    1  A    between atoms: C2_2  and  N1_3 
REMARK    2  A    between atoms: N4_10  and  C7_11 
REMARK    3  A    between atoms: C7_11  and  P1_12 
REMARK    4  A    between atoms: C11_16  and  N5_17 
REMARK    5  A    between atoms: C13_20  and  N7_21 
REMARK    6  A    between atoms: N7_21  and  C14_22 
ROOT
HETATM    1  N1  UNL     1      26.564   1.485  53.446  1.00  0.00    -0.325 N 
HETATM    2  C3  UNL     1      27.670   1.893  52.757  1.00  0.00     0.212 A 
HETATM    3  N2  UNL     1      27.243   2.487  51.611  1.00  0.00    -0.236 NA
HETATM    4  C4  UNL     1      25.896   2.427  51.626  1.00  0.00     0.149 A 
HETATM    5  C5  UNL     1      25.437   1.791  52.789  1.00  0.00     0.160 A 
HETATM    6  N3  UNL     1      24.283   1.496  53.267  1.00  0.00    -0.249 NA
HETATM    7  C6  UNL     1      22.999   1.770  52.663  1.00  0.00     0.293 C 
HETATM    8  N4  UNL     1      22.919   2.843  51.779  1.00  0.00    -0.302 N 
HETATM    9  N6  UNL     1      23.617   2.870  50.621  1.00  0.00    -0.284 N 
HETATM   10  C13 UNL     1      25.051   2.892  50.685  1.00  0.00     0.153 C 
HETATM   11  H22 UNL     1      23.276   2.881  49.612  1.00  0.00     0.188 HD
ENDROOT
BRANCH   8  12
HETATM   12  C7  UNL     1      21.586   3.332  51.616  1.00  0.00     0.178 C 
BRANCH  12  13
HETATM   13  P1  UNL     1      20.763   2.898  50.031  1.00  0.00    -0.095 P 
HETATM   14  C8  UNL     1      20.587   1.050  49.928  1.00  0.00     0.036 C 
HETATM   15  C9  UNL     1      19.685   0.527  51.022  1.00  0.00     0.007 C 
HETATM   16  C10 UNL     1      18.677   1.561  51.460  1.00  0.00     0.036 C 
HETATM   17  C11 UNL     1      18.102   2.373  50.347  1.00  0.00     0.222 C 
HETATM   18  C12 UNL     1      18.991   3.549  50.026  1.00  0.00     0.071 C 
BRANCH  17  19
HETATM   19  N5  UNL     1      17.858   1.613  49.135  1.00  0.00     0.083 N 
HETATM   20  H18 UNL     1      18.100   2.183  48.288  1.00  0.00     0.313 HD
HETATM   21  H19 UNL     1      18.439   0.753  49.213  1.00  0.00     0.313 HD
ENDBRANCH  17  19
ENDBRANCH  12  13
ENDBRANCH   8  12
BRANCH  10  22
HETATM   22  N7  UNL     1      25.712   3.507  49.560  1.00  0.00    -0.339 N 
HETATM   23  H23 UNL     1      25.979   2.848  48.784  1.00  0.00     0.167 HD
BRANCH  22  24
HETATM   24  C14 UNL     1      26.152   4.783  49.108  1.00  0.00     0.035 A 
HETATM   25  C15 UNL     1      25.469   5.976  48.979  1.00  0.00     0.029 A 
HETATM   26  C16 UNL     1      26.164   7.067  48.519  1.00  0.00     0.004 A 
HETATM   27  C17 UNL     1      27.499   7.020  48.184  1.00  0.00     0.024 A 
HETATM   28  C18 UNL     1      28.193   5.830  48.309  1.00  0.00     0.036 A 
HETATM   29 CL1  UNL     1      29.894   5.836  47.864  1.00  0.00    -0.084 Cl
HETATM   30  C19 UNL     1      27.511   4.719  48.772  1.00  0.00     0.053 A 
ENDBRANCH  22  24
ENDBRANCH  10  22
BRANCH   1  31
HETATM   31  C2  UNL     1      26.595   0.806  54.725  1.00  0.00     0.127 C 
HETATM   32  C1  UNL     1      27.937   0.124  54.861  1.00  0.00     0.027 C 
ENDBRANCH   1  31
TORSDOF 6
ENDMDL
