MODEL 1
REMARK VINA RESULT:      -9.2      0.000      0.000
REMARK  8 active torsions:
REMARK  status: ('A' for Active; 'I' for Inactive)
REMARK    1  A    between atoms: O1_1  and  C1_2 
REMARK    2  A    between atoms: C1_2  and  C2_3 
REMARK    3  A    between atoms: C1_2  and  C18_24 
REMARK    4  A    between atoms: C2_3  and  O2_4 
REMARK    5  A    between atoms: O2_4  and  C3_5 
REMARK    6  A    between atoms: C3_5  and  C4_6 
REMARK    7  A    between atoms: C4_6  and  N2_11 
REMARK    8  A    between atoms: C18_24  and  N3_25 
ROOT
HETATM    1  C3  UNL     1      23.610   1.292  52.692  1.00  0.00     0.122 A 
HETATM    2  C4  UNL     1      22.921   0.218  53.389  1.00  0.00     0.131 A 
HETATM    3  C5  UNL     1      21.934  -0.778  54.058  1.00  0.00     0.089 A 
HETATM    4  C6  UNL     1      20.702  -0.495  53.584  1.00  0.00     0.092 A 
HETATM    5  N1  UNL     1      21.055  -1.557  54.361  1.00  0.00    -0.263 NA
HETATM    6  C7  UNL     1      22.273  -1.822  54.827  1.00  0.00     0.163 A 
HETATM    7  N2  UNL     1      22.673  -0.793  54.245  1.00  0.00    -0.272 NA
HETATM    8  C8  UNL     1      22.114   0.227  53.439  1.00  0.00     0.073 A 
HETATM    9  C9  UNL     1      22.236   1.327  52.768  1.00  0.00     0.093 A 
HETATM   10  C10 UNL     1      22.895   2.280  52.140  1.00  0.00     0.137 A 
HETATM   11  O3  UNL     1      22.118   3.364  51.534  1.00  0.00    -0.369 OA
HETATM   12  C11 UNL     1      20.797   3.011  50.976  1.00  0.00     0.198 C 
HETATM   13  C12 UNL     1      19.842   2.500  51.954  1.00  0.00     0.024 C 
HETATM   14  C13 UNL     1      19.474   1.184  51.586  1.00  0.00     0.043 C 
HETATM   15 CL1  UNL     1      20.143   0.437  50.119  1.00  0.00    -0.084 Cl
HETATM   16  C14 UNL     1      18.717   0.117  52.291  1.00  0.00    -0.006 A 
HETATM   17  C15 UNL     1      17.544  -0.432  52.366  1.00  0.00     0.014 A 
HETATM   18  C16 UNL     1      18.065  -1.308  53.368  1.00  0.00     0.011 A 
HETATM   19  C17 UNL     1      19.272  -0.800  53.342  1.00  0.00    -0.019 A 
ENDROOT
BRANCH   1  20
HETATM   20  O2  UNL     1      24.887   1.623  52.396  1.00  0.00    -0.372 OA
BRANCH  20  21
HETATM   21  C2  UNL     1      25.512   2.651  53.190  1.00  0.00     0.202 C 
BRANCH  21  22
HETATM   22  C1  UNL     1      26.675   2.016  53.969  1.00  0.00     0.159 C 
BRANCH  22  23
HETATM   23  O1  UNL     1      27.690   2.989  54.117  1.00  0.00    -0.392 OA
HETATM   24  H1  UNL     1      27.306   3.860  54.353  1.00  0.00     0.210 HD
ENDBRANCH  22  23
BRANCH  22  25
HETATM   25  C18 UNL     1      27.273   0.959  53.077  1.00  0.00     0.150 C 
BRANCH  25  26
HETATM   26  N3  UNL     1      27.406  -0.258  53.780  1.00  0.00    -0.406 N 
HETATM   27  C19 UNL     1      26.544  -1.332  53.465  1.00  0.00     0.143 C 
HETATM   28  C20 UNL     1      27.134  -2.244  52.397  1.00  0.00     0.187 C 
HETATM   29  O4  UNL     1      28.226  -2.865  53.048  1.00  0.00    -0.388 OA
HETATM   30  C21 UNL     1      29.173  -1.890  53.227  1.00  0.00     0.187 C 
HETATM   31  C22 UNL     1      28.758  -0.681  53.977  1.00  0.00     0.143 C 
ENDBRANCH  25  26
ENDBRANCH  22  25
ENDBRANCH  21  22
ENDBRANCH  20  21
ENDBRANCH   1  20
TORSDOF 8
ENDMDL
MODEL 2
REMARK VINA RESULT:      -8.9      1.881      2.961
REMARK  8 active torsions:
REMARK  status: ('A' for Active; 'I' for Inactive)
REMARK    1  A    between atoms: O1_1  and  C1_2 
REMARK    2  A    between atoms: C1_2  and  C2_3 
REMARK    3  A    between atoms: C1_2  and  C18_24 
REMARK    4  A    between atoms: C2_3  and  O2_4 
REMARK    5  A    between atoms: O2_4  and  C3_5 
REMARK    6  A    between atoms: C3_5  and  C4_6 
REMARK    7  A    between atoms: C4_6  and  N2_11 
REMARK    8  A    between atoms: C18_24  and  N3_25 
ROOT
HETATM    1  C3  UNL     1      23.817   0.956  52.103  1.00  0.00     0.122 A 
HETATM    2  C4  UNL     1      22.653   1.090  51.243  1.00  0.00     0.131 A 
HETATM    3  C5  UNL     1      21.290   1.017  50.499  1.00  0.00     0.089 A 
HETATM    4  C6  UNL     1      20.439   0.337  51.296  1.00  0.00     0.092 A 
HETATM    5  N1  UNL     1      20.132   0.991  50.142  1.00  0.00    -0.263 NA
HETATM    6  C7  UNL     1      20.982   1.653  49.360  1.00  0.00     0.163 A 
HETATM    7  N2  UNL     1      21.888   1.350  50.163  1.00  0.00    -0.272 NA
HETATM    8  C8  UNL     1      22.003   0.627  51.374  1.00  0.00     0.073 A 
HETATM    9  C9  UNL     1      22.722   0.158  52.343  1.00  0.00     0.093 A 
HETATM   10  C10 UNL     1      23.794   0.069  53.105  1.00  0.00     0.137 A 
HETATM   11  O3  UNL     1      23.773  -0.900  54.202  1.00  0.00    -0.369 OA
HETATM   12  C11 UNL     1      22.478  -1.126  54.875  1.00  0.00     0.198 C 
HETATM   13  C12 UNL     1      21.432  -1.665  54.011  1.00  0.00     0.024 C 
HETATM   14  C13 UNL     1      20.357  -0.745  53.968  1.00  0.00     0.043 C 
HETATM   15 CL1  UNL     1      20.426   0.765  54.902  1.00  0.00    -0.084 Cl
HETATM   16  C14 UNL     1      19.143  -0.657  53.118  1.00  0.00    -0.006 A 
HETATM   17  C15 UNL     1      17.871  -0.916  53.112  1.00  0.00     0.014 A 
HETATM   18  C16 UNL     1      17.815  -0.400  51.780  1.00  0.00     0.011 A 
HETATM   19  C17 UNL     1      19.091  -0.112  51.720  1.00  0.00    -0.019 A 
ENDROOT
BRANCH   1  20
HETATM   20  O2  UNL     1      25.040   1.523  52.212  1.00  0.00    -0.372 OA
BRANCH  20  21
HETATM   21  C2  UNL     1      25.277   2.388  53.339  1.00  0.00     0.202 C 
BRANCH  21  22
HETATM   22  C1  UNL     1      26.551   1.907  54.055  1.00  0.00     0.159 C 
BRANCH  22  23
HETATM   23  O1  UNL     1      27.463   2.986  54.106  1.00  0.00    -0.392 OA
HETATM   24  H1  UNL     1      27.084   3.738  54.609  1.00  0.00     0.210 HD
ENDBRANCH  22  23
BRANCH  22  25
HETATM   25  C18 UNL     1      27.199   0.888  53.155  1.00  0.00     0.150 C 
BRANCH  25  26
HETATM   26  N3  UNL     1      27.534  -0.272  53.887  1.00  0.00    -0.406 N 
HETATM   27  C19 UNL     1      26.914  -1.497  53.558  1.00  0.00     0.143 C 
HETATM   28  C20 UNL     1      27.719  -2.289  52.535  1.00  0.00     0.187 C 
HETATM   29  O4  UNL     1      28.880  -2.676  53.246  1.00  0.00    -0.388 OA
HETATM   30  C21 UNL     1      29.609  -1.532  53.446  1.00  0.00     0.187 C 
HETATM   31  C22 UNL     1      28.931  -0.419  54.153  1.00  0.00     0.143 C 
ENDBRANCH  25  26
ENDBRANCH  22  25
ENDBRANCH  21  22
ENDBRANCH  20  21
ENDBRANCH   1  20
TORSDOF 8
ENDMDL
MODEL 3
REMARK VINA RESULT:      -8.8      1.281      1.658
REMARK  8 active torsions:
REMARK  status: ('A' for Active; 'I' for Inactive)
REMARK    1  A    between atoms: O1_1  and  C1_2 
REMARK    2  A    between atoms: C1_2  and  C2_3 
REMARK    3  A    between atoms: C1_2  and  C18_24 
REMARK    4  A    between atoms: C2_3  and  O2_4 
REMARK    5  A    between atoms: O2_4  and  C3_5 
REMARK    6  A    between atoms: C3_5  and  C4_6 
REMARK    7  A    between atoms: C4_6  and  N2_11 
REMARK    8  A    between atoms: C18_24  and  N3_25 
ROOT
HETATM    1  C3  UNL     1      22.971   2.422  52.513  1.00  0.00     0.122 A 
HETATM    2  C4  UNL     1      22.504   1.190  53.126  1.00  0.00     0.131 A 
HETATM    3  C5  UNL     1      21.728  -0.025  53.707  1.00  0.00     0.089 A 
HETATM    4  C6  UNL     1      20.474   0.031  53.211  1.00  0.00     0.092 A 
HETATM    5  N1  UNL     1      21.022  -0.983  53.938  1.00  0.00    -0.263 NA
HETATM    6  C7  UNL     1      22.259  -1.023  54.427  1.00  0.00     0.163 A 
HETATM    7  N2  UNL     1      22.451   0.099  53.916  1.00  0.00    -0.272 NA
HETATM    8  C8  UNL     1      21.711   1.031  53.152  1.00  0.00     0.073 A 
HETATM    9  C9  UNL     1      21.618   2.173  52.547  1.00  0.00     0.093 A 
HETATM   10  C10 UNL     1      22.080   3.277  51.995  1.00  0.00     0.137 A 
HETATM   11  O3  UNL     1      21.109   4.215  51.428  1.00  0.00    -0.369 OA
HETATM   12  C11 UNL     1      19.899   3.636  50.809  1.00  0.00     0.198 C 
HETATM   13  C12 UNL     1      19.050   2.883  51.727  1.00  0.00     0.024 C 
HETATM   14  C13 UNL     1      18.966   1.544  51.274  1.00  0.00     0.043 C 
HETATM   15 CL1  UNL     1      19.802   1.040  49.789  1.00  0.00    -0.084 Cl
HETATM   16  C14 UNL     1      18.431   0.305  51.894  1.00  0.00    -0.006 A 
HETATM   17  C15 UNL     1      17.394  -0.476  51.901  1.00  0.00     0.014 A 
HETATM   18  C16 UNL     1      18.064  -1.287  52.868  1.00  0.00     0.011 A 
HETATM   19  C17 UNL     1      19.141  -0.543  52.908  1.00  0.00    -0.019 A 
ENDROOT
BRANCH   1  20
HETATM   20  O2  UNL     1      24.159   3.024  52.276  1.00  0.00    -0.372 OA
BRANCH  20  21
HETATM   21  C2  UNL     1      25.075   2.365  51.380  1.00  0.00     0.202 C 
BRANCH  21  22
HETATM   22  C1  UNL     1      26.295   1.903  52.195  1.00  0.00     0.159 C 
BRANCH  22  23
HETATM   23  O1  UNL     1      27.370   2.778  51.913  1.00  0.00    -0.392 OA
HETATM   24  H1  UNL     1      27.109   3.447  51.245  1.00  0.00     0.210 HD
ENDBRANCH  22  23
BRANCH  22  25
HETATM   25  C18 UNL     1      26.716   0.571  51.634  1.00  0.00     0.150 C 
BRANCH  25  26
HETATM   26  N3  UNL     1      26.834  -0.383  52.669  1.00  0.00    -0.406 N 
HETATM   27  C19 UNL     1      28.119  -0.816  53.062  1.00  0.00     0.143 C 
HETATM   28  C20 UNL     1      28.684   0.028  54.198  1.00  0.00     0.187 C 
HETATM   29  O4  UNL     1      27.863  -0.301  55.303  1.00  0.00    -0.388 OA
HETATM   30  C21 UNL     1      26.633   0.250  55.046  1.00  0.00     0.187 C 
HETATM   31  C22 UNL     1      25.968  -0.154  53.784  1.00  0.00     0.143 C 
ENDBRANCH  25  26
ENDBRANCH  22  25
ENDBRANCH  21  22
ENDBRANCH  20  21
ENDBRANCH   1  20
TORSDOF 8
ENDMDL
MODEL 4
REMARK VINA RESULT:      -8.6      4.800      6.671
REMARK  8 active torsions:
REMARK  status: ('A' for Active; 'I' for Inactive)
REMARK    1  A    between atoms: O1_1  and  C1_2 
REMARK    2  A    between atoms: C1_2  and  C2_3 
REMARK    3  A    between atoms: C1_2  and  C18_24 
REMARK    4  A    between atoms: C2_3  and  O2_4 
REMARK    5  A    between atoms: O2_4  and  C3_5 
REMARK    6  A    between atoms: C3_5  and  C4_6 
REMARK    7  A    between atoms: C4_6  and  N2_11 
REMARK    8  A    between atoms: C18_24  and  N3_25 
ROOT
HETATM    1  C3  UNL     1      26.385   2.825  50.769  1.00  0.00     0.122 A 
HETATM    2  C4  UNL     1      26.413   1.583  51.525  1.00  0.00     0.131 A 
HETATM    3  C5  UNL     1      26.174   0.349  52.439  1.00  0.00     0.089 A 
HETATM    4  C6  UNL     1      24.869   0.359  52.786  1.00  0.00     0.092 A 
HETATM    5  N1  UNL     1      25.773  -0.629  53.034  1.00  0.00    -0.263 NA
HETATM    6  C7  UNL     1      27.060  -0.624  52.691  1.00  0.00     0.163 A 
HETATM    7  N2  UNL     1      26.875   0.499  52.180  1.00  0.00    -0.272 NA
HETATM    8  C8  UNL     1      25.795   1.399  52.015  1.00  0.00     0.073 A 
HETATM    9  C9  UNL     1      25.325   2.531  51.597  1.00  0.00     0.093 A 
HETATM   10  C10 UNL     1      25.333   3.644  50.891  1.00  0.00     0.137 A 
HETATM   11  O3  UNL     1      24.186   4.544  51.022  1.00  0.00    -0.369 OA
HETATM   12  C11 UNL     1      22.864   3.920  51.235  1.00  0.00     0.198 C 
HETATM   13  C12 UNL     1      22.751   3.148  52.469  1.00  0.00     0.024 C 
HETATM   14  C13 UNL     1      22.458   1.803  52.139  1.00  0.00     0.043 C 
HETATM   15 CL1  UNL     1      22.264   1.312  50.442  1.00  0.00    -0.084 Cl
HETATM   16  C14 UNL     1      22.435   0.553  52.941  1.00  0.00    -0.006 A 
HETATM   17  C15 UNL     1      21.631  -0.261  53.554  1.00  0.00     0.014 A 
HETATM   18  C16 UNL     1      22.770  -1.040  53.924  1.00  0.00     0.011 A 
HETATM   19  C17 UNL     1      23.636  -0.262  53.326  1.00  0.00    -0.019 A 
ENDROOT
BRANCH   1  20
HETATM   20  O2  UNL     1      27.180   3.463  49.880  1.00  0.00    -0.372 OA
BRANCH  20  21
HETATM   21  C2  UNL     1      26.559   4.407  48.986  1.00  0.00     0.202 C 
BRANCH  21  22
HETATM   22  C1  UNL     1      27.642   5.380  48.489  1.00  0.00     0.159 C 
BRANCH  22  23
HETATM   23  O1  UNL     1      28.808   5.173  49.261  1.00  0.00    -0.392 OA
HETATM   24  H1  UNL     1      29.569   4.938  48.688  1.00  0.00     0.210 HD
ENDBRANCH  22  23
BRANCH  22  25
HETATM   25  C18 UNL     1      27.178   6.768  48.843  1.00  0.00     0.150 C 
BRANCH  25  26
HETATM   26  N3  UNL     1      28.133   7.724  48.433  1.00  0.00    -0.406 N 
HETATM   27  C19 UNL     1      28.244   8.041  47.061  1.00  0.00     0.143 C 
HETATM   28  C20 UNL     1      27.358   9.218  46.673  1.00  0.00     0.187 C 
HETATM   29  O4  UNL     1      27.957  10.322  47.326  1.00  0.00    -0.388 OA
HETATM   30  C21 UNL     1      27.727  10.147  48.667  1.00  0.00     0.187 C 
HETATM   31  C22 UNL     1      28.207   8.881  49.271  1.00  0.00     0.143 C 
ENDBRANCH  25  26
ENDBRANCH  22  25
ENDBRANCH  21  22
ENDBRANCH  20  21
ENDBRANCH   1  20
TORSDOF 8
ENDMDL
MODEL 5
REMARK VINA RESULT:      -8.6      5.006      7.457
REMARK  8 active torsions:
REMARK  status: ('A' for Active; 'I' for Inactive)
REMARK    1  A    between atoms: O1_1  and  C1_2 
REMARK    2  A    between atoms: C1_2  and  C2_3 
REMARK    3  A    between atoms: C1_2  and  C18_24 
REMARK    4  A    between atoms: C2_3  and  O2_4 
REMARK    5  A    between atoms: O2_4  and  C3_5 
REMARK    6  A    between atoms: C3_5  and  C4_6 
REMARK    7  A    between atoms: C4_6  and  N2_11 
REMARK    8  A    between atoms: C18_24  and  N3_25 
ROOT
HETATM    1  C3  UNL     1      26.297   3.437  50.046  1.00  0.00     0.122 A 
HETATM    2  C4  UNL     1      27.183   4.343  49.332  1.00  0.00     0.131 A 
HETATM    3  C5  UNL     1      27.872   5.438  48.471  1.00  0.00     0.089 A 
HETATM    4  C6  UNL     1      26.930   6.357  48.171  1.00  0.00     0.092 A 
HETATM    5  N1  UNL     1      28.268   6.446  47.926  1.00  0.00    -0.263 NA
HETATM    6  C7  UNL     1      29.186   5.528  48.222  1.00  0.00     0.163 A 
HETATM    7  N2  UNL     1      28.270   4.829  48.700  1.00  0.00    -0.272 NA
HETATM    8  C8  UNL     1      26.869   4.929  48.871  1.00  0.00     0.073 A 
HETATM    9  C9  UNL     1      25.742   4.426  49.266  1.00  0.00     0.093 A 
HETATM   10  C10 UNL     1      24.972   3.590  49.932  1.00  0.00     0.137 A 
HETATM   11  O3  UNL     1      23.522   3.753  49.811  1.00  0.00    -0.369 OA
HETATM   12  C11 UNL     1      23.011   5.131  49.666  1.00  0.00     0.198 C 
HETATM   13  C12 UNL     1      23.467   5.823  48.464  1.00  0.00     0.024 C 
HETATM   14  C13 UNL     1      24.197   6.973  48.851  1.00  0.00     0.043 C 
HETATM   15 CL1  UNL     1      24.402   7.375  50.570  1.00  0.00    -0.084 Cl
HETATM   16  C14 UNL     1      25.052   7.923  48.094  1.00  0.00    -0.006 A 
HETATM   17  C15 UNL     1      25.044   9.096  47.539  1.00  0.00     0.014 A 
HETATM   18  C16 UNL     1      26.403   8.878  47.156  1.00  0.00     0.011 A 
HETATM   19  C17 UNL     1      26.480   7.688  47.696  1.00  0.00    -0.019 A 
ENDROOT
BRANCH   1  20
HETATM   20  O2  UNL     1      26.422   2.382  50.883  1.00  0.00    -0.372 OA
BRANCH  20  21
HETATM   21  C2  UNL     1      25.241   1.939  51.580  1.00  0.00     0.202 C 
BRANCH  21  22
HETATM   22  C1  UNL     1      25.533   1.977  53.089  1.00  0.00     0.159 C 
BRANCH  22  23
HETATM   23  O1  UNL     1      25.103   3.228  53.590  1.00  0.00    -0.392 OA
HETATM   24  H1  UNL     1      24.494   3.108  54.350  1.00  0.00     0.210 HD
ENDBRANCH  22  23
BRANCH  22  25
HETATM   25  C18 UNL     1      27.031   1.986  53.245  1.00  0.00     0.150 C 
BRANCH  25  26
HETATM   26  N3  UNL     1      27.441   0.945  54.106  1.00  0.00    -0.406 N 
HETATM   27  C19 UNL     1      26.849  -0.330  53.975  1.00  0.00     0.143 C 
HETATM   28  C20 UNL     1      27.631  -1.229  53.026  1.00  0.00     0.187 C 
HETATM   29  O4  UNL     1      28.837  -1.485  53.720  1.00  0.00    -0.388 OA
HETATM   30  C21 UNL     1      29.535  -0.304  53.727  1.00  0.00     0.187 C 
HETATM   31  C22 UNL     1      28.854   0.874  54.315  1.00  0.00     0.143 C 
ENDBRANCH  25  26
ENDBRANCH  22  25
ENDBRANCH  21  22
ENDBRANCH  20  21
ENDBRANCH   1  20
TORSDOF 8
ENDMDL
MODEL 6
REMARK VINA RESULT:      -8.6      4.057      6.275
REMARK  8 active torsions:
REMARK  status: ('A' for Active; 'I' for Inactive)
REMARK    1  A    between atoms: O1_1  and  C1_2 
REMARK    2  A    between atoms: C1_2  and  C2_3 
REMARK    3  A    between atoms: C1_2  and  C18_24 
REMARK    4  A    between atoms: C2_3  and  O2_4 
REMARK    5  A    between atoms: O2_4  and  C3_5 
REMARK    6  A    between atoms: C3_5  and  C4_6 
REMARK    7  A    between atoms: C4_6  and  N2_11 
REMARK    8  A    between atoms: C18_24  and  N3_25 
ROOT
HETATM    1  C3  UNL     1      26.358   2.791  50.858  1.00  0.00     0.122 A 
HETATM    2  C4  UNL     1      26.348   1.534  51.588  1.00  0.00     0.131 A 
HETATM    3  C5  UNL     1      26.066   0.283  52.467  1.00  0.00     0.089 A 
HETATM    4  C6  UNL     1      24.750   0.297  52.766  1.00  0.00     0.092 A 
HETATM    5  N1  UNL     1      25.637  -0.703  53.025  1.00  0.00    -0.263 NA
HETATM    6  C7  UNL     1      26.935  -0.702  52.730  1.00  0.00     0.163 A 
HETATM    7  N2  UNL     1      26.778   0.433  52.236  1.00  0.00    -0.272 NA
HETATM    8  C8  UNL     1      25.712   1.345  52.051  1.00  0.00     0.073 A 
HETATM    9  C9  UNL     1      25.266   2.490  51.641  1.00  0.00     0.093 A 
HETATM   10  C10 UNL     1      25.309   3.617  50.959  1.00  0.00     0.137 A 
HETATM   11  O3  UNL     1      24.164   4.524  51.067  1.00  0.00    -0.369 OA
HETATM   12  C11 UNL     1      22.831   3.907  51.220  1.00  0.00     0.198 C 
HETATM   13  C12 UNL     1      22.667   3.111  52.432  1.00  0.00     0.024 C 
HETATM   14  C13 UNL     1      22.375   1.775  52.063  1.00  0.00     0.043 C 
HETATM   15 CL1  UNL     1      22.240   1.322  50.350  1.00  0.00    -0.084 Cl
HETATM   16  C14 UNL     1      22.314   0.509  52.837  1.00  0.00    -0.006 A 
HETATM   17  C15 UNL     1      21.481  -0.311  53.403  1.00  0.00     0.014 A 
HETATM   18  C16 UNL     1      22.600  -1.107  53.798  1.00  0.00     0.011 A 
HETATM   19  C17 UNL     1      23.493  -0.324  53.248  1.00  0.00    -0.019 A 
ENDROOT
BRANCH   1  20
HETATM   20  O2  UNL     1      27.189   3.441  50.013  1.00  0.00    -0.372 OA
BRANCH  20  21
HETATM   21  C2  UNL     1      26.615   4.436  49.143  1.00  0.00     0.202 C 
BRANCH  21  22
HETATM   22  C1  UNL     1      27.764   5.191  48.453  1.00  0.00     0.159 C 
BRANCH  22  23
HETATM   23  O1  UNL     1      28.909   5.100  49.278  1.00  0.00    -0.392 OA
HETATM   24  H1  UNL     1      29.016   5.913  49.816  1.00  0.00     0.210 HD
ENDBRANCH  22  23
BRANCH  22  25
HETATM   25  C18 UNL     1      27.392   6.651  48.458  1.00  0.00     0.150 C 
BRANCH  25  26
HETATM   26  N3  UNL     1      26.073   6.819  48.934  1.00  0.00    -0.406 N 
HETATM   27  C19 UNL     1      25.861   7.524  50.140  1.00  0.00     0.143 C 
HETATM   28  C20 UNL     1      25.633   9.011  49.901  1.00  0.00     0.187 C 
HETATM   29  O4  UNL     1      24.375   9.059  49.254  1.00  0.00    -0.388 OA
HETATM   30  C21 UNL     1      24.566   8.536  48.001  1.00  0.00     0.187 C 
HETATM   31  C22 UNL     1      25.121   7.163  47.924  1.00  0.00     0.143 C 
ENDBRANCH  25  26
ENDBRANCH  22  25
ENDBRANCH  21  22
ENDBRANCH  20  21
ENDBRANCH   1  20
TORSDOF 8
ENDMDL
MODEL 7
REMARK VINA RESULT:      -8.4      4.022      5.861
REMARK  8 active torsions:
REMARK  status: ('A' for Active; 'I' for Inactive)
REMARK    1  A    between atoms: O1_1  and  C1_2 
REMARK    2  A    between atoms: C1_2  and  C2_3 
REMARK    3  A    between atoms: C1_2  and  C18_24 
REMARK    4  A    between atoms: C2_3  and  O2_4 
REMARK    5  A    between atoms: O2_4  and  C3_5 
REMARK    6  A    between atoms: C3_5  and  C4_6 
REMARK    7  A    between atoms: C4_6  and  N2_11 
REMARK    8  A    between atoms: C18_24  and  N3_25 
ROOT
HETATM    1  C3  UNL     1      24.425   2.742  50.843  1.00  0.00     0.122 A 
HETATM    2  C4  UNL     1      24.781   1.630  51.709  1.00  0.00     0.131 A 
HETATM    3  C5  UNL     1      24.882   0.476  52.746  1.00  0.00     0.089 A 
HETATM    4  C6  UNL     1      23.626   0.207  53.163  1.00  0.00     0.092 A 
HETATM    5  N1  UNL     1      24.753  -0.503  53.450  1.00  0.00    -0.263 NA
HETATM    6  C7  UNL     1      25.987  -0.223  53.037  1.00  0.00     0.163 A 
HETATM    7  N2  UNL     1      25.516   0.763  52.434  1.00  0.00    -0.272 NA
HETATM    8  C8  UNL     1      24.244   1.354  52.248  1.00  0.00     0.073 A 
HETATM    9  C9  UNL     1      23.497   2.290  51.754  1.00  0.00     0.093 A 
HETATM   10  C10 UNL     1      23.208   3.292  50.948  1.00  0.00     0.137 A 
HETATM   11  O3  UNL     1      21.880   3.897  51.059  1.00  0.00    -0.369 OA
HETATM   12  C11 UNL     1      20.759   2.998  51.404  1.00  0.00     0.198 C 
HETATM   13  C12 UNL     1      20.879   2.354  52.709  1.00  0.00     0.024 C 
HETATM   14  C13 UNL     1      20.915   0.951  52.522  1.00  0.00     0.043 C 
HETATM   15 CL1  UNL     1      20.793   0.255  50.892  1.00  0.00    -0.084 Cl
HETATM   16  C14 UNL     1      21.226  -0.177  53.437  1.00  0.00    -0.006 A 
HETATM   17  C15 UNL     1      20.666  -1.093  54.167  1.00  0.00     0.014 A 
HETATM   18  C16 UNL     1      21.973  -1.531  54.544  1.00  0.00     0.011 A 
HETATM   19  C17 UNL     1      22.601  -0.633  53.827  1.00  0.00    -0.019 A 
ENDROOT
BRANCH   1  20
HETATM   20  O2  UNL     1      25.009   3.457  49.856  1.00  0.00    -0.372 OA
BRANCH  20  21
HETATM   21  C2  UNL     1      26.446   3.408  49.756  1.00  0.00     0.202 C 
BRANCH  21  22
HETATM   22  C1  UNL     1      26.913   4.631  48.950  1.00  0.00     0.159 C 
BRANCH  22  23
HETATM   23  O1  UNL     1      28.238   4.937  49.340  1.00  0.00    -0.392 OA
HETATM   24  H1  UNL     1      28.644   5.579  48.720  1.00  0.00     0.210 HD
ENDBRANCH  22  23
BRANCH  22  25
HETATM   25  C18 UNL     1      26.088   5.802  49.414  1.00  0.00     0.150 C 
BRANCH  25  26
HETATM   26  N3  UNL     1      26.711   7.016  49.054  1.00  0.00    -0.406 N 
HETATM   27  C19 UNL     1      26.675   7.434  47.705  1.00  0.00     0.143 C 
HETATM   28  C20 UNL     1      25.475   8.326  47.415  1.00  0.00     0.187 C 
HETATM   29  O4  UNL     1      25.755   9.514  48.131  1.00  0.00    -0.388 OA
HETATM   30  C21 UNL     1      25.635   9.199  49.460  1.00  0.00     0.187 C 
HETATM   31  C22 UNL     1      26.481   8.092  49.967  1.00  0.00     0.143 C 
ENDBRANCH  25  26
ENDBRANCH  22  25
ENDBRANCH  21  22
ENDBRANCH  20  21
ENDBRANCH   1  20
TORSDOF 8
ENDMDL
MODEL 8
REMARK VINA RESULT:      -8.3      3.643      6.445
REMARK  8 active torsions:
REMARK  status: ('A' for Active; 'I' for Inactive)
REMARK    1  A    between atoms: O1_1  and  C1_2 
REMARK    2  A    between atoms: C1_2  and  C2_3 
REMARK    3  A    between atoms: C1_2  and  C18_24 
REMARK    4  A    between atoms: C2_3  and  O2_4 
REMARK    5  A    between atoms: O2_4  and  C3_5 
REMARK    6  A    between atoms: C3_5  and  C4_6 
REMARK    7  A    between atoms: C4_6  and  N2_11 
REMARK    8  A    between atoms: C18_24  and  N3_25 
ROOT
HETATM    1  C3  UNL     1      25.812   2.413  51.389  1.00  0.00     0.122 A 
HETATM    2  C4  UNL     1      24.410   2.320  51.764  1.00  0.00     0.131 A 
HETATM    3  C5  UNL     1      22.986   1.943  52.258  1.00  0.00     0.089 A 
HETATM    4  C6  UNL     1      23.114   0.845  53.034  1.00  0.00     0.092 A 
HETATM    5  N1  UNL     1      21.989   1.593  52.853  1.00  0.00    -0.263 NA
HETATM    6  C7  UNL     1      21.875   2.671  52.080  1.00  0.00     0.163 A 
HETATM    7  N2  UNL     1      23.079   2.532  51.783  1.00  0.00    -0.272 NA
HETATM    8  C8  UNL     1      24.131   1.641  52.103  1.00  0.00     0.073 A 
HETATM    9  C9  UNL     1      25.357   1.248  51.964  1.00  0.00     0.093 A 
HETATM   10  C10 UNL     1      26.623   1.372  51.617  1.00  0.00     0.137 A 
HETATM   11  O3  UNL     1      27.513   0.236  51.863  1.00  0.00    -0.369 OA
HETATM   12  C11 UNL     1      27.246  -0.577  53.067  1.00  0.00     0.198 C 
HETATM   13  C12 UNL     1      25.945  -1.239  53.076  1.00  0.00     0.024 C 
HETATM   14  C13 UNL     1      25.204  -0.772  54.188  1.00  0.00     0.043 C 
HETATM   15 CL1  UNL     1      25.910   0.412  55.309  1.00  0.00    -0.084 Cl
HETATM   16  C14 UNL     1      23.781  -0.926  54.584  1.00  0.00    -0.006 A 
HETATM   17  C15 UNL     1      22.999  -1.608  55.364  1.00  0.00     0.014 A 
HETATM   18  C16 UNL     1      21.899  -0.856  54.847  1.00  0.00     0.011 A 
HETATM   19  C17 UNL     1      22.630  -0.132  54.037  1.00  0.00    -0.019 A 
ENDROOT
BRANCH   1  20
HETATM   20  O2  UNL     1      26.631   3.333  50.831  1.00  0.00    -0.372 OA
BRANCH  20  21
HETATM   21  C2  UNL     1      26.624   3.449  49.394  1.00  0.00     0.202 C 
BRANCH  21  22
HETATM   22  C1  UNL     1      26.462   4.935  49.034  1.00  0.00     0.159 C 
BRANCH  22  23
HETATM   23  O1  UNL     1      27.706   5.577  49.239  1.00  0.00    -0.392 OA
HETATM   24  H1  UNL     1      28.395   5.195  48.655  1.00  0.00     0.210 HD
ENDBRANCH  22  23
BRANCH  22  25
HETATM   25  C18 UNL     1      25.537   5.536  50.059  1.00  0.00     0.150 C 
BRANCH  25  26
HETATM   26  N3  UNL     1      24.377   6.046  49.436  1.00  0.00    -0.406 N 
HETATM   27  C19 UNL     1      23.117   5.514  49.786  1.00  0.00     0.143 C 
HETATM   28  C20 UNL     1      22.467   6.289  50.926  1.00  0.00     0.187 C 
HETATM   29  O4  UNL     1      22.157   7.543  50.348  1.00  0.00    -0.388 OA
HETATM   30  C21 UNL     1      23.355   8.178  50.141  1.00  0.00     0.187 C 
HETATM   31  C22 UNL     1      24.355   7.470  49.307  1.00  0.00     0.143 C 
ENDBRANCH  25  26
ENDBRANCH  22  25
ENDBRANCH  21  22
ENDBRANCH  20  21
ENDBRANCH   1  20
TORSDOF 8
ENDMDL
MODEL 9
REMARK VINA RESULT:      -8.2      3.845      7.038
REMARK  8 active torsions:
REMARK  status: ('A' for Active; 'I' for Inactive)
REMARK    1  A    between atoms: O1_1  and  C1_2 
REMARK    2  A    between atoms: C1_2  and  C2_3 
REMARK    3  A    between atoms: C1_2  and  C18_24 
REMARK    4  A    between atoms: C2_3  and  O2_4 
REMARK    5  A    between atoms: O2_4  and  C3_5 
REMARK    6  A    between atoms: C3_5  and  C4_6 
REMARK    7  A    between atoms: C4_6  and  N2_11 
REMARK    8  A    between atoms: C18_24  and  N3_25 
ROOT
HETATM    1  C3  UNL     1      22.983   3.803  51.337  1.00  0.00     0.122 A 
HETATM    2  C4  UNL     1      24.348   3.333  51.159  1.00  0.00     0.131 A 
HETATM    3  C5  UNL     1      25.808   3.018  50.730  1.00  0.00     0.089 A 
HETATM    4  C6  UNL     1      26.184   3.984  49.864  1.00  0.00     0.092 A 
HETATM    5  N1  UNL     1      26.976   3.016  50.405  1.00  0.00    -0.263 NA
HETATM    6  C7  UNL     1      26.591   2.065  51.254  1.00  0.00     0.163 A 
HETATM    7  N2  UNL     1      25.440   2.545  51.202  1.00  0.00    -0.272 NA
HETATM    8  C8  UNL     1      24.792   3.619  50.546  1.00  0.00     0.073 A 
HETATM    9  C9  UNL     1      23.722   4.301  50.288  1.00  0.00     0.093 A 
HETATM   10  C10 UNL     1      22.484   4.707  50.485  1.00  0.00     0.137 A 
HETATM   11  O3  UNL     1      21.933   5.695  49.555  1.00  0.00    -0.369 OA
HETATM   12  C11 UNL     1      22.869   6.702  49.014  1.00  0.00     0.198 C 
HETATM   13  C12 UNL     1      23.958   6.149  48.215  1.00  0.00     0.024 C 
HETATM   14  C13 UNL     1      25.189   6.484  48.829  1.00  0.00     0.043 C 
HETATM   15 CL1  UNL     1      25.219   7.455  50.317  1.00  0.00    -0.084 Cl
HETATM   16  C14 UNL     1      26.585   6.035  48.593  1.00  0.00    -0.006 A 
HETATM   17  C15 UNL     1      27.694   6.385  48.017  1.00  0.00     0.014 A 
HETATM   18  C16 UNL     1      28.273   5.166  48.487  1.00  0.00     0.011 A 
HETATM   19  C17 UNL     1      27.187   4.753  49.091  1.00  0.00    -0.019 A 
ENDROOT
BRANCH   1  20
HETATM   20  O2  UNL     1      21.964   3.586  52.198  1.00  0.00    -0.372 OA
BRANCH  20  21
HETATM   21  C2  UNL     1      20.875   2.756  51.750  1.00  0.00     0.202 C 
BRANCH  21  22
HETATM   22  C1  UNL     1      21.464   1.445  51.203  1.00  0.00     0.159 C 
BRANCH  22  23
HETATM   23  O1  UNL     1      20.787   1.124  50.004  1.00  0.00    -0.392 OA
HETATM   24  H1  UNL     1      21.416   0.804  49.323  1.00  0.00     0.210 HD
ENDBRANCH  22  23
BRANCH  22  25
HETATM   25  C18 UNL     1      21.083   0.357  52.172  1.00  0.00     0.150 C 
BRANCH  25  26
HETATM   26  N3  UNL     1      21.736   0.551  53.409  1.00  0.00    -0.406 N 
HETATM   27  C19 UNL     1      21.181  -0.019  54.576  1.00  0.00     0.143 C 
HETATM   28  C20 UNL     1      21.739  -1.409  54.855  1.00  0.00     0.187 C 
HETATM   29  O4  UNL     1      23.089  -1.167  55.203  1.00  0.00    -0.388 OA
HETATM   30  C21 UNL     1      23.719  -0.769  54.052  1.00  0.00     0.187 C 
HETATM   31  C22 UNL     1      23.158   0.413  53.354  1.00  0.00     0.143 C 
ENDBRANCH  25  26
ENDBRANCH  22  25
ENDBRANCH  21  22
ENDBRANCH  20  21
ENDBRANCH   1  20
TORSDOF 8
ENDMDL
