MODEL 1
REMARK VINA RESULT:      -9.1      0.000      0.000
REMARK  8 active torsions:
REMARK  status: ('A' for Active; 'I' for Inactive)
REMARK    1  A    between atoms: C2_2  and  N1_3 
REMARK    2  A    between atoms: C2_2  and  C15_21 
REMARK    3  A    between atoms: N1_3  and  C3_4 
REMARK    4  A    between atoms: C6_9  and  C7_10 
REMARK    5  A    between atoms: C7_10  and  C8_11 
REMARK    6  A    between atoms: C8_11  and  C9_12 
REMARK    7  A    between atoms: C12_15  and  O1_18 
REMARK    8  A    between atoms: N4_19  and  N5_20 
ROOT
HETATM    1  C3  UNL     1      21.769   0.552  51.889  1.00  0.00     0.137 A 
HETATM    2  N2  UNL     1      20.407   0.545  51.694  1.00  0.00    -0.224 NA
HETATM    3  C4  UNL     1      19.671  -0.069  52.605  1.00  0.00     0.234 A 
HETATM    4  N3  UNL     1      20.106  -0.696  53.725  1.00  0.00    -0.253 NA
HETATM    5  C5  UNL     1      21.457  -0.718  53.962  1.00  0.00     0.133 A 
HETATM    6  C6  UNL     1      22.273  -0.076  53.001  1.00  0.00     0.026 A 
ENDROOT
BRANCH   6   7
HETATM    7  C7  UNL     1      23.637  -0.426  53.417  1.00  0.00     0.028 C 
BRANCH   7   8
HETATM    8  C8  UNL     1      24.976   0.081  53.297  1.00  0.00     0.130 A 
HETATM    9  N4  UNL     1      25.373  -0.832  54.413  1.00  0.00    -0.227 N 
HETATM   10  O1  UNL     1      26.152  -0.743  53.180  1.00  0.00     0.000 OA
BRANCH   8  11
HETATM   11  C9  UNL     1      26.515   0.565  53.283  1.00  0.00     0.023 A 
HETATM   12  C10 UNL     1      27.100  -0.744  52.970  1.00  0.00    -0.032 A 
HETATM   13  C11 UNL     1      28.149   0.021  53.175  1.00  0.00     0.034 A 
HETATM   14  C12 UNL     1      27.090   1.165  53.426  1.00  0.00     0.004 A 
HETATM   15  C13 UNL     1      28.197   2.119  53.690  1.00  0.00    -0.034 A 
HETATM   16  C14 UNL     1      26.911   2.017  53.645  1.00  0.00     0.034 A 
ENDBRANCH   8  11
BRANCH   9  17
HETATM   17  N5  UNL     1      24.980  -1.300  55.750  1.00  0.00    -0.230 NA
HETATM   18  H13 UNL     1      23.943  -1.383  55.625  1.00  0.00     0.144 HD
HETATM   19  H14 UNL     1      25.448  -2.208  55.820  1.00  0.00     0.144 HD
ENDBRANCH   9  17
ENDBRANCH   7   8
ENDBRANCH   6   7
BRANCH   1  20
HETATM   20  N1  UNL     1      22.717   1.222  51.090  1.00  0.00    -0.366 N 
HETATM   21  H5  UNL     1      23.472   0.757  50.583  1.00  0.00     0.161 HD
BRANCH  20  22
HETATM   22  C2  UNL     1      22.693   2.665  50.921  1.00  0.00     0.112 C 
HETATM   23  C1  UNL     1      22.434   3.358  52.256  1.00  0.00     0.037 C 
BRANCH  22  24
HETATM   24  C15 UNL     1      23.991   3.169  50.405  1.00  0.00    -0.036 A 
HETATM   25  C16 UNL     1      23.928   4.361  49.625  1.00  0.00     0.010 A 
HETATM   26  C17 UNL     1      25.062   4.961  49.090  1.00  0.00     0.019 A 
HETATM   27  C18 UNL     1      26.325   4.378  49.324  1.00  0.00     0.011 A 
HETATM   28 BR1  UNL     1      27.894   5.194  48.572  1.00  0.00    -0.051 Br
HETATM   29  C19 UNL     1      26.507   3.189  50.089  1.00  0.00     0.019 A 
HETATM   30  C20 UNL     1      25.265   2.787  50.504  1.00  0.00     0.010 A 
ENDBRANCH  22  24
ENDBRANCH  20  22
ENDBRANCH   1  20
TORSDOF 8
ENDMDL
MODEL 2
REMARK VINA RESULT:      -8.9      2.176      3.119
REMARK  8 active torsions:
REMARK  status: ('A' for Active; 'I' for Inactive)
REMARK    1  A    between atoms: C2_2  and  N1_3 
REMARK    2  A    between atoms: C2_2  and  C15_21 
REMARK    3  A    between atoms: N1_3  and  C3_4 
REMARK    4  A    between atoms: C6_9  and  C7_10 
REMARK    5  A    between atoms: C7_10  and  C8_11 
REMARK    6  A    between atoms: C8_11  and  C9_12 
REMARK    7  A    between atoms: C12_15  and  O1_18 
REMARK    8  A    between atoms: N4_19  and  N5_20 
ROOT
HETATM    1  C3  UNL     1      23.828   2.952  51.749  1.00  0.00     0.137 A 
HETATM    2  N2  UNL     1      22.645   2.727  51.083  1.00  0.00    -0.224 NA
HETATM    3  C4  UNL     1      21.949   1.660  51.434  1.00  0.00     0.234 A 
HETATM    4  N3  UNL     1      22.266   0.751  52.389  1.00  0.00    -0.253 NA
HETATM    5  C5  UNL     1      23.438   0.931  53.080  1.00  0.00     0.133 A 
HETATM    6  C6  UNL     1      24.210   2.061  52.722  1.00  0.00     0.026 A 
ENDROOT
BRANCH   6   7
HETATM    7  C7  UNL     1      25.457   1.880  53.474  1.00  0.00     0.028 C 
BRANCH   7   8
HETATM    8  C8  UNL     1      26.503   0.908  53.631  1.00  0.00     0.130 A 
HETATM    9  N4  UNL     1      27.450   1.895  53.025  1.00  0.00    -0.227 N 
HETATM   10  O1  UNL     1      27.776   1.174  54.252  1.00  0.00     0.000 OA
BRANCH   8  11
HETATM   11  C9  UNL     1      27.770  -0.086  53.735  1.00  0.00     0.023 A 
HETATM   12  C10 UNL     1      28.593   0.779  54.589  1.00  0.00    -0.032 A 
HETATM   13  C11 UNL     1      29.391  -0.226  54.308  1.00  0.00     0.034 A 
HETATM   14  C12 UNL     1      28.165  -0.789  53.489  1.00  0.00     0.004 A 
HETATM   15  C13 UNL     1      28.980  -1.967  53.096  1.00  0.00    -0.034 A 
HETATM   16  C14 UNL     1      27.818  -1.421  52.954  1.00  0.00     0.034 A 
ENDBRANCH   8  11
BRANCH   9  17
HETATM   17  N5  UNL     1      27.613   2.842  51.912  1.00  0.00    -0.230 NA
HETATM   18  H13 UNL     1      27.509   2.194  51.095  1.00  0.00     0.144 HD
HETATM   19  H14 UNL     1      26.812   3.470  52.028  1.00  0.00     0.144 HD
ENDBRANCH   9  17
ENDBRANCH   7   8
ENDBRANCH   6   7
BRANCH   1  20
HETATM   20  N1  UNL     1      24.669   4.072  51.591  1.00  0.00    -0.366 N 
HETATM   21  H5  UNL     1      25.510   4.242  52.145  1.00  0.00     0.161 HD
BRANCH  20  22
HETATM   22  C2  UNL     1      24.397   5.099  50.600  1.00  0.00     0.112 C 
HETATM   23  C1  UNL     1      23.924   6.384  51.274  1.00  0.00     0.037 C 
BRANCH  22  24
HETATM   24  C15 UNL     1      25.616   5.432  49.819  1.00  0.00    -0.036 A 
HETATM   25  C16 UNL     1      25.878   6.821  49.640  1.00  0.00     0.010 A 
HETATM   26  C17 UNL     1      26.991   7.285  48.947  1.00  0.00     0.019 A 
HETATM   27  C18 UNL     1      27.899   6.355  48.400  1.00  0.00     0.011 A 
HETATM   28 BR1  UNL     1      29.429   6.990  47.426  1.00  0.00    -0.051 Br
HETATM   29  C19 UNL     1      27.738   4.943  48.519  1.00  0.00     0.019 A 
HETATM   30  C20 UNL     1      26.587   4.731  49.230  1.00  0.00     0.010 A 
ENDBRANCH  22  24
ENDBRANCH  20  22
ENDBRANCH   1  20
TORSDOF 8
ENDMDL
MODEL 3
REMARK VINA RESULT:      -8.8      2.427      5.303
REMARK  8 active torsions:
REMARK  status: ('A' for Active; 'I' for Inactive)
REMARK    1  A    between atoms: C2_2  and  N1_3 
REMARK    2  A    between atoms: C2_2  and  C15_21 
REMARK    3  A    between atoms: N1_3  and  C3_4 
REMARK    4  A    between atoms: C6_9  and  C7_10 
REMARK    5  A    between atoms: C7_10  and  C8_11 
REMARK    6  A    between atoms: C8_11  and  C9_12 
REMARK    7  A    between atoms: C12_15  and  O1_18 
REMARK    8  A    between atoms: N4_19  and  N5_20 
ROOT
HETATM    1  C3  UNL     1      26.487   1.019  52.698  1.00  0.00     0.137 A 
HETATM    2  N2  UNL     1      27.778   1.278  53.098  1.00  0.00    -0.224 NA
HETATM    3  C4  UNL     1      28.194   0.692  54.208  1.00  0.00     0.234 A 
HETATM    4  N3  UNL     1      27.491  -0.149  55.005  1.00  0.00    -0.253 NA
HETATM    5  C5  UNL     1      26.197  -0.436  54.648  1.00  0.00     0.133 A 
HETATM    6  C6  UNL     1      25.719   0.182  53.469  1.00  0.00     0.026 A 
ENDROOT
BRANCH   6   7
HETATM    7  C7  UNL     1      24.290  -0.153  53.457  1.00  0.00     0.028 C 
BRANCH   7   8
HETATM    8  C8  UNL     1      23.076   0.277  52.822  1.00  0.00     0.130 A 
HETATM    9  N4  UNL     1      22.319  -0.311  53.971  1.00  0.00    -0.227 N 
HETATM   10  O1  UNL     1      22.038   1.034  53.476  1.00  0.00     0.000 OA
BRANCH   8  11
HETATM   11  C9  UNL     1      21.637   0.689  52.221  1.00  0.00     0.023 A 
HETATM   12  C10 UNL     1      21.109   1.296  53.448  1.00  0.00    -0.032 A 
HETATM   13  C11 UNL     1      20.086   1.328  52.625  1.00  0.00     0.034 A 
HETATM   14  C12 UNL     1      21.075   0.660  51.592  1.00  0.00     0.004 A 
HETATM   15  C13 UNL     1      19.987   0.632  50.582  1.00  0.00    -0.034 A 
HETATM   16  C14 UNL     1      21.222   0.309  50.779  1.00  0.00     0.034 A 
ENDBRANCH   8  11
BRANCH   9  17
HETATM   17  N5  UNL     1      22.212  -1.503  54.824  1.00  0.00    -0.230 NA
HETATM   18  H13 UNL     1      21.208  -1.438  55.117  1.00  0.00     0.144 HD
HETATM   19  H14 UNL     1      22.388  -2.270  54.168  1.00  0.00     0.144 HD
ENDBRANCH   9  17
ENDBRANCH   7   8
ENDBRANCH   6   7
BRANCH   1  20
HETATM   20  N1  UNL     1      25.883   1.469  51.507  1.00  0.00    -0.366 N 
HETATM   21  H5  UNL     1      25.457   0.854  50.811  1.00  0.00     0.161 HD
BRANCH  20  22
HETATM   22  C2  UNL     1      25.816   2.880  51.167  1.00  0.00     0.112 C 
HETATM   23  C1  UNL     1      26.459   3.137  49.807  1.00  0.00     0.037 C 
BRANCH  22  24
HETATM   24  C15 UNL     1      24.410   3.350  51.088  1.00  0.00    -0.036 A 
HETATM   25  C16 UNL     1      23.752   3.133  49.842  1.00  0.00     0.010 A 
HETATM   26  C17 UNL     1      22.430   3.503  49.624  1.00  0.00     0.019 A 
HETATM   27  C18 UNL     1      21.704   4.114  50.667  1.00  0.00     0.011 A 
HETATM   28 BR1  UNL     1      19.881   4.643  50.366  1.00  0.00    -0.051 Br
HETATM   29  C19 UNL     1      22.260   4.378  51.954  1.00  0.00     0.019 A 
HETATM   30  C20 UNL     1      23.555   3.934  51.930  1.00  0.00     0.010 A 
ENDBRANCH  22  24
ENDBRANCH  20  22
ENDBRANCH   1  20
TORSDOF 8
ENDMDL
MODEL 4
REMARK VINA RESULT:      -8.7      3.119      6.556
REMARK  8 active torsions:
REMARK  status: ('A' for Active; 'I' for Inactive)
REMARK    1  A    between atoms: C2_2  and  N1_3 
REMARK    2  A    between atoms: C2_2  and  C15_21 
REMARK    3  A    between atoms: N1_3  and  C3_4 
REMARK    4  A    between atoms: C6_9  and  C7_10 
REMARK    5  A    between atoms: C7_10  and  C8_11 
REMARK    6  A    between atoms: C8_11  and  C9_12 
REMARK    7  A    between atoms: C12_15  and  O1_18 
REMARK    8  A    between atoms: N4_19  and  N5_20 
ROOT
HETATM    1  C3  UNL     1      26.589   0.519  54.204  1.00  0.00     0.137 A 
HETATM    2  N2  UNL     1      27.477  -0.175  54.995  1.00  0.00    -0.224 NA
HETATM    3  C4  UNL     1      28.764   0.034  54.782  1.00  0.00     0.234 A 
HETATM    4  N3  UNL     1      29.320   0.865  53.866  1.00  0.00    -0.253 NA
HETATM    5  C5  UNL     1      28.475   1.578  53.053  1.00  0.00     0.133 A 
HETATM    6  C6  UNL     1      27.090   1.370  53.251  1.00  0.00     0.026 A 
ENDROOT
BRANCH   6   7
HETATM    7  C7  UNL     1      26.469   2.098  52.138  1.00  0.00     0.028 C 
BRANCH   7   8
HETATM    8  C8  UNL     1      25.232   2.758  51.824  1.00  0.00     0.130 A 
HETATM    9  N4  UNL     1      25.886   3.300  50.593  1.00  0.00    -0.227 N 
HETATM   10  O1  UNL     1      24.567   2.676  50.548  1.00  0.00     0.000 OA
BRANCH   8  11
HETATM   11  C9  UNL     1      23.915   3.562  51.352  1.00  0.00     0.023 A 
HETATM   12  C10 UNL     1      23.778   2.909  50.045  1.00  0.00    -0.032 A 
HETATM   13  C11 UNL     1      22.846   3.835  50.026  1.00  0.00     0.034 A 
HETATM   14  C12 UNL     1      23.356   4.180  51.480  1.00  0.00     0.004 A 
HETATM   15  C13 UNL     1      22.346   5.265  51.565  1.00  0.00    -0.034 A 
HETATM   16  C14 UNL     1      23.305   4.693  52.214  1.00  0.00     0.034 A 
ENDBRANCH   8  11
BRANCH   9  17
HETATM   17  N5  UNL     1      27.107   3.952  50.097  1.00  0.00    -0.230 NA
HETATM   18  H13 UNL     1      26.808   4.956  50.114  1.00  0.00     0.144 HD
HETATM   19  H14 UNL     1      27.796   3.727  50.822  1.00  0.00     0.144 HD
ENDBRANCH   9  17
ENDBRANCH   7   8
ENDBRANCH   6   7
BRANCH   1  20
HETATM   20  N1  UNL     1      25.185   0.508  54.328  1.00  0.00    -0.366 N 
HETATM   21  H5  UNL     1      24.619   1.336  54.518  1.00  0.00     0.161 HD
BRANCH  20  22
HETATM   22  C2  UNL     1      24.413  -0.716  54.191  1.00  0.00     0.112 C 
HETATM   23  C1  UNL     1      24.145  -1.338  55.559  1.00  0.00     0.037 C 
BRANCH  22  24
HETATM   24  C15 UNL     1      23.097  -0.455  53.557  1.00  0.00    -0.036 A 
HETATM   25  C16 UNL     1      21.964  -0.991  54.236  1.00  0.00     0.010 A 
HETATM   26  C17 UNL     1      20.665  -0.813  53.772  1.00  0.00     0.019 A 
HETATM   27  C18 UNL     1      20.451  -0.075  52.589  1.00  0.00     0.011 A 
HETATM   28 BR1  UNL     1      18.660   0.159  51.934  1.00  0.00    -0.051 Br
HETATM   29  C19 UNL     1      21.509   0.507  51.830  1.00  0.00     0.019 A 
HETATM   30  C20 UNL     1      22.678   0.201  52.473  1.00  0.00     0.010 A 
ENDBRANCH  22  24
ENDBRANCH  20  22
ENDBRANCH   1  20
TORSDOF 8
ENDMDL
MODEL 5
REMARK VINA RESULT:      -8.5      2.420      5.254
REMARK  8 active torsions:
REMARK  status: ('A' for Active; 'I' for Inactive)
REMARK    1  A    between atoms: C2_2  and  N1_3 
REMARK    2  A    between atoms: C2_2  and  C15_21 
REMARK    3  A    between atoms: N1_3  and  C3_4 
REMARK    4  A    between atoms: C6_9  and  C7_10 
REMARK    5  A    between atoms: C7_10  and  C8_11 
REMARK    6  A    between atoms: C8_11  and  C9_12 
REMARK    7  A    between atoms: C12_15  and  O1_18 
REMARK    8  A    between atoms: N4_19  and  N5_20 
ROOT
HETATM    1  C3  UNL     1      26.039   1.746  53.568  1.00  0.00     0.137 A 
HETATM    2  N2  UNL     1      27.307   1.754  54.102  1.00  0.00    -0.224 NA
HETATM    3  C4  UNL     1      27.762   0.615  54.594  1.00  0.00     0.234 A 
HETATM    4  N3  UNL     1      27.118  -0.578  54.630  1.00  0.00    -0.253 NA
HETATM    5  C5  UNL     1      25.849  -0.636  54.111  1.00  0.00     0.133 A 
HETATM    6  C6  UNL     1      25.331   0.570  53.584  1.00  0.00     0.026 A 
ENDROOT
BRANCH   6   7
HETATM    7  C7  UNL     1      23.930   0.245  53.291  1.00  0.00     0.028 C 
BRANCH   7   8
HETATM    8  C8  UNL     1      22.855   0.710  52.459  1.00  0.00     0.130 A 
HETATM    9  N4  UNL     1      21.921  -0.126  53.275  1.00  0.00    -0.227 N 
HETATM   10  O1  UNL     1      21.623   1.268  52.955  1.00  0.00     0.000 OA
BRANCH   8  11
HETATM   11  C9  UNL     1      21.557   1.137  51.601  1.00  0.00     0.023 A 
HETATM   12  C10 UNL     1      20.867   1.848  52.683  1.00  0.00    -0.032 A 
HETATM   13  C11 UNL     1      19.996   1.864  51.700  1.00  0.00     0.034 A 
HETATM   14  C12 UNL     1      21.106   1.087  50.891  1.00  0.00     0.004 A 
HETATM   15  C13 UNL     1      20.198   1.033  49.717  1.00  0.00    -0.034 A 
HETATM   16  C14 UNL     1      21.365   0.675  50.136  1.00  0.00     0.034 A 
ENDBRANCH   8  11
BRANCH   9  17
HETATM   17  N5  UNL     1      21.745  -1.459  53.868  1.00  0.00    -0.230 NA
HETATM   18  H13 UNL     1      21.189  -1.216  54.722  1.00  0.00     0.144 HD
HETATM   19  H14 UNL     1      21.194  -1.953  53.159  1.00  0.00     0.144 HD
ENDBRANCH   9  17
ENDBRANCH   7   8
ENDBRANCH   6   7
BRANCH   1  20
HETATM   20  N1  UNL     1      25.406   2.825  52.918  1.00  0.00    -0.366 N 
HETATM   21  H5  UNL     1      24.680   3.404  53.341  1.00  0.00     0.161 HD
BRANCH  20  22
HETATM   22  C2  UNL     1      25.748   3.206  51.558  1.00  0.00     0.112 C 
HETATM   23  C1  UNL     1      26.477   2.068  50.848  1.00  0.00     0.037 C 
BRANCH  22  24
HETATM   24  C15 UNL     1      24.533   3.518  50.764  1.00  0.00    -0.036 A 
HETATM   25  C16 UNL     1      23.536   4.287  51.431  1.00  0.00     0.010 A 
HETATM   26  C17 UNL     1      22.353   4.672  50.809  1.00  0.00     0.019 A 
HETATM   27  C18 UNL     1      22.123   4.292  49.471  1.00  0.00     0.011 A 
HETATM   28 BR1  UNL     1      20.482   4.805  48.612  1.00  0.00    -0.051 Br
HETATM   29  C19 UNL     1      23.051   3.523  48.706  1.00  0.00     0.019 A 
HETATM   30  C20 UNL     1      24.122   3.267  49.519  1.00  0.00     0.010 A 
ENDBRANCH  22  24
ENDBRANCH  20  22
ENDBRANCH   1  20
TORSDOF 8
ENDMDL
MODEL 6
REMARK VINA RESULT:      -8.5      1.573      2.337
REMARK  8 active torsions:
REMARK  status: ('A' for Active; 'I' for Inactive)
REMARK    1  A    between atoms: C2_2  and  N1_3 
REMARK    2  A    between atoms: C2_2  and  C15_21 
REMARK    3  A    between atoms: N1_3  and  C3_4 
REMARK    4  A    between atoms: C6_9  and  C7_10 
REMARK    5  A    between atoms: C7_10  and  C8_11 
REMARK    6  A    between atoms: C8_11  and  C9_12 
REMARK    7  A    between atoms: C12_15  and  O1_18 
REMARK    8  A    between atoms: N4_19  and  N5_20 
ROOT
HETATM    1  C3  UNL     1      21.842  -0.185  52.644  1.00  0.00     0.137 A 
HETATM    2  N2  UNL     1      20.746  -0.815  53.188  1.00  0.00    -0.224 NA
HETATM    3  C4  UNL     1      20.905  -1.391  54.367  1.00  0.00     0.234 A 
HETATM    4  N3  UNL     1      22.035  -1.430  55.115  1.00  0.00    -0.253 NA
HETATM    5  C5  UNL     1      23.155  -0.816  54.614  1.00  0.00     0.133 A 
HETATM    6  C6  UNL     1      23.019  -0.198  53.349  1.00  0.00     0.026 A 
ENDROOT
BRANCH   6   7
HETATM    7  C7  UNL     1      24.392   0.189  53.004  1.00  0.00     0.028 C 
BRANCH   7   8
HETATM    8  C8  UNL     1      25.742  -0.147  53.366  1.00  0.00     0.130 A 
HETATM    9  N4  UNL     1      26.052   1.316  53.388  1.00  0.00    -0.227 N 
HETATM   10  O1  UNL     1      26.454   0.431  54.477  1.00  0.00     0.000 OA
BRANCH   8  11
HETATM   11  C9  UNL     1      27.289  -0.375  53.763  1.00  0.00     0.023 A 
HETATM   12  C10 UNL     1      27.278   0.462  54.968  1.00  0.00    -0.032 A 
HETATM   13  C11 UNL     1      28.541   0.119  54.843  1.00  0.00     0.034 A 
HETATM   14  C12 UNL     1      28.051  -0.680  53.572  1.00  0.00     0.004 A 
HETATM   15  C13 UNL     1      29.448  -1.121  53.325  1.00  0.00    -0.034 A 
HETATM   16  C14 UNL     1      28.244  -1.196  52.863  1.00  0.00     0.034 A 
ENDBRANCH   8  11
BRANCH   9  17
HETATM   17  N5  UNL     1      25.879   2.569  52.638  1.00  0.00    -0.230 NA
HETATM   18  H13 UNL     1      26.849   2.703  52.265  1.00  0.00     0.144 HD
HETATM   19  H14 UNL     1      25.204   2.309  51.913  1.00  0.00     0.144 HD
ENDBRANCH   9  17
ENDBRANCH   7   8
ENDBRANCH   6   7
BRANCH   1  20
HETATM   20  N1  UNL     1      21.860   0.560  51.448  1.00  0.00    -0.366 N 
HETATM   21  H5  UNL     1      22.243   0.218  50.564  1.00  0.00     0.161 HD
BRANCH  20  22
HETATM   22  C2  UNL     1      21.322   1.908  51.376  1.00  0.00     0.112 C 
HETATM   23  C1  UNL     1      20.772   2.339  52.733  1.00  0.00     0.037 C 
BRANCH  22  24
HETATM   24  C15 UNL     1      22.370   2.887  50.991  1.00  0.00    -0.036 A 
HETATM   25  C16 UNL     1      23.225   2.492  49.922  1.00  0.00     0.010 A 
HETATM   26  C17 UNL     1      24.240   3.311  49.439  1.00  0.00     0.019 A 
HETATM   27  C18 UNL     1      24.437   4.580  50.021  1.00  0.00     0.011 A 
HETATM   28 BR1  UNL     1      25.849   5.709  49.370  1.00  0.00    -0.051 Br
HETATM   29  C19 UNL     1      23.640   5.079  51.095  1.00  0.00     0.019 A 
HETATM   30  C20 UNL     1      22.721   4.109  51.395  1.00  0.00     0.010 A 
ENDBRANCH  22  24
ENDBRANCH  20  22
ENDBRANCH   1  20
TORSDOF 8
ENDMDL
MODEL 7
REMARK VINA RESULT:      -8.4      2.533      4.794
REMARK  8 active torsions:
REMARK  status: ('A' for Active; 'I' for Inactive)
REMARK    1  A    between atoms: C2_2  and  N1_3 
REMARK    2  A    between atoms: C2_2  and  C15_21 
REMARK    3  A    between atoms: N1_3  and  C3_4 
REMARK    4  A    between atoms: C6_9  and  C7_10 
REMARK    5  A    between atoms: C7_10  and  C8_11 
REMARK    6  A    between atoms: C8_11  and  C9_12 
REMARK    7  A    between atoms: C12_15  and  O1_18 
REMARK    8  A    between atoms: N4_19  and  N5_20 
ROOT
HETATM    1  C3  UNL     1      23.216   0.124  53.636  1.00  0.00     0.137 A 
HETATM    2  N2  UNL     1      23.148  -0.837  54.619  1.00  0.00    -0.224 NA
HETATM    3  C4  UNL     1      24.292  -1.296  55.094  1.00  0.00     0.234 A 
HETATM    4  N3  UNL     1      25.543  -0.922  54.726  1.00  0.00    -0.253 NA
HETATM    5  C5  UNL     1      25.663   0.032  53.747  1.00  0.00     0.133 A 
HETATM    6  C6  UNL     1      24.455   0.538  53.212  1.00  0.00     0.026 A 
ENDROOT
BRANCH   6   7
HETATM    7  C7  UNL     1      24.897   1.370  52.087  1.00  0.00     0.028 C 
BRANCH   7   8
HETATM    8  C8  UNL     1      24.545   2.604  51.441  1.00  0.00     0.130 A 
HETATM    9  N4  UNL     1      25.998   2.825  51.168  1.00  0.00    -0.227 N 
HETATM   10  O1  UNL     1      24.989   2.991  50.126  1.00  0.00     0.000 OA
BRANCH   8  11
HETATM   11  C9  UNL     1      24.297   4.015  50.698  1.00  0.00     0.023 A 
HETATM   12  C10 UNL     1      24.840   3.616  49.395  1.00  0.00    -0.032 A 
HETATM   13  C11 UNL     1      24.586   4.897  49.244  1.00  0.00     0.034 A 
HETATM   14  C12 UNL     1      24.075   4.827  50.736  1.00  0.00     0.004 A 
HETATM   15  C13 UNL     1      23.760   6.278  50.684  1.00  0.00    -0.034 A 
HETATM   16  C14 UNL     1      23.741   5.244  51.458  1.00  0.00     0.034 A 
ENDBRANCH   8  11
BRANCH   9  17
HETATM   17  N5  UNL     1      27.333   2.779  51.783  1.00  0.00    -0.230 NA
HETATM   18  H13 UNL     1      27.713   1.905  51.349  1.00  0.00     0.144 HD
HETATM   19  H14 UNL     1      27.778   3.630  51.425  1.00  0.00     0.144 HD
ENDBRANCH   9  17
ENDBRANCH   7   8
ENDBRANCH   6   7
BRANCH   1  20
HETATM   20  N1  UNL     1      22.122   0.803  53.063  1.00  0.00    -0.366 N 
HETATM   21  H5  UNL     1      21.800   1.725  53.360  1.00  0.00     0.161 HD
BRANCH  20  22
HETATM   22  C2  UNL     1      21.348   0.228  51.975  1.00  0.00     0.112 C 
HETATM   23  C1  UNL     1      19.894   0.036  52.394  1.00  0.00     0.037 C 
BRANCH  22  24
HETATM   24  C15 UNL     1      21.353   1.113  50.783  1.00  0.00    -0.036 A 
HETATM   25  C16 UNL     1      20.837   2.427  50.984  1.00  0.00     0.010 A 
HETATM   26  C17 UNL     1      20.794   3.373  49.966  1.00  0.00     0.019 A 
HETATM   27  C18 UNL     1      21.276   3.030  48.686  1.00  0.00     0.011 A 
HETATM   28 BR1  UNL     1      21.202   4.328  47.271  1.00  0.00    -0.051 Br
HETATM   29  C19 UNL     1      21.815   1.747  48.372  1.00  0.00     0.019 A 
HETATM   30  C20 UNL     1      21.753   0.997  49.515  1.00  0.00     0.010 A 
ENDBRANCH  22  24
ENDBRANCH  20  22
ENDBRANCH   1  20
TORSDOF 8
ENDMDL
MODEL 8
REMARK VINA RESULT:      -8.2      1.684      2.196
REMARK  8 active torsions:
REMARK  status: ('A' for Active; 'I' for Inactive)
REMARK    1  A    between atoms: C2_2  and  N1_3 
REMARK    2  A    between atoms: C2_2  and  C15_21 
REMARK    3  A    between atoms: N1_3  and  C3_4 
REMARK    4  A    between atoms: C6_9  and  C7_10 
REMARK    5  A    between atoms: C7_10  and  C8_11 
REMARK    6  A    between atoms: C8_11  and  C9_12 
REMARK    7  A    between atoms: C12_15  and  O1_18 
REMARK    8  A    between atoms: N4_19  and  N5_20 
ROOT
HETATM    1  C3  UNL     1      22.830   1.457  51.851  1.00  0.00     0.137 A 
HETATM    2  N2  UNL     1      21.574   1.969  51.613  1.00  0.00    -0.224 NA
HETATM    3  C4  UNL     1      20.617   1.637  52.462  1.00  0.00     0.234 A 
HETATM    4  N3  UNL     1      20.730   0.845  53.557  1.00  0.00    -0.253 NA
HETATM    5  C5  UNL     1      21.962   0.310  53.836  1.00  0.00     0.133 A 
HETATM    6  C6  UNL     1      23.006   0.640  52.940  1.00  0.00     0.026 A 
ENDROOT
BRANCH   6   7
HETATM    7  C7  UNL     1      24.119  -0.212  53.378  1.00  0.00     0.028 C 
BRANCH   7   8
HETATM    8  C8  UNL     1      25.555  -0.233  53.339  1.00  0.00     0.130 A 
HETATM    9  N4  UNL     1      25.529  -1.124  54.540  1.00  0.00    -0.227 N 
HETATM   10  O1  UNL     1      26.353  -1.432  53.374  1.00  0.00     0.000 OA
BRANCH   8  11
HETATM   11  C9  UNL     1      27.163  -0.338  53.424  1.00  0.00     0.023 A 
HETATM   12  C10 UNL     1      27.278  -1.661  52.799  1.00  0.00    -0.032 A 
HETATM   13  C11 UNL     1      28.508  -1.387  53.169  1.00  0.00     0.034 A 
HETATM   14  C12 UNL     1      27.898  -0.032  53.699  1.00  0.00     0.004 A 
HETATM   15  C13 UNL     1      29.245   0.379  54.172  1.00  0.00    -0.034 A 
HETATM   16  C14 UNL     1      28.010   0.754  54.119  1.00  0.00     0.034 A 
ENDBRANCH   8  11
BRANCH   9  17
HETATM   17  N5  UNL     1      24.919  -1.298  55.866  1.00  0.00    -0.230 NA
HETATM   18  H13 UNL     1      25.723  -1.715  56.393  1.00  0.00     0.144 HD
HETATM   19  H14 UNL     1      24.711  -0.335  56.149  1.00  0.00     0.144 HD
ENDBRANCH   9  17
ENDBRANCH   7   8
ENDBRANCH   6   7
BRANCH   1  20
HETATM   20  N1  UNL     1      23.999   1.758  51.124  1.00  0.00    -0.366 N 
HETATM   21  H5  UNL     1      24.315   1.237  50.304  1.00  0.00     0.161 HD
BRANCH  20  22
HETATM   22  C2  UNL     1      24.869   2.862  51.493  1.00  0.00     0.112 C 
HETATM   23  C1  UNL     1      26.315   2.555  51.116  1.00  0.00     0.037 C 
BRANCH  22  24
HETATM   24  C15 UNL     1      24.483   4.111  50.790  1.00  0.00    -0.036 A 
HETATM   25  C16 UNL     1      23.744   5.055  51.562  1.00  0.00     0.010 A 
HETATM   26  C17 UNL     1      23.329   6.277  51.045  1.00  0.00     0.019 A 
HETATM   27  C18 UNL     1      23.647   6.604  49.711  1.00  0.00     0.011 A 
HETATM   28 BR1  UNL     1      23.060   8.284  48.986  1.00  0.00    -0.051 Br
HETATM   29  C19 UNL     1      24.381   5.738  48.848  1.00  0.00     0.019 A 
HETATM   30  C20 UNL     1      24.675   4.611  49.568  1.00  0.00     0.010 A 
ENDBRANCH  22  24
ENDBRANCH  20  22
ENDBRANCH   1  20
TORSDOF 8
ENDMDL
MODEL 9
REMARK VINA RESULT:      -8.2      2.252      5.362
REMARK  8 active torsions:
REMARK  status: ('A' for Active; 'I' for Inactive)
REMARK    1  A    between atoms: C2_2  and  N1_3 
REMARK    2  A    between atoms: C2_2  and  C15_21 
REMARK    3  A    between atoms: N1_3  and  C3_4 
REMARK    4  A    between atoms: C6_9  and  C7_10 
REMARK    5  A    between atoms: C7_10  and  C8_11 
REMARK    6  A    between atoms: C8_11  and  C9_12 
REMARK    7  A    between atoms: C12_15  and  O1_18 
REMARK    8  A    between atoms: N4_19  and  N5_20 
ROOT
HETATM    1  C3  UNL     1      26.351   2.404  52.131  1.00  0.00     0.137 A 
HETATM    2  N2  UNL     1      27.665   2.056  52.347  1.00  0.00    -0.224 NA
HETATM    3  C4  UNL     1      27.890   0.985  53.088  1.00  0.00     0.234 A 
HETATM    4  N3  UNL     1      26.967   0.176  53.664  1.00  0.00    -0.253 NA
HETATM    5  C5  UNL     1      25.642   0.484  53.479  1.00  0.00     0.133 A 
HETATM    6  C6  UNL     1      25.368   1.630  52.696  1.00  0.00     0.026 A 
ENDROOT
BRANCH   6   7
HETATM    7  C7  UNL     1      23.918   1.806  52.837  1.00  0.00     0.028 C 
BRANCH   7   8
HETATM    8  C8  UNL     1      22.698   1.179  52.409  1.00  0.00     0.130 A 
HETATM    9  N4  UNL     1      22.238   2.514  51.915  1.00  0.00    -0.227 N 
HETATM   10  O1  UNL     1      22.132   1.314  51.090  1.00  0.00     0.000 OA
BRANCH   8  11
HETATM   11  C9  UNL     1      21.279   0.614  51.889  1.00  0.00     0.023 A 
HETATM   12  C10 UNL     1      21.497   0.895  50.465  1.00  0.00    -0.032 A 
HETATM   13  C11 UNL     1      20.255   0.470  50.508  1.00  0.00     0.034 A 
HETATM   14  C12 UNL     1      20.509   0.315  52.058  1.00  0.00     0.004 A 
HETATM   15  C13 UNL     1      19.115  -0.168  52.229  1.00  0.00    -0.034 A 
HETATM   16  C14 UNL     1      20.200   0.104  52.875  1.00  0.00     0.034 A 
ENDBRANCH   8  11
BRANCH   9  17
HETATM   17  N5  UNL     1      22.138   3.935  52.280  1.00  0.00    -0.230 NA
HETATM   18  H13 UNL     1      22.030   4.368  51.332  1.00  0.00     0.144 HD
HETATM   19  H14 UNL     1      21.277   3.968  52.835  1.00  0.00     0.144 HD
ENDBRANCH   9  17
ENDBRANCH   7   8
ENDBRANCH   6   7
BRANCH   1  20
HETATM   20  N1  UNL     1      25.897   3.450  51.302  1.00  0.00    -0.366 N 
HETATM   21  H5  UNL     1      25.532   4.339  51.648  1.00  0.00     0.161 HD
BRANCH  20  22
HETATM   22  C2  UNL     1      25.912   3.342  49.853  1.00  0.00     0.112 C 
HETATM   23  C1  UNL     1      24.490   3.320  49.301  1.00  0.00     0.037 C 
BRANCH  22  24
HETATM   24  C15 UNL     1      26.610   4.497  49.234  1.00  0.00    -0.036 A 
HETATM   25  C16 UNL     1      25.867   5.712  49.174  1.00  0.00     0.010 A 
HETATM   26  C17 UNL     1      26.395   6.881  48.639  1.00  0.00     0.019 A 
HETATM   27  C18 UNL     1      27.712   6.875  48.135  1.00  0.00     0.011 A 
HETATM   28 BR1  UNL     1      28.440   8.485  47.377  1.00  0.00    -0.051 Br
HETATM   29  C19 UNL     1      28.546   5.719  48.143  1.00  0.00     0.019 A 
HETATM   30  C20 UNL     1      27.819   4.706  48.710  1.00  0.00     0.010 A 
ENDBRANCH  22  24
ENDBRANCH  20  22
ENDBRANCH   1  20
TORSDOF 8
ENDMDL
