MODEL 1
REMARK VINA RESULT:      -8.3      0.000      0.000
REMARK  6 active torsions:
REMARK  status: ('A' for Active; 'I' for Inactive)
REMARK    1  A    between atoms: C2_2  and  C3_3 
REMARK    2  A    between atoms: C4_4  and  C5_5 
REMARK    3  A    between atoms: C6_6  and  C7_7 
REMARK    4  A    between atoms: N2_9  and  C8_10 
REMARK    5  A    between atoms: C9_12  and  O1_13 
REMARK    6  A    between atoms: C11_16  and  C12_17 
ROOT
HETATM    1  C7  UNL     1      25.848   2.544  51.714  1.00  0.00     0.057 C 
HETATM    2  N1  UNL     1      26.356   1.390  51.483  1.00  0.00    -0.174 NA
HETATM    3  N2  UNL     1      26.635   0.667  52.625  1.00  0.00    -0.236 N 
HETATM    4  C11 UNL     1      25.668   1.194  53.564  1.00  0.00     0.151 C 
HETATM    5  C18 UNL     1      25.744   2.677  53.191  1.00  0.00     0.093 C 
ENDROOT
BRANCH   3   6
HETATM    6  C8  UNL     1      27.567  -0.348  52.964  1.00  0.00     0.192 A 
HETATM    7  N3  UNL     1      27.701  -1.513  53.000  1.00  0.00    -0.198 NA
HETATM    8  C9  UNL     1      28.764  -2.180  53.394  1.00  0.00     0.171 A 
HETATM    9  C10 UNL     1      29.909  -1.366  53.837  1.00  0.00     0.111 A 
HETATM   10  S1  UNL     1      29.220   0.337  53.598  1.00  0.00    -0.058 SA
BRANCH   8  11
HETATM   11  O1  UNL     1      28.616  -3.583  53.320  1.00  0.00    -0.344 OA
HETATM   12  H8  UNL     1      27.664  -3.950  53.195  1.00  0.00     0.219 HD
ENDBRANCH   8  11
ENDBRANCH   3   6
BRANCH   4  13
HETATM   13  C12 UNL     1      24.338   0.611  53.322  1.00  0.00    -0.033 A 
HETATM   14  C13 UNL     1      23.354   1.580  53.101  1.00  0.00     0.012 A 
HETATM   15  C14 UNL     1      22.042   1.217  52.855  1.00  0.00     0.043 A 
HETATM   16  C15 UNL     1      21.657  -0.105  52.818  1.00  0.00     0.116 A 
HETATM   17  F1  UNL     1      20.407  -0.574  52.587  1.00  0.00    -0.206 F 
HETATM   18  C16 UNL     1      22.637  -1.066  53.037  1.00  0.00     0.043 A 
HETATM   19  C17 UNL     1      23.944  -0.710  53.283  1.00  0.00     0.012 A 
ENDBRANCH   4  13
BRANCH   1  20
HETATM   20  C6  UNL     1      25.452   3.528  50.724  1.00  0.00     0.029 C 
HETATM   21  C5  UNL     1      26.348   4.060  49.938  1.00  0.00     0.002 C 
BRANCH  21  22
HETATM   22  C4  UNL     1      25.974   5.050  48.937  1.00  0.00     0.000 C 
HETATM   23  C3  UNL     1      26.451   6.289  48.907  1.00  0.00    -0.001 C 
BRANCH  23  24
HETATM   24  C2  UNL     1      26.075   7.262  47.911  1.00  0.00    -0.010 C 
HETATM   25  C1  UNL     1      26.977   7.911  47.179  1.00  0.00     0.011 C 
ENDBRANCH  23  24
ENDBRANCH  21  22
ENDBRANCH   1  20
TORSDOF 6
ENDMDL
MODEL 2
REMARK VINA RESULT:      -8.2      2.201      2.674
REMARK  6 active torsions:
REMARK  status: ('A' for Active; 'I' for Inactive)
REMARK    1  A    between atoms: C2_2  and  C3_3 
REMARK    2  A    between atoms: C4_4  and  C5_5 
REMARK    3  A    between atoms: C6_6  and  C7_7 
REMARK    4  A    between atoms: N2_9  and  C8_10 
REMARK    5  A    between atoms: C9_12  and  O1_13 
REMARK    6  A    between atoms: C11_16  and  C12_17 
ROOT
HETATM    1  C7  UNL     1      25.062   2.157  51.731  1.00  0.00     0.057 C 
HETATM    2  N1  UNL     1      25.633   1.026  51.538  1.00  0.00    -0.174 NA
HETATM    3  N2  UNL     1      26.151   0.461  52.686  1.00  0.00    -0.236 N 
HETATM    4  C11 UNL     1      25.297   1.018  53.713  1.00  0.00     0.151 C 
HETATM    5  C18 UNL     1      25.177   2.450  53.184  1.00  0.00     0.093 C 
ENDROOT
BRANCH   3   6
HETATM    6  C8  UNL     1      27.214  -0.435  52.969  1.00  0.00     0.192 A 
HETATM    7  N3  UNL     1      27.481  -1.577  53.013  1.00  0.00    -0.198 NA
HETATM    8  C9  UNL     1      28.639  -2.112  53.335  1.00  0.00     0.171 A 
HETATM    9  C10 UNL     1      29.715  -1.165  53.676  1.00  0.00     0.111 A 
HETATM   10  S1  UNL     1      28.822   0.444  53.463  1.00  0.00    -0.058 SA
BRANCH   8  11
HETATM   11  O1  UNL     1      28.645  -3.523  53.295  1.00  0.00    -0.344 OA
HETATM   12  H8  UNL     1      29.284  -3.973  52.627  1.00  0.00     0.219 HD
ENDBRANCH   8  11
ENDBRANCH   3   6
BRANCH   4  13
HETATM   13  C12 UNL     1      24.005   0.313  53.752  1.00  0.00    -0.033 A 
HETATM   14  C13 UNL     1      23.983  -0.727  54.687  1.00  0.00     0.012 A 
HETATM   15  C14 UNL     1      22.851  -1.501  54.864  1.00  0.00     0.043 A 
HETATM   16  C15 UNL     1      21.706  -1.278  54.129  1.00  0.00     0.116 A 
HETATM   17  F1  UNL     1      20.545  -1.970  54.218  1.00  0.00    -0.206 F 
HETATM   18  C16 UNL     1      21.730  -0.244  53.201  1.00  0.00     0.043 A 
HETATM   19  C17 UNL     1      22.855   0.529  53.021  1.00  0.00     0.012 A 
ENDBRANCH   4  13
BRANCH   1  20
HETATM   20  C6  UNL     1      24.428   2.989  50.726  1.00  0.00     0.029 C 
HETATM   21  C5  UNL     1      23.534   2.476  49.925  1.00  0.00     0.002 C 
BRANCH  21  22
HETATM   22  C4  UNL     1      22.884   3.291  48.907  1.00  0.00     0.000 C 
HETATM   23  C3  UNL     1      22.168   2.793  47.906  1.00  0.00    -0.001 C 
BRANCH  23  24
HETATM   24  C2  UNL     1      21.528   3.610  46.903  1.00  0.00    -0.010 C 
HETATM   25  C1  UNL     1      21.983   3.684  45.654  1.00  0.00     0.011 C 
ENDBRANCH  23  24
ENDBRANCH  21  22
ENDBRANCH   1  20
TORSDOF 6
ENDMDL
MODEL 3
REMARK VINA RESULT:      -8.1      2.824      3.211
REMARK  6 active torsions:
REMARK  status: ('A' for Active; 'I' for Inactive)
REMARK    1  A    between atoms: C2_2  and  C3_3 
REMARK    2  A    between atoms: C4_4  and  C5_5 
REMARK    3  A    between atoms: C6_6  and  C7_7 
REMARK    4  A    between atoms: N2_9  and  C8_10 
REMARK    5  A    between atoms: C9_12  and  O1_13 
REMARK    6  A    between atoms: C11_16  and  C12_17 
ROOT
HETATM    1  C7  UNL     1      24.520   2.827  50.814  1.00  0.00     0.057 C 
HETATM    2  N1  UNL     1      25.464   2.000  51.074  1.00  0.00    -0.174 NA
HETATM    3  N2  UNL     1      25.875   2.019  52.391  1.00  0.00    -0.236 N 
HETATM    4  C11 UNL     1      24.679   2.461  53.077  1.00  0.00     0.151 C 
HETATM    5  C18 UNL     1      24.206   3.529  52.086  1.00  0.00     0.093 C 
ENDROOT
BRANCH   3   6
HETATM    6  C8  UNL     1      27.086   1.721  53.067  1.00  0.00     0.192 A 
HETATM    7  N3  UNL     1      27.949   2.215  53.690  1.00  0.00    -0.198 NA
HETATM    8  C9  UNL     1      28.999   1.615  54.209  1.00  0.00     0.171 A 
HETATM    9  C10 UNL     1      29.093   0.163  53.978  1.00  0.00     0.111 A 
HETATM   10  S1  UNL     1      27.553  -0.117  52.987  1.00  0.00    -0.058 SA
BRANCH   8  11
HETATM   11  O1  UNL     1      29.864   2.486  54.907  1.00  0.00    -0.344 OA
HETATM   12  H8  UNL     1      29.894   3.466  54.601  1.00  0.00     0.219 HD
ENDBRANCH   8  11
ENDBRANCH   3   6
BRANCH   4  13
HETATM   13  C12 UNL     1      23.722   1.351  53.220  1.00  0.00    -0.033 A 
HETATM   14  C13 UNL     1      22.400   1.742  52.987  1.00  0.00     0.012 A 
HETATM   15  C14 UNL     1      21.363   0.831  53.075  1.00  0.00     0.043 A 
HETATM   16  C15 UNL     1      21.593  -0.490  53.395  1.00  0.00     0.116 A 
HETATM   17  F1  UNL     1      20.659  -1.465  53.509  1.00  0.00    -0.206 F 
HETATM   18  C16 UNL     1      22.908  -0.876  53.626  1.00  0.00     0.043 A 
HETATM   19  C17 UNL     1      23.943   0.027  53.539  1.00  0.00     0.012 A 
ENDBRANCH   4  13
BRANCH   1  20
HETATM   20  C6  UNL     1      23.883   3.036  49.528  1.00  0.00     0.029 C 
HETATM   21  C5  UNL     1      22.875   2.287  49.169  1.00  0.00     0.002 C 
BRANCH  21  22
HETATM   22  C4  UNL     1      22.219   2.478  47.882  1.00  0.00     0.000 C 
HETATM   23  C3  UNL     1      22.155   3.644  47.250  1.00  0.00    -0.001 C 
BRANCH  23  24
HETATM   24  C2  UNL     1      21.503   3.822  45.975  1.00  0.00    -0.010 C 
HETATM   25  C1  UNL     1      21.858   4.783  45.126  1.00  0.00     0.011 C 
ENDBRANCH  23  24
ENDBRANCH  21  22
ENDBRANCH   1  20
TORSDOF 6
ENDMDL
MODEL 4
REMARK VINA RESULT:      -8.0      3.610      7.059
REMARK  6 active torsions:
REMARK  status: ('A' for Active; 'I' for Inactive)
REMARK    1  A    between atoms: C2_2  and  C3_3 
REMARK    2  A    between atoms: C4_4  and  C5_5 
REMARK    3  A    between atoms: C6_6  and  C7_7 
REMARK    4  A    between atoms: N2_9  and  C8_10 
REMARK    5  A    between atoms: C9_12  and  O1_13 
REMARK    6  A    between atoms: C11_16  and  C12_17 
ROOT
HETATM    1  C7  UNL     1      22.774   2.558  51.426  1.00  0.00     0.057 C 
HETATM    2  N1  UNL     1      23.546   2.684  50.411  1.00  0.00    -0.174 NA
HETATM    3  N2  UNL     1      24.730   3.335  50.689  1.00  0.00    -0.236 N 
HETATM    4  C11 UNL     1      24.921   3.034  52.093  1.00  0.00     0.151 C 
HETATM    5  C18 UNL     1      23.476   3.187  52.576  1.00  0.00     0.093 C 
ENDROOT
BRANCH   3   6
HETATM    6  C8  UNL     1      25.642   4.120  49.938  1.00  0.00     0.192 A 
HETATM    7  N3  UNL     1      26.726   4.111  49.488  1.00  0.00    -0.198 NA
HETATM    8  C9  UNL     1      27.308   5.066  48.795  1.00  0.00     0.171 A 
HETATM    9  C10 UNL     1      26.503   6.278  48.564  1.00  0.00     0.111 A 
HETATM   10  S1  UNL     1      24.939   5.810  49.440  1.00  0.00    -0.058 SA
BRANCH   8  11
HETATM   11  O1  UNL     1      28.624   4.754  48.389  1.00  0.00    -0.344 OA
HETATM   12  H8  UNL     1      28.959   3.799  48.570  1.00  0.00     0.219 HD
ENDBRANCH   8  11
ENDBRANCH   3   6
BRANCH   4  13
HETATM   13  C12 UNL     1      25.440   1.667  52.265  1.00  0.00    -0.033 A 
HETATM   14  C13 UNL     1      24.816   0.978  53.311  1.00  0.00     0.012 A 
HETATM   15  C14 UNL     1      25.174  -0.321  53.619  1.00  0.00     0.043 A 
HETATM   16  C15 UNL     1      26.154  -0.984  52.912  1.00  0.00     0.116 A 
HETATM   17  F1  UNL     1      26.583  -2.251  53.125  1.00  0.00    -0.206 F 
HETATM   18  C16 UNL     1      26.772  -0.298  51.873  1.00  0.00     0.043 A 
HETATM   19  C17 UNL     1      26.419   0.996  51.563  1.00  0.00     0.012 A 
ENDBRANCH   4  13
BRANCH   1  20
HETATM   20  C6  UNL     1      21.469   1.924  51.448  1.00  0.00     0.029 C 
HETATM   21  C5  UNL     1      21.334   0.727  51.950  1.00  0.00     0.002 C 
BRANCH  21  22
HETATM   22  C4  UNL     1      20.034   0.070  51.982  1.00  0.00     0.000 C 
HETATM   23  C3  UNL     1      19.527  -0.515  53.061  1.00  0.00    -0.001 C 
BRANCH  23  24
HETATM   24  C2  UNL     1      18.237  -1.163  53.082  1.00  0.00    -0.010 C 
HETATM   25  C1  UNL     1      18.045  -2.339  53.675  1.00  0.00     0.011 C 
ENDBRANCH  23  24
ENDBRANCH  21  22
ENDBRANCH   1  20
TORSDOF 6
ENDMDL
MODEL 5
REMARK VINA RESULT:      -7.8      4.582      7.212
REMARK  6 active torsions:
REMARK  status: ('A' for Active; 'I' for Inactive)
REMARK    1  A    between atoms: C2_2  and  C3_3 
REMARK    2  A    between atoms: C4_4  and  C5_5 
REMARK    3  A    between atoms: C6_6  and  C7_7 
REMARK    4  A    between atoms: N2_9  and  C8_10 
REMARK    5  A    between atoms: C9_12  and  O1_13 
REMARK    6  A    between atoms: C11_16  and  C12_17 
ROOT
HETATM    1  C7  UNL     1      23.465   0.394  52.856  1.00  0.00     0.057 C 
HETATM    2  N1  UNL     1      22.543  -0.456  52.589  1.00  0.00    -0.174 NA
HETATM    3  N2  UNL     1      21.274   0.086  52.568  1.00  0.00    -0.236 N 
HETATM    4  C11 UNL     1      21.538   1.464  52.206  1.00  0.00     0.151 C 
HETATM    5  C18 UNL     1      22.792   1.705  53.051  1.00  0.00     0.093 C 
ENDROOT
BRANCH   3   6
HETATM    6  C8  UNL     1      19.968  -0.413  52.803  1.00  0.00     0.192 A 
HETATM    7  N3  UNL     1      19.380  -1.241  53.392  1.00  0.00    -0.198 NA
HETATM    8  C9  UNL     1      18.081  -1.446  53.394  1.00  0.00     0.171 A 
HETATM    9  C10 UNL     1      17.282  -0.530  52.562  1.00  0.00     0.111 A 
HETATM   10  S1  UNL     1      18.622   0.546  51.870  1.00  0.00    -0.058 SA
BRANCH   8  11
HETATM   11  O1  UNL     1      17.677  -2.527  54.207  1.00  0.00    -0.344 OA
HETATM   12  H8  UNL     1      16.737  -2.911  54.048  1.00  0.00     0.219 HD
ENDBRANCH   8  11
ENDBRANCH   3   6
BRANCH   4  13
HETATM   13  C12 UNL     1      21.790   1.582  50.760  1.00  0.00    -0.033 A 
HETATM   14  C13 UNL     1      22.679   2.616  50.449  1.00  0.00     0.012 A 
HETATM   15  C14 UNL     1      23.035   2.875  49.138  1.00  0.00     0.043 A 
HETATM   16  C15 UNL     1      22.532   2.129  48.095  1.00  0.00     0.116 A 
HETATM   17  F1  UNL     1      22.810   2.293  46.779  1.00  0.00    -0.206 F 
HETATM   18  C16 UNL     1      21.649   1.102  48.407  1.00  0.00     0.043 A 
HETATM   19  C17 UNL     1      21.291   0.840  49.710  1.00  0.00     0.012 A 
ENDBRANCH   4  13
BRANCH   1  20
HETATM   20  C6  UNL     1      24.887   0.127  52.949  1.00  0.00     0.029 C 
HETATM   21  C5  UNL     1      25.737   0.884  52.309  1.00  0.00     0.002 C 
BRANCH  21  22
HETATM   22  C4  UNL     1      27.170   0.635  52.388  1.00  0.00     0.000 C 
HETATM   23  C3  UNL     1      27.786   0.191  53.477  1.00  0.00    -0.001 C 
BRANCH  23  24
HETATM   24  C2  UNL     1      29.207  -0.052  53.543  1.00  0.00    -0.010 C 
HETATM   25  C1  UNL     1      29.712  -1.281  53.619  1.00  0.00     0.011 C 
ENDBRANCH  23  24
ENDBRANCH  21  22
ENDBRANCH   1  20
TORSDOF 6
ENDMDL
MODEL 6
REMARK VINA RESULT:      -7.2      4.596      7.935
REMARK  6 active torsions:
REMARK  status: ('A' for Active; 'I' for Inactive)
REMARK    1  A    between atoms: C2_2  and  C3_3 
REMARK    2  A    between atoms: C4_4  and  C5_5 
REMARK    3  A    between atoms: C6_6  and  C7_7 
REMARK    4  A    between atoms: N2_9  and  C8_10 
REMARK    5  A    between atoms: C9_12  and  O1_13 
REMARK    6  A    between atoms: C11_16  and  C12_17 
ROOT
HETATM    1  C7  UNL     1      24.538   2.070  52.138  1.00  0.00     0.057 C 
HETATM    2  N1  UNL     1      23.822   1.893  51.090  1.00  0.00    -0.174 NA
HETATM    3  N2  UNL     1      23.034   2.978  50.764  1.00  0.00    -0.236 N 
HETATM    4  C11 UNL     1      23.792   4.082  51.316  1.00  0.00     0.151 C 
HETATM    5  C18 UNL     1      24.239   3.440  52.632  1.00  0.00     0.093 C 
ENDROOT
BRANCH   3   6
HETATM    6  C8  UNL     1      21.802   3.154  50.082  1.00  0.00     0.192 A 
HETATM    7  N3  UNL     1      21.116   2.670  49.262  1.00  0.00    -0.198 NA
HETATM    8  C9  UNL     1      19.955   3.114  48.832  1.00  0.00     0.171 A 
HETATM    9  C10 UNL     1      19.469   4.357  49.455  1.00  0.00     0.111 A 
HETATM   10  S1  UNL     1      20.856   4.703  50.635  1.00  0.00    -0.058 SA
BRANCH   8  11
HETATM   11  O1  UNL     1      19.371   2.306  47.832  1.00  0.00    -0.344 OA
HETATM   12  H8  UNL     1      18.345   2.311  47.762  1.00  0.00     0.219 HD
ENDBRANCH   8  11
ENDBRANCH   3   6
BRANCH   4  13
HETATM   13  C12 UNL     1      24.920   4.428  50.436  1.00  0.00    -0.033 A 
HETATM   14  C13 UNL     1      24.786   5.694  49.857  1.00  0.00     0.012 A 
HETATM   15  C14 UNL     1      25.753   6.190  49.001  1.00  0.00     0.043 A 
HETATM   16  C15 UNL     1      26.878   5.459  48.687  1.00  0.00     0.116 A 
HETATM   17  F1  UNL     1      27.884   5.842  47.865  1.00  0.00    -0.206 F 
HETATM   18  C16 UNL     1      27.009   4.201  49.264  1.00  0.00     0.043 A 
HETATM   19  C17 UNL     1      26.050   3.704  50.117  1.00  0.00     0.012 A 
ENDBRANCH   4  13
BRANCH   1  20
HETATM   20  C6  UNL     1      25.460   1.117  52.726  1.00  0.00     0.029 C 
HETATM   21  C5  UNL     1      26.254   0.420  51.960  1.00  0.00     0.002 C 
BRANCH  21  22
HETATM   22  C4  UNL     1      27.189  -0.543  52.527  1.00  0.00     0.000 C 
HETATM   23  C3  UNL     1      28.331  -0.208  53.115  1.00  0.00    -0.001 C 
BRANCH  23  24
HETATM   24  C2  UNL     1      29.249  -1.171  53.674  1.00  0.00    -0.010 C 
HETATM   25  C1  UNL     1      29.259  -2.445  53.292  1.00  0.00     0.011 C 
ENDBRANCH  23  24
ENDBRANCH  21  22
ENDBRANCH   1  20
TORSDOF 6
ENDMDL
MODEL 7
REMARK VINA RESULT:      -7.2      3.469      5.026
REMARK  6 active torsions:
REMARK  status: ('A' for Active; 'I' for Inactive)
REMARK    1  A    between atoms: C2_2  and  C3_3 
REMARK    2  A    between atoms: C4_4  and  C5_5 
REMARK    3  A    between atoms: C6_6  and  C7_7 
REMARK    4  A    between atoms: N2_9  and  C8_10 
REMARK    5  A    between atoms: C9_12  and  O1_13 
REMARK    6  A    between atoms: C11_16  and  C12_17 
ROOT
HETATM    1  C7  UNL     1      26.173   4.171  49.690  1.00  0.00     0.057 C 
HETATM    2  N1  UNL     1      25.926   2.953  50.004  1.00  0.00    -0.174 NA
HETATM    3  N2  UNL     1      24.811   2.799  50.801  1.00  0.00    -0.236 N 
HETATM    4  C11 UNL     1      24.010   3.947  50.432  1.00  0.00     0.151 C 
HETATM    5  C18 UNL     1      25.118   4.999  50.332  1.00  0.00     0.093 C 
ENDROOT
BRANCH   3   6
HETATM    6  C8  UNL     1      24.394   1.846  51.766  1.00  0.00     0.192 A 
HETATM    7  N3  UNL     1      23.460   1.496  52.385  1.00  0.00    -0.198 NA
HETATM    8  C9  UNL     1      23.405   0.511  53.255  1.00  0.00     0.171 A 
HETATM    9  C10 UNL     1      24.660  -0.231  53.470  1.00  0.00     0.111 A 
HETATM   10  S1  UNL     1      25.785   0.673  52.307  1.00  0.00    -0.058 SA
BRANCH   8  11
HETATM   11  O1  UNL     1      22.131   0.336  53.838  1.00  0.00    -0.344 OA
HETATM   12  H8  UNL     1      21.667  -0.569  53.694  1.00  0.00     0.219 HD
ENDBRANCH   8  11
ENDBRANCH   3   6
BRANCH   4  13
HETATM   13  C12 UNL     1      23.328   3.712  49.148  1.00  0.00    -0.033 A 
HETATM   14  C13 UNL     1      23.072   4.894  48.446  1.00  0.00     0.012 A 
HETATM   15  C14 UNL     1      22.438   4.868  47.218  1.00  0.00     0.043 A 
HETATM   16  C15 UNL     1      22.035   3.683  46.642  1.00  0.00     0.116 A 
HETATM   17  F1  UNL     1      21.409   3.539  45.450  1.00  0.00    -0.206 F 
HETATM   18  C16 UNL     1      22.290   2.509  47.341  1.00  0.00     0.043 A 
HETATM   19  C17 UNL     1      22.921   2.530  48.565  1.00  0.00     0.012 A 
ENDBRANCH   4  13
BRANCH   1  20
HETATM   20  C6  UNL     1      27.270   4.648  48.869  1.00  0.00     0.029 C 
HETATM   21  C5  UNL     1      27.380   5.921  48.603  1.00  0.00     0.002 C 
BRANCH  21  22
HETATM   22  C4  UNL     1      28.473   6.424  47.781  1.00  0.00     0.000 C 
HETATM   23  C3  UNL     1      28.441   7.585  47.137  1.00  0.00    -0.001 C 
BRANCH  23  24
HETATM   24  C2  UNL     1      29.530   8.074  46.325  1.00  0.00    -0.010 C 
HETATM   25  C1  UNL     1      30.759   7.570  46.411  1.00  0.00     0.011 C 
ENDBRANCH  23  24
ENDBRANCH  21  22
ENDBRANCH   1  20
TORSDOF 6
ENDMDL
MODEL 8
REMARK VINA RESULT:      -7.1      3.488      6.170
REMARK  6 active torsions:
REMARK  status: ('A' for Active; 'I' for Inactive)
REMARK    1  A    between atoms: C2_2  and  C3_3 
REMARK    2  A    between atoms: C4_4  and  C5_5 
REMARK    3  A    between atoms: C6_6  and  C7_7 
REMARK    4  A    between atoms: N2_9  and  C8_10 
REMARK    5  A    between atoms: C9_12  and  O1_13 
REMARK    6  A    between atoms: C11_16  and  C12_17 
ROOT
HETATM    1  C7  UNL     1      23.421   2.561  52.199  1.00  0.00     0.057 C 
HETATM    2  N1  UNL     1      24.382   2.885  52.981  1.00  0.00    -0.174 NA
HETATM    3  N2  UNL     1      25.590   2.306  52.650  1.00  0.00    -0.236 N 
HETATM    4  C11 UNL     1      25.450   2.106  51.222  1.00  0.00     0.151 C 
HETATM    5  C18 UNL     1      23.992   1.641  51.180  1.00  0.00     0.093 C 
ENDROOT
BRANCH   3   6
HETATM    6  C8  UNL     1      26.756   1.939  53.369  1.00  0.00     0.192 A 
HETATM    7  N3  UNL     1      27.794   2.352  53.732  1.00  0.00    -0.198 NA
HETATM    8  C9  UNL     1      28.706   1.709  54.429  1.00  0.00     0.171 A 
HETATM    9  C10 UNL     1      28.380   0.319  54.791  1.00  0.00     0.111 A 
HETATM   10  S1  UNL     1      26.705   0.156  54.017  1.00  0.00    -0.058 SA
BRANCH   8  11
HETATM   11  O1  UNL     1      29.854   2.480  54.711  1.00  0.00    -0.344 OA
HETATM   12  H8  UNL     1      30.765   2.007  54.654  1.00  0.00     0.219 HD
ENDBRANCH   8  11
ENDBRANCH   3   6
BRANCH   4  13
HETATM   13  C12 UNL     1      25.669   3.368  50.497  1.00  0.00    -0.033 A 
HETATM   14  C13 UNL     1      26.807   3.335  49.684  1.00  0.00     0.012 A 
HETATM   15  C14 UNL     1      27.170   4.434  48.926  1.00  0.00     0.043 A 
HETATM   16  C15 UNL     1      26.429   5.596  48.943  1.00  0.00     0.116 A 
HETATM   17  F1  UNL     1      26.690   6.727  48.245  1.00  0.00    -0.206 F 
HETATM   18  C16 UNL     1      25.300   5.626  49.752  1.00  0.00     0.043 A 
HETATM   19  C17 UNL     1      24.934   4.535  50.508  1.00  0.00     0.012 A 
ENDBRANCH   4  13
BRANCH   1  20
HETATM   20  C6  UNL     1      22.043   3.005  52.290  1.00  0.00     0.029 C 
HETATM   21  C5  UNL     1      21.069   2.154  52.109  1.00  0.00     0.002 C 
BRANCH  21  22
HETATM   22  C4  UNL     1      19.678   2.577  52.196  1.00  0.00     0.000 C 
HETATM   23  C3  UNL     1      19.129   3.485  51.398  1.00  0.00    -0.001 C 
BRANCH  23  24
HETATM   24  C2  UNL     1      17.749   3.896  51.493  1.00  0.00    -0.010 C 
HETATM   25  C1  UNL     1      16.742   3.049  51.292  1.00  0.00     0.011 C 
ENDBRANCH  23  24
ENDBRANCH  21  22
ENDBRANCH   1  20
TORSDOF 6
ENDMDL
MODEL 9
REMARK VINA RESULT:      -7.0      7.971     10.944
REMARK  6 active torsions:
REMARK  status: ('A' for Active; 'I' for Inactive)
REMARK    1  A    between atoms: C2_2  and  C3_3 
REMARK    2  A    between atoms: C4_4  and  C5_5 
REMARK    3  A    between atoms: C6_6  and  C7_7 
REMARK    4  A    between atoms: N2_9  and  C8_10 
REMARK    5  A    between atoms: C9_12  and  O1_13 
REMARK    6  A    between atoms: C11_16  and  C12_17 
ROOT
HETATM    1  C7  UNL     1      30.274   7.060  48.055  1.00  0.00     0.057 C 
HETATM    2  N1  UNL     1      30.809   7.403  46.943  1.00  0.00    -0.174 NA
HETATM    3  N2  UNL     1      32.170   7.620  47.024  1.00  0.00    -0.236 N 
HETATM    4  C11 UNL     1      32.551   6.762  48.126  1.00  0.00     0.151 C 
HETATM    5  C18 UNL     1      31.367   7.022  49.062  1.00  0.00     0.093 C 
ENDROOT
BRANCH   3   6
HETATM    6  C8  UNL     1      33.100   8.419  46.311  1.00  0.00     0.192 A 
HETATM    7  N3  UNL     1      34.250   8.568  46.128  1.00  0.00    -0.198 NA
HETATM    8  C9  UNL     1      34.823   9.464  45.353  1.00  0.00     0.171 A 
HETATM    9  C10 UNL     1      33.914  10.377  44.640  1.00  0.00     0.111 A 
HETATM   10  S1  UNL     1      32.276   9.754  45.243  1.00  0.00    -0.058 SA
BRANCH   8  11
HETATM   11  O1  UNL     1      36.233   9.389  45.343  1.00  0.00    -0.344 OA
HETATM   12  H8  UNL     1      36.748  10.237  45.075  1.00  0.00     0.219 HD
ENDBRANCH   8  11
ENDBRANCH   3   6
BRANCH   4  13
HETATM   13  C12 UNL     1      32.635   5.359  47.687  1.00  0.00    -0.033 A 
HETATM   14  C13 UNL     1      33.869   4.772  47.983  1.00  0.00     0.012 A 
HETATM   15  C14 UNL     1      34.129   3.456  47.645  1.00  0.00     0.043 A 
HETATM   16  C15 UNL     1      33.188   2.679  47.006  1.00  0.00     0.116 A 
HETATM   17  F1  UNL     1      33.333   1.386  46.629  1.00  0.00    -0.206 F 
HETATM   18  C16 UNL     1      31.962   3.265  46.712  1.00  0.00     0.043 A 
HETATM   19  C17 UNL     1      31.698   4.574  47.047  1.00  0.00     0.012 A 
ENDBRANCH   4  13
BRANCH   1  20
HETATM   20  C6  UNL     1      28.872   6.766  48.286  1.00  0.00     0.029 C 
HETATM   21  C5  UNL     1      28.482   5.531  48.449  1.00  0.00     0.002 C 
BRANCH  21  22
HETATM   22  C4  UNL     1      27.080   5.211  48.682  1.00  0.00     0.000 C 
HETATM   23  C3  UNL     1      26.666   4.139  49.347  1.00  0.00    -0.001 C 
BRANCH  23  24
HETATM   24  C2  UNL     1      25.274   3.832  49.572  1.00  0.00    -0.010 C 
HETATM   25  C1  UNL     1      24.294   4.574  49.063  1.00  0.00     0.011 C 
ENDBRANCH  23  24
ENDBRANCH  21  22
ENDBRANCH   1  20
TORSDOF 6
ENDMDL
