MODEL 1
REMARK VINA RESULT:      -9.1      0.000      0.000
REMARK  3 active torsions:
REMARK  status: ('A' for Active; 'I' for Inactive)
REMARK    1  A    between atoms: N1_1  and  C1_2 
REMARK    2  A    between atoms: C14_21  and  C15_22 
REMARK    3  A    between atoms: N8_24  and  C16_25 
ROOT
HETATM    1  C1  UNL     1      22.342   1.209  51.642  1.00  0.00     0.150 C 
HETATM    2  N2  UNL     1      22.474   2.045  50.679  1.00  0.00    -0.249 NA
HETATM    3  C2  UNL     1      21.327   2.523  49.908  1.00  0.00     0.301 C 
HETATM    4  N3  UNL     1      21.844   3.512  48.948  1.00  0.00    -0.261 N 
HETATM    5  C3  UNL     1      22.164   4.637  49.588  1.00  0.00     0.123 A 
HETATM    6  C4  UNL     1      22.660   5.533  48.671  1.00  0.00    -0.018 A 
HETATM    7  C5  UNL     1      22.620   4.884  47.435  1.00  0.00     0.148 A 
HETATM    8  N4  UNL     1      22.110   3.644  47.661  1.00  0.00    -0.183 NA
HETATM    9  C6  UNL     1      23.198   6.908  48.631  1.00  0.00     0.024 C 
HETATM   10  C7  UNL     1      24.584   6.976  48.001  1.00  0.00     0.029 C 
HETATM   11  C8  UNL     1      25.656   6.981  49.094  1.00  0.00     0.126 C 
HETATM   12  N5  UNL     1      25.218   6.042  50.090  1.00  0.00    -0.352 N 
HETATM   13  C9  UNL     1      24.326   6.880  50.912  1.00  0.00     0.126 C 
HETATM   14  C10 UNL     1      23.308   7.500  50.009  1.00  0.00     0.029 C 
HETATM   15  C11 UNL     1      25.659   4.671  50.082  1.00  0.00     0.221 C 
HETATM   16  O1  UNL     1      24.966   4.644  51.107  1.00  0.00    -0.273 OA
HETATM   17  C12 UNL     1      26.209   3.345  49.898  1.00  0.00     0.124 C 
HETATM   18  C13 UNL     1      25.729   2.348  50.898  1.00  0.00     0.159 C 
HETATM   19  N6  UNL     1      24.296   2.168  50.858  1.00  0.00    -0.282 NA
HETATM   20  C14 UNL     1      23.786   1.358  51.721  1.00  0.00     0.145 C 
ENDROOT
BRANCH  20  21
HETATM   21  C15 UNL     1      24.577   0.640  52.702  1.00  0.00     0.204 A 
HETATM   22  N7  UNL     1      24.427  -0.063  53.812  1.00  0.00    -0.143 NA
HETATM   23  N8  UNL     1      25.726   0.117  53.327  1.00  0.00    -0.210 N 
BRANCH  23  24
HETATM   24  C16 UNL     1      27.129  -0.080  53.405  1.00  0.00     0.060 A 
HETATM   25  C17 UNL     1      28.075   0.852  53.775  1.00  0.00     0.031 A 
HETATM   26  C18 UNL     1      29.417   0.608  53.833  1.00  0.00     0.002 A 
HETATM   27  C19 UNL     1      29.906  -0.639  53.509  1.00  0.00     0.000 A 
HETATM   28  C20 UNL     1      28.986  -1.588  53.137  1.00  0.00     0.002 A 
HETATM   29  C21 UNL     1      27.636  -1.331  53.082  1.00  0.00     0.031 A 
ENDBRANCH  23  24
ENDBRANCH  20  21
BRANCH   1  30
HETATM   30  N1  UNL     1      21.401   0.444  52.375  1.00  0.00    -0.382 N 
HETATM   31  H1  UNL     1      20.666   1.144  52.515  1.00  0.00     0.157 HD
HETATM   32  H2  UNL     1      22.085  -0.346  52.293  1.00  0.00     0.157 HD
ENDBRANCH   1  30
TORSDOF 3
ENDMDL
MODEL 2
REMARK VINA RESULT:      -8.3      1.966      7.058
REMARK  3 active torsions:
REMARK  status: ('A' for Active; 'I' for Inactive)
REMARK    1  A    between atoms: N1_1  and  C1_2 
REMARK    2  A    between atoms: C14_21  and  C15_22 
REMARK    3  A    between atoms: N8_24  and  C16_25 
ROOT
HETATM    1  C1  UNL     1      21.242   1.910  49.817  1.00  0.00     0.150 C 
HETATM    2  N2  UNL     1      21.654   1.413  50.925  1.00  0.00    -0.249 NA
HETATM    3  C2  UNL     1      21.194   0.110  51.404  1.00  0.00     0.301 C 
HETATM    4  N3  UNL     1      21.925  -0.163  52.653  1.00  0.00    -0.261 N 
HETATM    5  C3  UNL     1      23.194  -0.465  52.377  1.00  0.00     0.123 A 
HETATM    6  C4  UNL     1      23.853  -0.696  53.561  1.00  0.00    -0.018 A 
HETATM    7  C5  UNL     1      22.906  -0.519  54.572  1.00  0.00     0.148 A 
HETATM    8  N4  UNL     1      21.737  -0.192  53.960  1.00  0.00    -0.183 NA
HETATM    9  C6  UNL     1      25.206  -1.052  54.034  1.00  0.00     0.024 C 
HETATM   10  C7  UNL     1      25.755  -0.053  55.044  1.00  0.00     0.029 C 
HETATM   11  C8  UNL     1      26.666   0.955  54.340  1.00  0.00     0.126 C 
HETATM   12  N5  UNL     1      26.028   1.269  53.090  1.00  0.00    -0.352 N 
HETATM   13  C9  UNL     1      26.514   0.174  52.230  1.00  0.00     0.126 C 
HETATM   14  C10 UNL     1      26.190  -1.123  52.900  1.00  0.00     0.029 C 
HETATM   15  C11 UNL     1      25.161   2.409  52.950  1.00  0.00     0.221 C 
HETATM   16  O1  UNL     1      25.127   1.998  51.784  1.00  0.00    -0.273 OA
HETATM   17  C12 UNL     1      24.326   3.590  53.016  1.00  0.00     0.124 C 
HETATM   18  C13 UNL     1      23.622   3.902  51.738  1.00  0.00     0.159 C 
HETATM   19  N6  UNL     1      22.737   2.841  51.317  1.00  0.00    -0.282 NA
HETATM   20  C14 UNL     1      22.121   3.005  50.197  1.00  0.00     0.145 C 
ENDROOT
BRANCH  20  21
HETATM   21  C15 UNL     1      22.278   4.184  49.369  1.00  0.00     0.204 A 
HETATM   22  N7  UNL     1      21.559   5.010  48.629  1.00  0.00    -0.143 NA
HETATM   23  N8  UNL     1      22.934   5.249  48.719  1.00  0.00    -0.210 N 
BRANCH  23  24
HETATM   24  C16 UNL     1      24.097   5.995  48.401  1.00  0.00     0.060 A 
HETATM   25  C17 UNL     1      25.388   5.726  48.803  1.00  0.00     0.031 A 
HETATM   26  C18 UNL     1      26.475   6.481  48.466  1.00  0.00     0.002 A 
HETATM   27  C19 UNL     1      26.320   7.596  47.673  1.00  0.00     0.000 A 
HETATM   28  C20 UNL     1      25.045   7.889  47.257  1.00  0.00     0.002 A 
HETATM   29  C21 UNL     1      23.957   7.121  47.603  1.00  0.00     0.031 A 
ENDBRANCH  23  24
ENDBRANCH  20  21
BRANCH   1  30
HETATM   30  N1  UNL     1      20.400   1.683  48.700  1.00  0.00    -0.382 N 
HETATM   31  H1  UNL     1      20.627   0.705  48.496  1.00  0.00     0.157 HD
HETATM   32  H2  UNL     1      20.094   2.678  48.817  1.00  0.00     0.157 HD
ENDBRANCH   1  30
TORSDOF 3
ENDMDL
MODEL 3
REMARK VINA RESULT:      -8.2      3.428      6.474
REMARK  3 active torsions:
REMARK  status: ('A' for Active; 'I' for Inactive)
REMARK    1  A    between atoms: N1_1  and  C1_2 
REMARK    2  A    between atoms: C14_21  and  C15_22 
REMARK    3  A    between atoms: N8_24  and  C16_25 
ROOT
HETATM    1  C1  UNL     1      23.354   0.330  53.061  1.00  0.00     0.150 C 
HETATM    2  N2  UNL     1      23.350   1.458  52.452  1.00  0.00    -0.249 NA
HETATM    3  C2  UNL     1      24.586   2.100  52.008  1.00  0.00     0.301 C 
HETATM    4  N3  UNL     1      24.194   3.325  51.292  1.00  0.00    -0.261 N 
HETATM    5  C3  UNL     1      23.672   3.008  50.108  1.00  0.00     0.123 A 
HETATM    6  C4  UNL     1      23.300   4.169  49.472  1.00  0.00    -0.018 A 
HETATM    7  C5  UNL     1      23.629   5.210  50.344  1.00  0.00     0.148 A 
HETATM    8  N4  UNL     1      24.176   4.637  51.448  1.00  0.00    -0.183 NA
HETATM    9  C6  UNL     1      22.678   4.597  48.203  1.00  0.00     0.024 C 
HETATM   10  C7  UNL     1      21.442   5.461  48.418  1.00  0.00     0.029 C 
HETATM   11  C8  UNL     1      20.179   4.600  48.321  1.00  0.00     0.126 C 
HETATM   12  N5  UNL     1      20.483   3.365  48.989  1.00  0.00    -0.352 N 
HETATM   13  C9  UNL     1      21.132   2.599  47.909  1.00  0.00     0.126 C 
HETATM   14  C10 UNL     1      22.258   3.421  47.367  1.00  0.00     0.029 C 
HETATM   15  C11 UNL     1      20.156   3.154  50.375  1.00  0.00     0.221 C 
HETATM   16  O1  UNL     1      20.635   2.043  50.121  1.00  0.00    -0.273 OA
HETATM   17  C12 UNL     1      19.753   3.143  51.766  1.00  0.00     0.124 C 
HETATM   18  C13 UNL     1      20.102   1.884  52.484  1.00  0.00     0.159 C 
HETATM   19  N6  UNL     1      21.524   1.632  52.505  1.00  0.00    -0.282 NA
HETATM   20  C14 UNL     1      21.915   0.539  53.065  1.00  0.00     0.145 C 
ENDROOT
BRANCH  20  21
HETATM   21  C15 UNL     1      21.003  -0.419  53.661  1.00  0.00     0.204 A 
HETATM   22  N7  UNL     1      20.923  -1.239  54.695  1.00  0.00    -0.143 NA
HETATM   23  N8  UNL     1      19.835  -1.191  53.817  1.00  0.00    -0.210 N 
BRANCH  23  24
HETATM   24  C16 UNL     1      18.543  -1.604  53.404  1.00  0.00     0.060 A 
HETATM   25  C17 UNL     1      17.650  -0.885  52.638  1.00  0.00     0.031 A 
HETATM   26  C18 UNL     1      16.415  -1.333  52.268  1.00  0.00     0.002 A 
HETATM   27  C19 UNL     1      15.987  -2.581  52.663  1.00  0.00     0.000 A 
HETATM   28  C20 UNL     1      16.855  -3.321  53.427  1.00  0.00     0.002 A 
HETATM   29  C21 UNL     1      18.098  -2.859  53.794  1.00  0.00     0.031 A 
ENDBRANCH  23  24
ENDBRANCH  20  21
BRANCH   1  30
HETATM   30  N1  UNL     1      24.187  -0.704  53.554  1.00  0.00    -0.382 N 
HETATM   31  H1  UNL     1      24.695  -0.197  54.286  1.00  0.00     0.157 HD
HETATM   32  H2  UNL     1      23.733  -1.318  52.836  1.00  0.00     0.157 HD
ENDBRANCH   1  30
TORSDOF 3
ENDMDL
MODEL 4
REMARK VINA RESULT:      -8.1      2.984      6.266
REMARK  3 active torsions:
REMARK  status: ('A' for Active; 'I' for Inactive)
REMARK    1  A    between atoms: N1_1  and  C1_2 
REMARK    2  A    between atoms: C14_21  and  C15_22 
REMARK    3  A    between atoms: N8_24  and  C16_25 
ROOT
HETATM    1  C1  UNL     1      24.456   2.375  52.533  1.00  0.00     0.150 C 
HETATM    2  N2  UNL     1      23.293   1.902  52.277  1.00  0.00    -0.249 NA
HETATM    3  C2  UNL     1      22.450   1.319  53.321  1.00  0.00     0.301 C 
HETATM    4  N3  UNL     1      21.175   0.954  52.682  1.00  0.00    -0.261 N 
HETATM    5  C3  UNL     1      20.471   2.055  52.420  1.00  0.00     0.123 A 
HETATM    6  C4  UNL     1      19.297   1.683  51.808  1.00  0.00    -0.018 A 
HETATM    7  C5  UNL     1      19.332   0.290  51.717  1.00  0.00     0.148 A 
HETATM    8  N4  UNL     1      20.508  -0.109  52.269  1.00  0.00    -0.183 NA
HETATM    9  C6  UNL     1      18.084   2.311  51.247  1.00  0.00     0.024 C 
HETATM   10  C7  UNL     1      17.835   1.912  49.798  1.00  0.00     0.029 C 
HETATM   11  C8  UNL     1      18.382   2.989  48.857  1.00  0.00     0.126 C 
HETATM   12  N5  UNL     1      19.633   3.417  49.421  1.00  0.00    -0.352 N 
HETATM   13  C9  UNL     1      19.186   4.437  50.387  1.00  0.00     0.126 C 
HETATM   14  C10 UNL     1      18.167   3.812  51.286  1.00  0.00     0.029 C 
HETATM   15  C11 UNL     1      20.885   2.843  49.004  1.00  0.00     0.221 C 
HETATM   16  O1  UNL     1      21.316   3.676  49.810  1.00  0.00    -0.273 OA
HETATM   17  C12 UNL     1      22.028   2.140  48.457  1.00  0.00     0.124 C 
HETATM   18  C13 UNL     1      23.329   2.542  49.065  1.00  0.00     0.159 C 
HETATM   19  N6  UNL     1      23.380   2.290  50.487  1.00  0.00    -0.282 NA
HETATM   20  C14 UNL     1      24.453   2.650  51.105  1.00  0.00     0.145 C 
ENDROOT
BRANCH  20  21
HETATM   21  C15 UNL     1      25.578   3.279  50.442  1.00  0.00     0.204 A 
HETATM   22  N7  UNL     1      26.870   3.091  50.234  1.00  0.00    -0.143 NA
HETATM   23  N8  UNL     1      26.284   4.236  49.686  1.00  0.00    -0.210 N 
BRANCH  23  24
HETATM   24  C16 UNL     1      26.350   5.439  48.938  1.00  0.00     0.060 A 
HETATM   25  C17 UNL     1      25.293   6.245  48.572  1.00  0.00     0.031 A 
HETATM   26  C18 UNL     1      25.414   7.397  47.849  1.00  0.00     0.002 A 
HETATM   27  C19 UNL     1      26.657   7.823  47.435  1.00  0.00     0.000 A 
HETATM   28  C20 UNL     1      27.729   7.041  47.785  1.00  0.00     0.002 A 
HETATM   29  C21 UNL     1      27.595   5.882  48.514  1.00  0.00     0.031 A 
ENDBRANCH  23  24
ENDBRANCH  20  21
BRANCH   1  30
HETATM   30  N1  UNL     1      25.403   2.599  53.563  1.00  0.00    -0.382 N 
HETATM   31  H1  UNL     1      25.321   3.614  53.670  1.00  0.00     0.157 HD
HETATM   32  H2  UNL     1      25.570   1.564  53.538  1.00  0.00     0.157 HD
ENDBRANCH   1  30
TORSDOF 3
ENDMDL
MODEL 5
REMARK VINA RESULT:      -8.1      1.982      3.937
REMARK  3 active torsions:
REMARK  status: ('A' for Active; 'I' for Inactive)
REMARK    1  A    between atoms: N1_1  and  C1_2 
REMARK    2  A    between atoms: C14_21  and  C15_22 
REMARK    3  A    between atoms: N8_24  and  C16_25 
ROOT
HETATM    1  C1  UNL     1      25.372   3.191  51.347  1.00  0.00     0.150 C 
HETATM    2  N2  UNL     1      24.331   3.913  51.152  1.00  0.00    -0.249 NA
HETATM    3  C2  UNL     1      24.410   5.223  50.507  1.00  0.00     0.301 C 
HETATM    4  N3  UNL     1      23.029   5.720  50.386  1.00  0.00    -0.261 N 
HETATM    5  C3  UNL     1      22.388   5.043  49.434  1.00  0.00     0.123 A 
HETATM    6  C4  UNL     1      21.098   5.516  49.358  1.00  0.00    -0.018 A 
HETATM    7  C5  UNL     1      20.998   6.522  50.322  1.00  0.00     0.148 A 
HETATM    8  N4  UNL     1      22.213   6.607  50.926  1.00  0.00    -0.183 NA
HETATM    9  C6  UNL     1      19.861   5.267  48.592  1.00  0.00     0.024 C 
HETATM   10  C7  UNL     1      18.668   4.963  49.489  1.00  0.00     0.029 C 
HETATM   11  C8  UNL     1      18.468   3.449  49.598  1.00  0.00     0.126 C 
HETATM   12  N5  UNL     1      19.783   2.878  49.706  1.00  0.00    -0.352 N 
HETATM   13  C9  UNL     1      20.168   2.760  48.287  1.00  0.00     0.126 C 
HETATM   14  C10 UNL     1      20.016   4.105  47.651  1.00  0.00     0.029 C 
HETATM   15  C11 UNL     1      20.379   2.589  50.983  1.00  0.00     0.221 C 
HETATM   16  O1  UNL     1      21.283   2.168  50.251  1.00  0.00    -0.273 OA
HETATM   17  C12 UNL     1      20.802   2.380  52.353  1.00  0.00     0.124 C 
HETATM   18  C13 UNL     1      22.181   1.829  52.481  1.00  0.00     0.159 C 
HETATM   19  N6  UNL     1      23.183   2.699  51.909  1.00  0.00    -0.282 NA
HETATM   20  C14 UNL     1      24.402   2.281  51.933  1.00  0.00     0.145 C 
ENDROOT
BRANCH  20  21
HETATM   21  C15 UNL     1      24.792   1.004  52.499  1.00  0.00     0.204 A 
HETATM   22  N7  UNL     1      24.255  -0.067  53.058  1.00  0.00    -0.143 NA
HETATM   23  N8  UNL     1      25.646  -0.039  52.909  1.00  0.00    -0.210 N 
BRANCH  23  24
HETATM   24  C16 UNL     1      26.931  -0.620  53.058  1.00  0.00     0.060 A 
HETATM   25  C17 UNL     1      28.077   0.008  53.497  1.00  0.00     0.031 A 
HETATM   26  C18 UNL     1      29.292  -0.602  53.621  1.00  0.00     0.002 A 
HETATM   27  C19 UNL     1      29.432  -1.933  53.297  1.00  0.00     0.000 A 
HETATM   28  C20 UNL     1      28.307  -2.585  52.857  1.00  0.00     0.002 A 
HETATM   29  C21 UNL     1      27.087  -1.961  52.736  1.00  0.00     0.031 A 
ENDBRANCH  23  24
ENDBRANCH  20  21
BRANCH   1  30
HETATM   30  N1  UNL     1      26.777   3.132  51.169  1.00  0.00    -0.382 N 
HETATM   31  H1  UNL     1      27.078   3.822  51.864  1.00  0.00     0.157 HD
HETATM   32  H2  UNL     1      26.583   2.412  50.432  1.00  0.00     0.157 HD
ENDBRANCH   1  30
TORSDOF 3
ENDMDL
MODEL 6
REMARK VINA RESULT:      -8.0      2.687      4.564
REMARK  3 active torsions:
REMARK  status: ('A' for Active; 'I' for Inactive)
REMARK    1  A    between atoms: N1_1  and  C1_2 
REMARK    2  A    between atoms: C14_21  and  C15_22 
REMARK    3  A    between atoms: N8_24  and  C16_25 
ROOT
HETATM    1  C1  UNL     1      22.708   6.752  50.416  1.00  0.00     0.150 C 
HETATM    2  N2  UNL     1      23.352   7.088  49.360  1.00  0.00    -0.249 NA
HETATM    3  C2  UNL     1      22.885   8.156  48.478  1.00  0.00     0.301 C 
HETATM    4  N3  UNL     1      23.901   8.310  47.424  1.00  0.00    -0.261 N 
HETATM    5  C3  UNL     1      24.986   8.899  47.926  1.00  0.00     0.123 A 
HETATM    6  C4  UNL     1      25.922   9.012  46.925  1.00  0.00    -0.018 A 
HETATM    7  C5  UNL     1      25.337   8.458  45.784  1.00  0.00     0.148 A 
HETATM    8  N4  UNL     1      24.094   8.041  46.145  1.00  0.00    -0.183 NA
HETATM    9  C6  UNL     1      27.295   9.520  46.733  1.00  0.00     0.024 C 
HETATM   10  C7  UNL     1      28.237   8.463  46.168  1.00  0.00     0.029 C 
HETATM   11  C8  UNL     1      29.031   7.810  47.302  1.00  0.00     0.126 C 
HETATM   12  N5  UNL     1      28.107   7.636  48.390  1.00  0.00    -0.352 N 
HETATM   13  C9  UNL     1      28.179   8.952  49.050  1.00  0.00     0.126 C 
HETATM   14  C10 UNL     1      27.894  10.003  48.024  1.00  0.00     0.029 C 
HETATM   15  C11 UNL     1      27.393   6.401  48.584  1.00  0.00     0.221 C 
HETATM   16  O1  UNL     1      26.972   7.022  49.567  1.00  0.00    -0.273 OA
HETATM   17  C12 UNL     1      26.772   5.093  48.602  1.00  0.00     0.124 C 
HETATM   18  C13 UNL     1      25.778   4.912  49.698  1.00  0.00     0.159 C 
HETATM   19  N6  UNL     1      24.679   5.846  49.612  1.00  0.00    -0.282 NA
HETATM   20  C14 UNL     1      23.794   5.793  50.547  1.00  0.00     0.145 C 
ENDROOT
BRANCH  20  21
HETATM   21  C15 UNL     1      23.859   4.856  51.651  1.00  0.00     0.204 A 
HETATM   22  N7  UNL     1      23.465   4.736  52.908  1.00  0.00    -0.143 NA
HETATM   23  N8  UNL     1      24.190   3.678  52.350  1.00  0.00    -0.210 N 
BRANCH  23  24
HETATM   24  C16 UNL     1      24.794   2.397  52.429  1.00  0.00     0.060 A 
HETATM   25  C17 UNL     1      26.017   2.026  51.912  1.00  0.00     0.031 A 
HETATM   26  C18 UNL     1      26.552   0.774  52.017  1.00  0.00     0.002 A 
HETATM   27  C19 UNL     1      25.860  -0.218  52.675  1.00  0.00     0.000 A 
HETATM   28  C20 UNL     1      24.638   0.122  53.200  1.00  0.00     0.002 A 
HETATM   29  C21 UNL     1      24.109   1.387  53.088  1.00  0.00     0.031 A 
ENDBRANCH  23  24
ENDBRANCH  20  21
BRANCH   1  30
HETATM   30  N1  UNL     1      21.559   7.031  51.196  1.00  0.00    -0.382 N 
HETATM   31  H1  UNL     1      21.412   6.119  51.639  1.00  0.00     0.157 HD
HETATM   32  H2  UNL     1      21.613   8.001  50.802  1.00  0.00     0.157 HD
ENDBRANCH   1  30
TORSDOF 3
ENDMDL
MODEL 7
REMARK VINA RESULT:      -8.0      1.885      2.977
REMARK  3 active torsions:
REMARK  status: ('A' for Active; 'I' for Inactive)
REMARK    1  A    between atoms: N1_1  and  C1_2 
REMARK    2  A    between atoms: C14_21  and  C15_22 
REMARK    3  A    between atoms: N8_24  and  C16_25 
ROOT
HETATM    1  C1  UNL     1      21.396   4.528  50.418  1.00  0.00     0.150 C 
HETATM    2  N2  UNL     1      22.047   5.170  49.519  1.00  0.00    -0.249 NA
HETATM    3  C2  UNL     1      21.415   6.199  48.694  1.00  0.00     0.301 C 
HETATM    4  N3  UNL     1      22.470   6.763  47.837  1.00  0.00    -0.261 N 
HETATM    5  C3  UNL     1      23.280   7.531  48.565  1.00  0.00     0.123 A 
HETATM    6  C4  UNL     1      24.264   8.027  47.743  1.00  0.00    -0.018 A 
HETATM    7  C5  UNL     1      24.000   7.514  46.471  1.00  0.00     0.148 A 
HETATM    8  N4  UNL     1      22.886   6.743  46.583  1.00  0.00    -0.183 NA
HETATM    9  C6  UNL     1      25.456   8.895  47.826  1.00  0.00     0.024 C 
HETATM   10  C7  UNL     1      26.715   8.212  47.306  1.00  0.00     0.029 C 
HETATM   11  C8  UNL     1      27.513   7.627  48.475  1.00  0.00     0.126 C 
HETATM   12  N5  UNL     1      26.547   7.062  49.377  1.00  0.00    -0.352 N 
HETATM   13  C9  UNL     1      26.170   8.242  50.178  1.00  0.00     0.126 C 
HETATM   14  C10 UNL     1      25.734   9.321  49.240  1.00  0.00     0.029 C 
HETATM   15  C11 UNL     1      26.183   5.671  49.321  1.00  0.00     0.221 C 
HETATM   16  O1  UNL     1      25.489   6.011  50.287  1.00  0.00    -0.273 OA
HETATM   17  C12 UNL     1      25.952   4.259  49.100  1.00  0.00     0.124 C 
HETATM   18  C13 UNL     1      24.919   3.669  50.000  1.00  0.00     0.159 C 
HETATM   19  N6  UNL     1      23.624   4.289  49.842  1.00  0.00    -0.282 NA
HETATM   20  C14 UNL     1      22.680   3.874  50.615  1.00  0.00     0.145 C 
ENDROOT
BRANCH  20  21
HETATM   21  C15 UNL     1      22.866   2.834  51.607  1.00  0.00     0.204 A 
HETATM   22  N7  UNL     1      22.219   2.251  52.603  1.00  0.00    -0.143 NA
HETATM   23  N8  UNL     1      23.513   1.804  52.318  1.00  0.00    -0.210 N 
BRANCH  23  24
HETATM   24  C16 UNL     1      24.625   0.958  52.561  1.00  0.00     0.060 A 
HETATM   25  C17 UNL     1      25.832   0.967  51.895  1.00  0.00     0.031 A 
HETATM   26  C18 UNL     1      26.872   0.127  52.170  1.00  0.00     0.002 A 
HETATM   27  C19 UNL     1      26.755  -0.810  53.174  1.00  0.00     0.000 A 
HETATM   28  C20 UNL     1      25.564  -0.842  53.855  1.00  0.00     0.002 A 
HETATM   29  C21 UNL     1      24.522   0.010  53.569  1.00  0.00     0.031 A 
ENDBRANCH  23  24
ENDBRANCH  20  21
BRANCH   1  30
HETATM   30  N1  UNL     1      20.127   4.384  51.032  1.00  0.00    -0.382 N 
HETATM   31  H1  UNL     1      19.588   5.076  50.503  1.00  0.00     0.157 HD
HETATM   32  H2  UNL     1      20.580   3.655  51.634  1.00  0.00     0.157 HD
ENDBRANCH   1  30
TORSDOF 3
ENDMDL
MODEL 8
REMARK VINA RESULT:      -7.9      6.125      9.882
REMARK  3 active torsions:
REMARK  status: ('A' for Active; 'I' for Inactive)
REMARK    1  A    between atoms: N1_1  and  C1_2 
REMARK    2  A    between atoms: C14_21  and  C15_22 
REMARK    3  A    between atoms: N8_24  and  C16_25 
ROOT
HETATM    1  C1  UNL     1      29.624  10.485  48.777  1.00  0.00     0.150 C 
HETATM    2  N2  UNL     1      30.434   9.827  48.032  1.00  0.00    -0.249 NA
HETATM    3  C2  UNL     1      31.590  10.462  47.400  1.00  0.00     0.301 C 
HETATM    4  N3  UNL     1      32.322   9.399  46.692  1.00  0.00    -0.261 N 
HETATM    5  C3  UNL     1      32.952   8.621  47.572  1.00  0.00     0.123 A 
HETATM    6  C4  UNL     1      33.611   7.630  46.884  1.00  0.00    -0.018 A 
HETATM    7  C5  UNL     1      33.343   7.855  45.532  1.00  0.00     0.148 A 
HETATM    8  N4  UNL     1      32.546   8.955  45.468  1.00  0.00    -0.183 NA
HETATM    9  C6  UNL     1      34.465   6.458  47.160  1.00  0.00     0.024 C 
HETATM   10  C7  UNL     1      33.913   5.174  46.553  1.00  0.00     0.029 C 
HETATM   11  C8  UNL     1      33.130   4.391  47.611  1.00  0.00     0.126 C 
HETATM   12  N5  UNL     1      32.390   5.365  48.365  1.00  0.00    -0.352 N 
HETATM   13  C9  UNL     1      33.391   5.784  49.365  1.00  0.00     0.126 C 
HETATM   14  C10 UNL     1      34.621   6.220  48.636  1.00  0.00     0.029 C 
HETATM   15  C11 UNL     1      31.028   5.699  48.039  1.00  0.00     0.221 C 
HETATM   16  O1  UNL     1      31.169   6.421  49.033  1.00  0.00    -0.273 OA
HETATM   17  C12 UNL     1      29.680   5.897  47.549  1.00  0.00     0.124 C 
HETATM   18  C13 UNL     1      28.915   6.937  48.295  1.00  0.00     0.159 C 
HETATM   19  N6  UNL     1      29.534   8.240  48.224  1.00  0.00    -0.282 NA
HETATM   20  C14 UNL     1      28.964   9.193  48.879  1.00  0.00     0.145 C 
ENDROOT
BRANCH  20  21
HETATM   21  C15 UNL     1      27.759   9.008  49.662  1.00  0.00     0.204 A 
HETATM   22  N7  UNL     1      27.030   9.635  50.571  1.00  0.00    -0.143 NA
HETATM   23  N8  UNL     1      26.597   8.374  50.148  1.00  0.00    -0.210 N 
BRANCH  23  24
HETATM   24  C16 UNL     1      25.685   7.289  50.182  1.00  0.00     0.060 A 
HETATM   25  C17 UNL     1      25.815   6.079  49.535  1.00  0.00     0.031 A 
HETATM   26  C18 UNL     1      24.902   5.065  49.602  1.00  0.00     0.002 A 
HETATM   27  C19 UNL     1      23.760   5.216  50.356  1.00  0.00     0.000 A 
HETATM   28  C20 UNL     1      23.603   6.411  51.012  1.00  0.00     0.002 A 
HETATM   29  C21 UNL     1      24.529   7.426  50.937  1.00  0.00     0.031 A 
ENDBRANCH  23  24
ENDBRANCH  20  21
BRANCH   1  30
HETATM   30  N1  UNL     1      29.346  11.764  49.319  1.00  0.00    -0.382 N 
HETATM   31  H1  UNL     1      29.325  11.538  50.319  1.00  0.00     0.157 HD
HETATM   32  H2  UNL     1      29.344  12.106  48.329  1.00  0.00     0.157 HD
ENDBRANCH   1  30
TORSDOF 3
ENDMDL
MODEL 9
REMARK VINA RESULT:      -7.9      2.396      4.637
REMARK  3 active torsions:
REMARK  status: ('A' for Active; 'I' for Inactive)
REMARK    1  A    between atoms: N1_1  and  C1_2 
REMARK    2  A    between atoms: C14_21  and  C15_22 
REMARK    3  A    between atoms: N8_24  and  C16_25 
ROOT
HETATM    1  C1  UNL     1      24.866   6.283  50.337  1.00  0.00     0.150 C 
HETATM    2  N2  UNL     1      23.622   6.269  50.026  1.00  0.00    -0.249 NA
HETATM    3  C2  UNL     1      22.821   7.491  49.992  1.00  0.00     0.301 C 
HETATM    4  N3  UNL     1      21.478   7.105  49.528  1.00  0.00    -0.261 N 
HETATM    5  C3  UNL     1      21.513   6.828  48.224  1.00  0.00     0.123 A 
HETATM    6  C4  UNL     1      20.252   6.454  47.825  1.00  0.00    -0.018 A 
HETATM    7  C5  UNL     1      19.450   6.522  48.966  1.00  0.00     0.148 A 
HETATM    8  N4  UNL     1      20.252   6.927  49.985  1.00  0.00    -0.183 NA
HETATM    9  C6  UNL     1      19.553   6.018  46.600  1.00  0.00     0.024 C 
HETATM   10  C7  UNL     1      18.842   4.682  46.775  1.00  0.00     0.029 C 
HETATM   11  C8  UNL     1      19.719   3.548  46.236  1.00  0.00     0.126 C 
HETATM   12  N5  UNL     1      21.065   3.858  46.636  1.00  0.00    -0.352 N 
HETATM   13  C9  UNL     1      21.495   4.756  45.548  1.00  0.00     0.126 C 
HETATM   14  C10 UNL     1      20.501   5.868  45.443  1.00  0.00     0.029 C 
HETATM   15  C11 UNL     1      21.637   3.321  47.843  1.00  0.00     0.221 C 
HETATM   16  O1  UNL     1      22.619   3.948  47.427  1.00  0.00    -0.273 OA
HETATM   17  C12 UNL     1      22.022   2.690  49.088  1.00  0.00     0.124 C 
HETATM   18  C13 UNL     1      23.401   3.037  49.538  1.00  0.00     0.159 C 
HETATM   19  N6  UNL     1      23.570   4.453  49.769  1.00  0.00    -0.282 NA
HETATM   20  C14 UNL     1      24.746   4.851  50.117  1.00  0.00     0.145 C 
ENDROOT
BRANCH  20  21
HETATM   21  C15 UNL     1      25.872   3.953  50.281  1.00  0.00     0.204 A 
HETATM   22  N7  UNL     1      27.042   3.678  49.730  1.00  0.00    -0.143 NA
HETATM   23  N8  UNL     1      26.654   2.923  50.841  1.00  0.00    -0.210 N 
BRANCH  23  24
HETATM   24  C16 UNL     1      26.878   1.902  51.800  1.00  0.00     0.060 A 
HETATM   25  C17 UNL     1      26.353   0.627  51.788  1.00  0.00     0.031 A 
HETATM   26  C18 UNL     1      26.603  -0.319  52.740  1.00  0.00     0.002 A 
HETATM   27  C19 UNL     1      27.430  -0.027  53.802  1.00  0.00     0.000 A 
HETATM   28  C20 UNL     1      27.968   1.235  53.840  1.00  0.00     0.002 A 
HETATM   29  C21 UNL     1      27.709   2.181  52.875  1.00  0.00     0.031 A 
ENDBRANCH  23  24
ENDBRANCH  20  21
BRANCH   1  30
HETATM   30  N1  UNL     1      25.943   7.121  50.719  1.00  0.00    -0.382 N 
HETATM   31  H1  UNL     1      26.592   6.950  49.945  1.00  0.00     0.157 HD
HETATM   32  H2  UNL     1      25.362   7.369  51.556  1.00  0.00     0.157 HD
ENDBRANCH   1  30
TORSDOF 3
ENDMDL
