MODEL 1
REMARK VINA RESULT:      -8.5      0.000      0.000
REMARK  4 active torsions:
REMARK  status: ('A' for Active; 'I' for Inactive)
REMARK    1  A    between atoms: C3_3  and  O1_4 
REMARK    2  A    between atoms: C9_12  and  N3_13 
REMARK    3  A    between atoms: N3_13  and  C11_15 
REMARK    4  A    between atoms: C15_19  and  C16_20 
ROOT
HETATM    1  C1  UNL     1      18.665  -1.038  53.326  1.00  0.00     0.028 C 
HETATM    2  C2  UNL     1      19.832  -0.572  52.871  1.00  0.00     0.018 A 
HETATM    3  C3  UNL     1      20.196   0.161  51.651  1.00  0.00     0.081 A 
HETATM    4  C5  UNL     1      21.501   0.362  51.728  1.00  0.00     0.055 A 
HETATM    5  C6  UNL     1      22.051  -0.195  52.935  1.00  0.00     0.043 A 
HETATM    6  C7  UNL     1      21.036  -0.790  53.678  1.00  0.00     0.084 A 
HETATM    7  N1  UNL     1      21.350  -1.376  54.859  1.00  0.00    -0.240 NA
HETATM    8  C8  UNL     1      22.618  -1.394  55.324  1.00  0.00     0.236 A 
HETATM    9  N2  UNL     1      23.603  -0.820  54.608  1.00  0.00    -0.223 NA
HETATM   10  C9  UNL     1      23.333  -0.228  53.432  1.00  0.00     0.144 A 
ENDROOT
BRANCH  10  11
HETATM   11  N3  UNL     1      24.399   0.368  52.701  1.00  0.00    -0.335 N 
HETATM   12  C10 UNL     1      24.260   1.522  51.818  1.00  0.00     0.158 C 
BRANCH  11  13
HETATM   13  C11 UNL     1      25.712  -0.179  52.819  1.00  0.00     0.036 A 
HETATM   14  C12 UNL     1      25.953  -1.486  52.452  1.00  0.00     0.029 A 
HETATM   15  C13 UNL     1      27.213  -2.034  52.558  1.00  0.00     0.003 A 
HETATM   16  C14 UNL     1      28.263  -1.273  53.038  1.00  0.00     0.016 A 
HETATM   17  C15 UNL     1      28.049   0.039  53.413  1.00  0.00     0.050 A 
HETATM   18  C17 UNL     1      26.776   0.574  53.301  1.00  0.00     0.045 A 
BRANCH  17  19
HETATM   19  C16 UNL     1      29.175   0.859  53.929  1.00  0.00     0.417 C 
HETATM   20  F1  UNL     1      29.109   2.140  53.408  1.00  0.00    -0.166 F 
HETATM   21  F2  UNL     1      30.402   0.363  53.566  1.00  0.00    -0.166 F 
HETATM   22  F3  UNL     1      29.105   0.877  55.314  1.00  0.00    -0.166 F 
ENDBRANCH  17  19
ENDBRANCH  11  13
ENDBRANCH  10  11
BRANCH   3  23
HETATM   23  O1  UNL     1      19.163   0.447  50.775  1.00  0.00    -0.355 OA
HETATM   24  C4  UNL     1      19.256   1.523  49.862  1.00  0.00     0.210 C 
ENDBRANCH   3  23
TORSDOF 4
ENDMDL
MODEL 2
REMARK VINA RESULT:      -8.1      5.000      7.583
REMARK  4 active torsions:
REMARK  status: ('A' for Active; 'I' for Inactive)
REMARK    1  A    between atoms: C3_3  and  O1_4 
REMARK    2  A    between atoms: C9_12  and  N3_13 
REMARK    3  A    between atoms: N3_13  and  C11_15 
REMARK    4  A    between atoms: C15_19  and  C16_20 
ROOT
HETATM    1  C1  UNL     1      26.415   7.011  48.341  1.00  0.00     0.028 C 
HETATM    2  C2  UNL     1      26.315   5.844  48.985  1.00  0.00     0.018 A 
HETATM    3  C3  UNL     1      27.149   4.636  48.976  1.00  0.00     0.081 A 
HETATM    4  C5  UNL     1      26.567   3.790  49.809  1.00  0.00     0.055 A 
HETATM    5  C6  UNL     1      25.378   4.355  50.390  1.00  0.00     0.043 A 
HETATM    6  C7  UNL     1      25.186   5.643  49.898  1.00  0.00     0.084 A 
HETATM    7  N1  UNL     1      24.112   6.351  50.326  1.00  0.00    -0.240 NA
HETATM    8  C8  UNL     1      23.234   5.835  51.212  1.00  0.00     0.236 A 
HETATM    9  N2  UNL     1      23.416   4.591  51.691  1.00  0.00    -0.223 NA
HETATM   10  C9  UNL     1      24.468   3.855  51.292  1.00  0.00     0.144 A 
ENDROOT
BRANCH  10  11
HETATM   11  N3  UNL     1      24.630   2.542  51.818  1.00  0.00    -0.335 N 
HETATM   12  C10 UNL     1      25.889   1.991  52.308  1.00  0.00     0.158 C 
BRANCH  11  13
HETATM   13  C11 UNL     1      23.496   1.678  51.884  1.00  0.00     0.036 A 
HETATM   14  C12 UNL     1      22.734   1.448  50.758  1.00  0.00     0.029 A 
HETATM   15  C13 UNL     1      21.635   0.617  50.800  1.00  0.00     0.003 A 
HETATM   16  C14 UNL     1      21.279  -0.004  51.983  1.00  0.00     0.016 A 
HETATM   17  C15 UNL     1      22.026   0.209  53.125  1.00  0.00     0.050 A 
HETATM   18  C17 UNL     1      23.126   1.048  53.066  1.00  0.00     0.045 A 
BRANCH  17  19
HETATM   19  C16 UNL     1      21.645  -0.456  54.398  1.00  0.00     0.417 C 
HETATM   20  F1  UNL     1      20.816  -1.536  54.141  1.00  0.00    -0.166 F 
HETATM   21  F2  UNL     1      20.943   0.370  55.240  1.00  0.00    -0.166 F 
HETATM   22  F3  UNL     1      22.803  -0.857  55.047  1.00  0.00    -0.166 F 
ENDBRANCH  17  19
ENDBRANCH  11  13
ENDBRANCH  10  11
BRANCH   3  23
HETATM   23  O1  UNL     1      28.265   4.666  48.156  1.00  0.00    -0.355 OA
HETATM   24  C4  UNL     1      29.366   5.501  48.452  1.00  0.00     0.210 C 
ENDBRANCH   3  23
TORSDOF 4
ENDMDL
MODEL 3
REMARK VINA RESULT:      -8.1      4.411      7.346
REMARK  4 active torsions:
REMARK  status: ('A' for Active; 'I' for Inactive)
REMARK    1  A    between atoms: C3_3  and  O1_4 
REMARK    2  A    between atoms: C9_12  and  N3_13 
REMARK    3  A    between atoms: N3_13  and  C11_15 
REMARK    4  A    between atoms: C15_19  and  C16_20 
ROOT
HETATM    1  C1  UNL     1      28.516   1.523  53.005  1.00  0.00     0.028 C 
HETATM    2  C2  UNL     1      27.214   1.826  53.015  1.00  0.00     0.018 A 
HETATM    3  C3  UNL     1      26.154   1.600  54.007  1.00  0.00     0.081 A 
HETATM    4  C5  UNL     1      25.054   2.112  53.481  1.00  0.00     0.055 A 
HETATM    5  C6  UNL     1      25.303   2.678  52.182  1.00  0.00     0.043 A 
HETATM    6  C7  UNL     1      26.647   2.518  51.854  1.00  0.00     0.084 A 
HETATM    7  N1  UNL     1      27.088   2.987  50.661  1.00  0.00    -0.240 NA
HETATM    8  C8  UNL     1      26.255   3.601  49.793  1.00  0.00     0.236 A 
HETATM    9  N2  UNL     1      24.956   3.758  50.106  1.00  0.00    -0.223 NA
HETATM   10  C9  UNL     1      24.479   3.307  51.279  1.00  0.00     0.144 A 
ENDROOT
BRANCH  10  11
HETATM   11  N3  UNL     1      23.099   3.489  51.577  1.00  0.00    -0.335 N 
HETATM   12  C10 UNL     1      22.508   4.736  52.053  1.00  0.00     0.158 C 
BRANCH  11  13
HETATM   13  C11 UNL     1      22.202   2.392  51.408  1.00  0.00     0.036 A 
HETATM   14  C12 UNL     1      21.811   2.006  50.143  1.00  0.00     0.029 A 
HETATM   15  C13 UNL     1      20.947   0.949  49.957  1.00  0.00     0.003 A 
HETATM   16  C14 UNL     1      20.454   0.255  51.047  1.00  0.00     0.016 A 
HETATM   17  C15 UNL     1      20.830   0.621  52.325  1.00  0.00     0.050 A 
HETATM   18  C17 UNL     1      21.699   1.686  52.494  1.00  0.00     0.045 A 
BRANCH  17  19
HETATM   19  C16 UNL     1      20.302  -0.123  53.498  1.00  0.00     0.417 C 
HETATM   20  F1  UNL     1      18.950  -0.374  53.333  1.00  0.00    -0.166 F 
HETATM   21  F2  UNL     1      20.417   0.584  54.669  1.00  0.00    -0.166 F 
HETATM   22  F3  UNL     1      21.019  -1.302  53.628  1.00  0.00    -0.166 F 
ENDBRANCH  17  19
ENDBRANCH  11  13
ENDBRANCH  10  11
BRANCH   3  23
HETATM   23  O1  UNL     1      26.530   0.951  55.171  1.00  0.00    -0.355 OA
HETATM   24  C4  UNL     1      26.118  -0.375  55.434  1.00  0.00     0.210 C 
ENDBRANCH   3  23
TORSDOF 4
ENDMDL
MODEL 4
REMARK VINA RESULT:      -8.0      4.871      6.957
REMARK  4 active torsions:
REMARK  status: ('A' for Active; 'I' for Inactive)
REMARK    1  A    between atoms: C3_3  and  O1_4 
REMARK    2  A    between atoms: C9_12  and  N3_13 
REMARK    3  A    between atoms: N3_13  and  C11_15 
REMARK    4  A    between atoms: C15_19  and  C16_20 
ROOT
HETATM    1  C1  UNL     1      25.150   7.801  50.018  1.00  0.00     0.028 C 
HETATM    2  C2  UNL     1      24.933   6.484  49.963  1.00  0.00     0.018 A 
HETATM    3  C3  UNL     1      25.713   5.376  49.397  1.00  0.00     0.081 A 
HETATM    4  C5  UNL     1      25.010   4.281  49.633  1.00  0.00     0.055 A 
HETATM    5  C6  UNL     1      23.788   4.580  50.332  1.00  0.00     0.043 A 
HETATM    6  C7  UNL     1      23.703   5.951  50.557  1.00  0.00     0.084 A 
HETATM    7  N1  UNL     1      22.618   6.439  51.207  1.00  0.00    -0.240 NA
HETATM    8  C8  UNL     1      21.628   5.628  51.636  1.00  0.00     0.236 A 
HETATM    9  N2  UNL     1      21.706   4.302  51.421  1.00  0.00    -0.223 NA
HETATM   10  C9  UNL     1      22.765   3.778  50.780  1.00  0.00     0.144 A 
ENDROOT
BRANCH  10  11
HETATM   11  N3  UNL     1      22.815   2.370  50.569  1.00  0.00    -0.335 N 
HETATM   12  C10 UNL     1      22.383   1.696  49.349  1.00  0.00     0.158 C 
BRANCH  11  13
HETATM   13  C11 UNL     1      23.320   1.531  51.607  1.00  0.00     0.036 A 
HETATM   14  C12 UNL     1      24.680   1.372  51.769  1.00  0.00     0.029 A 
HETATM   15  C13 UNL     1      25.188   0.567  52.765  1.00  0.00     0.003 A 
HETATM   16  C14 UNL     1      24.333  -0.100  53.624  1.00  0.00     0.016 A 
HETATM   17  C15 UNL     1      22.966   0.043  53.483  1.00  0.00     0.050 A 
HETATM   18  C17 UNL     1      22.472   0.855  52.476  1.00  0.00     0.045 A 
BRANCH  17  19
HETATM   19  C16 UNL     1      22.045  -0.672  54.404  1.00  0.00     0.417 C 
HETATM   20  F1  UNL     1      22.770  -1.403  55.330  1.00  0.00    -0.166 F 
HETATM   21  F2  UNL     1      21.240  -1.575  53.754  1.00  0.00    -0.166 F 
HETATM   22  F3  UNL     1      21.234   0.264  55.027  1.00  0.00    -0.166 F 
ENDBRANCH  17  19
ENDBRANCH  11  13
ENDBRANCH  10  11
BRANCH   3  23
HETATM   23  O1  UNL     1      26.913   5.716  48.793  1.00  0.00    -0.355 OA
HETATM   24  C4  UNL     1      27.927   4.752  48.590  1.00  0.00     0.210 C 
ENDBRANCH   3  23
TORSDOF 4
ENDMDL
MODEL 5
REMARK VINA RESULT:      -8.0      4.271      6.512
REMARK  4 active torsions:
REMARK  status: ('A' for Active; 'I' for Inactive)
REMARK    1  A    between atoms: C3_3  and  O1_4 
REMARK    2  A    between atoms: C9_12  and  N3_13 
REMARK    3  A    between atoms: N3_13  and  C11_15 
REMARK    4  A    between atoms: C15_19  and  C16_20 
ROOT
HETATM    1  C1  UNL     1      25.291  -0.511  54.482  1.00  0.00     0.028 C 
HETATM    2  C2  UNL     1      25.205   0.266  53.398  1.00  0.00     0.018 A 
HETATM    3  C3  UNL     1      26.215   0.758  52.452  1.00  0.00     0.081 A 
HETATM    4  C5  UNL     1      25.556   1.492  51.571  1.00  0.00     0.055 A 
HETATM    5  C6  UNL     1      24.148   1.528  51.863  1.00  0.00     0.043 A 
HETATM    6  C7  UNL     1      23.888   0.772  53.002  1.00  0.00     0.084 A 
HETATM    7  N1  UNL     1      22.610   0.679  53.446  1.00  0.00    -0.240 NA
HETATM    8  C8  UNL     1      21.595   1.302  52.810  1.00  0.00     0.236 A 
HETATM    9  N2  UNL     1      21.841   2.034  51.709  1.00  0.00    -0.223 NA
HETATM   10  C9  UNL     1      23.094   2.151  51.236  1.00  0.00     0.144 A 
ENDROOT
BRANCH  10  11
HETATM   11  N3  UNL     1      23.319   2.934  50.068  1.00  0.00    -0.335 N 
HETATM   12  C10 UNL     1      22.979   2.520  48.710  1.00  0.00     0.158 C 
BRANCH  11  13
HETATM   13  C11 UNL     1      23.917   4.222  50.202  1.00  0.00     0.036 A 
HETATM   14  C12 UNL     1      23.471   5.096  51.172  1.00  0.00     0.029 A 
HETATM   15  C13 UNL     1      24.036   6.344  51.319  1.00  0.00     0.003 A 
HETATM   16  C14 UNL     1      25.066   6.743  50.488  1.00  0.00     0.016 A 
HETATM   17  C15 UNL     1      25.532   5.887  49.508  1.00  0.00     0.050 A 
HETATM   18  C17 UNL     1      24.953   4.636  49.373  1.00  0.00     0.045 A 
BRANCH  17  19
HETATM   19  C16 UNL     1      26.639   6.313  48.613  1.00  0.00     0.417 C 
HETATM   20  F1  UNL     1      27.361   5.209  48.192  1.00  0.00    -0.166 F 
HETATM   21  F2  UNL     1      27.539   7.140  49.238  1.00  0.00    -0.166 F 
HETATM   22  F3  UNL     1      26.095   6.996  47.537  1.00  0.00    -0.166 F 
ENDBRANCH  17  19
ENDBRANCH  11  13
ENDBRANCH  10  11
BRANCH   3  23
HETATM   23  O1  UNL     1      27.522   0.366  52.690  1.00  0.00    -0.355 OA
HETATM   24  C4  UNL     1      28.426   1.214  53.368  1.00  0.00     0.210 C 
ENDBRANCH   3  23
TORSDOF 4
ENDMDL
MODEL 6
REMARK VINA RESULT:      -7.9      3.583      5.362
REMARK  4 active torsions:
REMARK  status: ('A' for Active; 'I' for Inactive)
REMARK    1  A    between atoms: C3_3  and  O1_4 
REMARK    2  A    between atoms: C9_12  and  N3_13 
REMARK    3  A    between atoms: N3_13  and  C11_15 
REMARK    4  A    between atoms: C15_19  and  C16_20 
ROOT
HETATM    1  C1  UNL     1      21.975  -1.582  54.793  1.00  0.00     0.028 C 
HETATM    2  C2  UNL     1      21.919  -0.692  53.797  1.00  0.00     0.018 A 
HETATM    3  C3  UNL     1      20.794  -0.109  53.054  1.00  0.00     0.081 A 
HETATM    4  C5  UNL     1      21.333   0.719  52.175  1.00  0.00     0.055 A 
HETATM    5  C6  UNL     1      22.767   0.736  52.276  1.00  0.00     0.043 A 
HETATM    6  C7  UNL     1      23.174  -0.136  53.282  1.00  0.00     0.084 A 
HETATM    7  N1  UNL     1      24.499  -0.266  53.537  1.00  0.00    -0.240 NA
HETATM    8  C8  UNL     1      25.424   0.429  52.839  1.00  0.00     0.236 A 
HETATM    9  N2  UNL     1      25.035   1.273  51.866  1.00  0.00    -0.223 NA
HETATM   10  C9  UNL     1      23.730   1.430  51.583  1.00  0.00     0.144 A 
ENDROOT
BRANCH  10  11
HETATM   11  N3  UNL     1      23.355   2.331  50.546  1.00  0.00    -0.335 N 
HETATM   12  C10 UNL     1      22.544   1.975  49.387  1.00  0.00     0.158 C 
BRANCH  11  13
HETATM   13  C11 UNL     1      23.787   3.689  50.618  1.00  0.00     0.036 A 
HETATM   14  C12 UNL     1      23.268   4.532  51.579  1.00  0.00     0.029 A 
HETATM   15  C13 UNL     1      23.672   5.846  51.667  1.00  0.00     0.003 A 
HETATM   16  C14 UNL     1      24.612   6.344  50.783  1.00  0.00     0.016 A 
HETATM   17  C15 UNL     1      25.148   5.522  49.812  1.00  0.00     0.050 A 
HETATM   18  C17 UNL     1      24.731   4.203  49.737  1.00  0.00     0.045 A 
BRANCH  17  19
HETATM   19  C16 UNL     1      26.158   6.054  48.861  1.00  0.00     0.417 C 
HETATM   20  F1  UNL     1      26.945   7.006  49.487  1.00  0.00    -0.166 F 
HETATM   21  F2  UNL     1      25.591   6.681  47.779  1.00  0.00    -0.166 F 
HETATM   22  F3  UNL     1      26.925   4.996  48.398  1.00  0.00    -0.166 F 
ENDBRANCH  17  19
ENDBRANCH  11  13
ENDBRANCH  10  11
BRANCH   3  23
HETATM   23  O1  UNL     1      19.529  -0.535  53.423  1.00  0.00    -0.355 OA
HETATM   24  C4  UNL     1      18.455  -0.515  52.504  1.00  0.00     0.210 C 
ENDBRANCH   3  23
TORSDOF 4
ENDMDL
MODEL 7
REMARK VINA RESULT:      -7.9      4.228      6.512
REMARK  4 active torsions:
REMARK  status: ('A' for Active; 'I' for Inactive)
REMARK    1  A    between atoms: C3_3  and  O1_4 
REMARK    2  A    between atoms: C9_12  and  N3_13 
REMARK    3  A    between atoms: N3_13  and  C11_15 
REMARK    4  A    between atoms: C15_19  and  C16_20 
ROOT
HETATM    1  C1  UNL     1      26.412  -0.403  54.510  1.00  0.00     0.028 C 
HETATM    2  C2  UNL     1      25.746   0.628  53.981  1.00  0.00     0.018 A 
HETATM    3  C3  UNL     1      26.091   2.045  53.810  1.00  0.00     0.081 A 
HETATM    4  C5  UNL     1      25.045   2.603  53.223  1.00  0.00     0.055 A 
HETATM    5  C6  UNL     1      24.001   1.643  52.982  1.00  0.00     0.043 A 
HETATM    6  C7  UNL     1      24.402   0.392  53.444  1.00  0.00     0.084 A 
HETATM    7  N1  UNL     1      23.554  -0.656  53.309  1.00  0.00    -0.240 NA
HETATM    8  C8  UNL     1      22.337  -0.511  52.741  1.00  0.00     0.236 A 
HETATM    9  N2  UNL     1      21.945   0.696  52.293  1.00  0.00    -0.223 NA
HETATM   10  C9  UNL     1      22.758   1.761  52.408  1.00  0.00     0.144 A 
ENDROOT
BRANCH  10  11
HETATM   11  N3  UNL     1      22.310   3.023  51.924  1.00  0.00    -0.335 N 
HETATM   12  C10 UNL     1      21.077   3.684  52.339  1.00  0.00     0.158 C 
BRANCH  11  13
HETATM   13  C11 UNL     1      23.104   3.717  50.962  1.00  0.00     0.036 A 
HETATM   14  C12 UNL     1      23.551   3.065  49.832  1.00  0.00     0.029 A 
HETATM   15  C13 UNL     1      24.318   3.716  48.891  1.00  0.00     0.003 A 
HETATM   16  C14 UNL     1      24.654   5.046  49.068  1.00  0.00     0.016 A 
HETATM   17  C15 UNL     1      24.219   5.723  50.191  1.00  0.00     0.050 A 
HETATM   18  C17 UNL     1      23.450   5.053  51.128  1.00  0.00     0.045 A 
BRANCH  17  19
HETATM   19  C16 UNL     1      24.579   7.151  50.385  1.00  0.00     0.417 C 
HETATM   20  F1  UNL     1      23.834   7.694  51.419  1.00  0.00    -0.166 F 
HETATM   21  F2  UNL     1      24.312   7.921  49.280  1.00  0.00    -0.166 F 
HETATM   22  F3  UNL     1      25.937   7.230  50.652  1.00  0.00    -0.166 F 
ENDBRANCH  17  19
ENDBRANCH  11  13
ENDBRANCH  10  11
BRANCH   3  23
HETATM   23  O1  UNL     1      27.338   2.433  54.270  1.00  0.00    -0.355 OA
HETATM   24  C4  UNL     1      28.465   2.431  53.417  1.00  0.00     0.210 C 
ENDBRANCH   3  23
TORSDOF 4
ENDMDL
MODEL 8
REMARK VINA RESULT:      -7.9      4.733      7.301
REMARK  4 active torsions:
REMARK  status: ('A' for Active; 'I' for Inactive)
REMARK    1  A    between atoms: C3_3  and  O1_4 
REMARK    2  A    between atoms: C9_12  and  N3_13 
REMARK    3  A    between atoms: N3_13  and  C11_15 
REMARK    4  A    between atoms: C15_19  and  C16_20 
ROOT
HETATM    1  C1  UNL     1      27.826   5.089  48.575  1.00  0.00     0.028 C 
HETATM    2  C2  UNL     1      26.618   4.952  49.130  1.00  0.00     0.018 A 
HETATM    3  C3  UNL     1      25.356   5.679  48.943  1.00  0.00     0.081 A 
HETATM    4  C5  UNL     1      24.486   5.108  49.759  1.00  0.00     0.055 A 
HETATM    5  C6  UNL     1      25.084   4.027  50.495  1.00  0.00     0.043 A 
HETATM    6  C7  UNL     1      26.421   3.897  50.129  1.00  0.00     0.084 A 
HETATM    7  N1  UNL     1      27.166   2.928  50.713  1.00  0.00    -0.240 NA
HETATM    8  C8  UNL     1      26.641   2.093  51.637  1.00  0.00     0.236 A 
HETATM    9  N2  UNL     1      25.350   2.215  51.993  1.00  0.00    -0.223 NA
HETATM   10  C9  UNL     1      24.577   3.163  51.437  1.00  0.00     0.144 A 
ENDROOT
BRANCH  10  11
HETATM   11  N3  UNL     1      23.214   3.264  51.839  1.00  0.00    -0.335 N 
HETATM   12  C10 UNL     1      22.581   4.481  52.335  1.00  0.00     0.158 C 
BRANCH  11  13
HETATM   13  C11 UNL     1      22.382   2.108  51.762  1.00  0.00     0.036 A 
HETATM   14  C12 UNL     1      21.726   1.803  50.587  1.00  0.00     0.029 A 
HETATM   15  C13 UNL     1      20.918   0.691  50.492  1.00  0.00     0.003 A 
HETATM   16  C14 UNL     1      20.751  -0.142  51.583  1.00  0.00     0.016 A 
HETATM   17  C15 UNL     1      21.396   0.140  52.771  1.00  0.00     0.050 A 
HETATM   18  C17 UNL     1      22.204   1.262  52.851  1.00  0.00     0.045 A 
BRANCH  17  19
HETATM   19  C16 UNL     1      21.218  -0.753  53.945  1.00  0.00     0.417 C 
HETATM   20  F1  UNL     1      22.291  -1.622  54.048  1.00  0.00    -0.166 F 
HETATM   21  F2  UNL     1      20.098  -1.541  53.847  1.00  0.00    -0.166 F 
HETATM   22  F3  UNL     1      21.099   0.034  55.080  1.00  0.00    -0.166 F 
ENDBRANCH  17  19
ENDBRANCH  11  13
ENDBRANCH  10  11
BRANCH   3  23
HETATM   23  O1  UNL     1      25.375   6.716  48.024  1.00  0.00    -0.355 OA
HETATM   24  C4  UNL     1      24.207   7.458  47.736  1.00  0.00     0.210 C 
ENDBRANCH   3  23
TORSDOF 4
ENDMDL
MODEL 9
REMARK VINA RESULT:      -7.9      3.456      5.609
REMARK  4 active torsions:
REMARK  status: ('A' for Active; 'I' for Inactive)
REMARK    1  A    between atoms: C3_3  and  O1_4 
REMARK    2  A    between atoms: C9_12  and  N3_13 
REMARK    3  A    between atoms: N3_13  and  C11_15 
REMARK    4  A    between atoms: C15_19  and  C16_20 
ROOT
HETATM    1  C1  UNL     1      22.726  -1.569  55.336  1.00  0.00     0.028 C 
HETATM    2  C2  UNL     1      22.864  -0.800  54.252  1.00  0.00     0.018 A 
HETATM    3  C3  UNL     1      24.042  -0.215  53.598  1.00  0.00     0.081 A 
HETATM    4  C5  UNL     1      23.580   0.458  52.558  1.00  0.00     0.055 A 
HETATM    5  C6  UNL     1      22.147   0.366  52.463  1.00  0.00     0.043 A 
HETATM    6  C7  UNL     1      21.661  -0.414  53.508  1.00  0.00     0.084 A 
HETATM    7  N1  UNL     1      20.325  -0.624  53.598  1.00  0.00    -0.240 NA
HETATM    8  C8  UNL     1      19.465  -0.095  52.702  1.00  0.00     0.236 A 
HETATM    9  N2  UNL     1      19.931   0.660  51.690  1.00  0.00    -0.223 NA
HETATM   10  C9  UNL     1      21.249   0.892  51.565  1.00  0.00     0.144 A 
ENDROOT
BRANCH  10  11
HETATM   11  N3  UNL     1      21.707   1.696  50.483  1.00  0.00    -0.335 N 
HETATM   12  C10 UNL     1      21.656   1.307  49.077  1.00  0.00     0.158 C 
BRANCH  11  13
HETATM   13  C11 UNL     1      22.262   2.981  50.760  1.00  0.00     0.036 A 
HETATM   14  C12 UNL     1      21.561   3.887  51.529  1.00  0.00     0.029 A 
HETATM   15  C13 UNL     1      22.079   5.132  51.810  1.00  0.00     0.003 A 
HETATM   16  C14 UNL     1      23.319   5.496  51.319  1.00  0.00     0.016 A 
HETATM   17  C15 UNL     1      24.042   4.608  50.546  1.00  0.00     0.050 A 
HETATM   18  C17 UNL     1      23.507   3.360  50.273  1.00  0.00     0.045 A 
BRANCH  17  19
HETATM   19  C16 UNL     1      25.375   4.995  50.017  1.00  0.00     0.417 C 
HETATM   20  F1  UNL     1      25.704   6.271  50.444  1.00  0.00    -0.166 F 
HETATM   21  F2  UNL     1      25.411   5.033  48.645  1.00  0.00    -0.166 F 
HETATM   22  F3  UNL     1      26.307   4.066  50.451  1.00  0.00    -0.166 F 
ENDBRANCH  17  19
ENDBRANCH  11  13
ENDBRANCH  10  11
BRANCH   3  23
HETATM   23  O1  UNL     1      25.267  -0.488  54.183  1.00  0.00    -0.355 OA
HETATM   24  C4  UNL     1      26.388  -0.845  53.399  1.00  0.00     0.210 C 
ENDBRANCH   3  23
TORSDOF 4
ENDMDL
