MODEL 1
REMARK VINA RESULT:      -8.5      0.000      0.000
REMARK  1 active torsions:
REMARK  status: ('A' for Active; 'I' for Inactive)
REMARK    1  A    between atoms: C2_4  and  C3_5 
ROOT
HETATM    1  C1  UNL     1      26.338   1.069  53.424  1.00  0.00     0.180 C 
HETATM    2  N1  UNL     1      24.960   0.662  53.299  1.00  0.00    -0.271 N 
HETATM    3  N2  UNL     1      24.367  -0.172  54.133  1.00  0.00    -0.169 NA
HETATM    4  C2  UNL     1      23.088  -0.367  53.760  1.00  0.00     0.123 A 
HETATM    5  C4  UNL     1      22.952   0.417  52.634  1.00  0.00     0.006 A 
HETATM    6  C5  UNL     1      24.100   1.070  52.318  1.00  0.00     0.089 A 
HETATM    7  C6  UNL     1      24.355   1.960  51.202  1.00  0.00     0.085 C 
HETATM    8  N3  UNL     1      25.487   2.477  51.088  1.00  0.00    -0.280 NA
HETATM    9  C7  UNL     1      26.051   3.365  50.141  1.00  0.00     0.230 C 
HETATM   10  C8  UNL     1      25.325   4.655  50.029  1.00  0.00     0.169 C 
HETATM   11  O2  UNL     1      24.682   4.257  50.983  1.00  0.00    -0.294 OA
HETATM   12  C9  UNL     1      24.868   5.995  49.597  1.00  0.00     0.154 C 
HETATM   13  C10 UNL     1      24.858   6.858  50.821  1.00  0.00     0.033 C 
HETATM   14  C11 UNL     1      24.006   8.073  50.706  1.00  0.00     0.004 C 
HETATM   15  C12 UNL     1      22.648   7.783  50.121  1.00  0.00     0.020 C 
HETATM   16  C13 UNL     1      22.823   7.032  48.849  1.00  0.00     0.122 C 
HETATM   17  N4  UNL     1      23.630   5.865  48.907  1.00  0.00    -0.378 N 
HETATM   18  P1  UNL     1      22.760   4.352  49.094  1.00  0.00    -0.003 P 
HETATM   19  C14 UNL     1      22.065   3.842  47.460  1.00  0.00     0.133 A 
HETATM   20  N5  UNL     1      22.278   2.625  47.875  1.00  0.00    -0.284 NA
HETATM   21  C15 UNL     1      22.836   2.360  49.140  1.00  0.00     0.184 A 
HETATM   22  C16 UNL     1      23.149   2.089  50.378  1.00  0.00    -0.019 C 
HETATM   23  C17 UNL     1      21.853   1.883  50.970  1.00  0.00     0.044 C 
HETATM   24  C18 UNL     1      21.762   0.610  51.802  1.00  0.00     0.048 C 
HETATM   25  H16 UNL     1      21.608   4.584  49.969  1.00  0.00     0.082 HD
ENDROOT
BRANCH   4  26
HETATM   26  C3  UNL     1      22.051  -1.206  54.382  1.00  0.00     0.292 C 
HETATM   27  O1  UNL     1      22.274  -1.992  55.356  1.00  0.00    -0.300 OA
ENDBRANCH   4  26
TORSDOF 1
ENDMDL
MODEL 2
REMARK VINA RESULT:      -8.2      2.370      6.470
REMARK  1 active torsions:
REMARK  status: ('A' for Active; 'I' for Inactive)
REMARK    1  A    between atoms: C2_4  and  C3_5 
ROOT
HETATM    1  C1  UNL     1      23.718   6.216  49.163  1.00  0.00     0.180 C 
HETATM    2  N1  UNL     1      22.950   5.181  48.516  1.00  0.00    -0.271 N 
HETATM    3  N2  UNL     1      22.528   5.259  47.267  1.00  0.00    -0.169 NA
HETATM    4  C2  UNL     1      21.835   4.151  46.944  1.00  0.00     0.123 A 
HETATM    5  C4  UNL     1      21.870   3.394  48.096  1.00  0.00     0.006 A 
HETATM    6  C5  UNL     1      22.556   4.008  49.095  1.00  0.00     0.089 A 
HETATM    7  C6  UNL     1      22.789   3.542  50.449  1.00  0.00     0.085 C 
HETATM    8  N3  UNL     1      23.461   4.255  51.226  1.00  0.00    -0.280 NA
HETATM    9  C7  UNL     1      23.862   4.099  52.574  1.00  0.00     0.230 C 
HETATM   10  C8  UNL     1      24.665   2.875  52.818  1.00  0.00     0.169 C 
HETATM   11  O2  UNL     1      24.649   2.748  51.607  1.00  0.00    -0.294 OA
HETATM   12  C9  UNL     1      25.422   1.777  53.461  1.00  0.00     0.154 C 
HETATM   13  C10 UNL     1      26.745   1.704  52.764  1.00  0.00     0.033 C 
HETATM   14  C11 UNL     1      27.452   0.404  52.929  1.00  0.00     0.004 C 
HETATM   15  C12 UNL     1      26.552  -0.784  52.711  1.00  0.00     0.020 C 
HETATM   16  C13 UNL     1      25.341  -0.631  53.560  1.00  0.00     0.122 C 
HETATM   17  N4  UNL     1      24.632   0.593  53.441  1.00  0.00    -0.378 N 
HETATM   18  P1  UNL     1      23.252   0.566  52.356  1.00  0.00    -0.003 P 
HETATM   19  C14 UNL     1      21.820  -0.229  53.212  1.00  0.00     0.133 A 
HETATM   20  N5  UNL     1      21.090   0.602  52.520  1.00  0.00    -0.284 NA
HETATM   21  C15 UNL     1      21.664   1.526  51.627  1.00  0.00     0.184 A 
HETATM   22  C16 UNL     1      22.152   2.236  50.647  1.00  0.00    -0.019 C 
HETATM   23  C17 UNL     1      21.933   1.369  49.518  1.00  0.00     0.044 C 
HETATM   24  C18 UNL     1      21.286   2.071  48.331  1.00  0.00     0.048 C 
HETATM   25  H16 UNL     1      23.573  -0.298  51.217  1.00  0.00     0.082 HD
ENDROOT
BRANCH   4  26
HETATM   26  C3  UNL     1      21.182   3.795  45.674  1.00  0.00     0.292 C 
HETATM   27  O1  UNL     1      21.816   3.563  44.598  1.00  0.00    -0.300 OA
ENDBRANCH   4  26
TORSDOF 1
ENDMDL
MODEL 3
REMARK VINA RESULT:      -8.1      2.096      3.968
REMARK  1 active torsions:
REMARK  status: ('A' for Active; 'I' for Inactive)
REMARK    1  A    between atoms: C2_4  and  C3_5 
ROOT
HETATM    1  C1  UNL     1      22.534   0.063  53.602  1.00  0.00     0.180 C 
HETATM    2  N1  UNL     1      23.900   0.172  53.150  1.00  0.00    -0.271 N 
HETATM    3  N2  UNL     1      24.836  -0.714  53.437  1.00  0.00    -0.169 NA
HETATM    4  C2  UNL     1      26.007  -0.343  52.886  1.00  0.00     0.123 A 
HETATM    5  C4  UNL     1      25.707   0.838  52.241  1.00  0.00     0.006 A 
HETATM    6  C5  UNL     1      24.403   1.188  52.387  1.00  0.00     0.089 A 
HETATM    7  C6  UNL     1      23.721   2.363  51.879  1.00  0.00     0.085 C 
HETATM    8  N3  UNL     1      22.501   2.503  52.114  1.00  0.00    -0.280 NA
HETATM    9  C7  UNL     1      21.562   3.505  51.775  1.00  0.00     0.230 C 
HETATM   10  C8  UNL     1      21.421   3.717  50.312  1.00  0.00     0.169 C 
HETATM   11  O2  UNL     1      22.144   2.743  50.206  1.00  0.00    -0.294 OA
HETATM   12  C9  UNL     1      21.041   4.248  48.984  1.00  0.00     0.154 C 
HETATM   13  C10 UNL     1      20.514   3.090  48.195  1.00  0.00     0.033 C 
HETATM   14  C11 UNL     1      20.519   3.301  46.721  1.00  0.00     0.004 C 
HETATM   15  C12 UNL     1      21.817   3.877  46.216  1.00  0.00     0.020 C 
HETATM   16  C13 UNL     1      22.145   5.090  47.012  1.00  0.00     0.122 C 
HETATM   17  N4  UNL     1      22.152   4.940  48.424  1.00  0.00    -0.378 N 
HETATM   18  P1  UNL     1      23.726   4.653  49.148  1.00  0.00    -0.003 P 
HETATM   19  C14 UNL     1      24.641   6.254  49.270  1.00  0.00     0.133 A 
HETATM   20  N5  UNL     1      25.150   5.750  50.359  1.00  0.00    -0.284 NA
HETATM   21  C15 UNL     1      24.803   4.464  50.814  1.00  0.00     0.184 A 
HETATM   22  C16 UNL     1      24.662   3.206  51.135  1.00  0.00    -0.019 C 
HETATM   23  C17 UNL     1      25.821   2.614  50.521  1.00  0.00     0.044 C 
HETATM   24  C18 UNL     1      26.598   1.693  51.454  1.00  0.00     0.048 C 
HETATM   25  H16 UNL     1      24.507   3.809  48.240  1.00  0.00     0.082 HD
ENDROOT
BRANCH   4  26
HETATM   26  C3  UNL     1      27.316  -1.014  52.936  1.00  0.00     0.292 C 
HETATM   27  O1  UNL     1      28.081  -0.988  53.950  1.00  0.00    -0.300 OA
ENDBRANCH   4  26
TORSDOF 1
ENDMDL
MODEL 4
REMARK VINA RESULT:      -7.7      2.980      3.690
REMARK  1 active torsions:
REMARK  status: ('A' for Active; 'I' for Inactive)
REMARK    1  A    between atoms: C2_4  and  C3_5 
ROOT
HETATM    1  C1  UNL     1      21.149  -0.564  54.538  1.00  0.00     0.180 C 
HETATM    2  N1  UNL     1      20.050  -0.468  53.609  1.00  0.00    -0.271 N 
HETATM    3  N2  UNL     1      18.824  -0.870  53.886  1.00  0.00    -0.169 NA
HETATM    4  C2  UNL     1      18.018  -0.661  52.828  1.00  0.00     0.123 A 
HETATM    5  C4  UNL     1      18.854  -0.098  51.887  1.00  0.00     0.006 A 
HETATM    6  C5  UNL     1      20.127   0.035  52.341  1.00  0.00     0.089 A 
HETATM    7  C6  UNL     1      21.286   0.557  51.641  1.00  0.00     0.085 C 
HETATM    8  N3  UNL     1      22.381   0.607  52.241  1.00  0.00    -0.280 NA
HETATM    9  C7  UNL     1      23.670   1.048  51.859  1.00  0.00     0.230 C 
HETATM   10  C8  UNL     1      23.710   2.469  51.430  1.00  0.00     0.169 C 
HETATM   11  O2  UNL     1      22.552   2.507  51.805  1.00  0.00    -0.294 OA
HETATM   12  C9  UNL     1      24.144   3.782  50.902  1.00  0.00     0.154 C 
HETATM   13  C10 UNL     1      23.797   4.798  51.946  1.00  0.00     0.033 C 
HETATM   14  C11 UNL     1      23.717   6.195  51.437  1.00  0.00     0.004 C 
HETATM   15  C12 UNL     1      22.934   6.307  50.155  1.00  0.00     0.020 C 
HETATM   16  C13 UNL     1      23.473   5.326  49.175  1.00  0.00     0.122 C 
HETATM   17  N4  UNL     1      23.571   3.979  49.615  1.00  0.00    -0.378 N 
HETATM   18  P1  UNL     1      22.233   2.935  49.162  1.00  0.00    -0.003 P 
HETATM   19  C14 UNL     1      22.433   2.420  47.398  1.00  0.00     0.133 A 
HETATM   20  N5  UNL     1      21.879   1.303  47.780  1.00  0.00    -0.284 NA
HETATM   21  C15 UNL     1      21.479   1.091  49.113  1.00  0.00     0.184 A 
HETATM   22  C16 UNL     1      20.912   0.956  50.281  1.00  0.00    -0.019 C 
HETATM   23  C17 UNL     1      19.553   1.336  49.994  1.00  0.00     0.044 C 
HETATM   24  C18 UNL     1      18.522   0.352  50.533  1.00  0.00     0.048 C 
HETATM   25  H16 UNL     1      20.996   3.717  49.217  1.00  0.00     0.082 HD
ENDROOT
BRANCH   4  26
HETATM   26  C3  UNL     1      16.583  -0.948  52.675  1.00  0.00     0.292 C 
HETATM   27  O1  UNL     1      15.663  -0.161  53.061  1.00  0.00    -0.300 OA
ENDBRANCH   4  26
TORSDOF 1
ENDMDL
MODEL 5
REMARK VINA RESULT:      -7.6     10.057     12.069
REMARK  1 active torsions:
REMARK  status: ('A' for Active; 'I' for Inactive)
REMARK    1  A    between atoms: C2_4  and  C3_5 
ROOT
HETATM    1  C1  UNL     1      29.576   9.008  44.677  1.00  0.00     0.180 C 
HETATM    2  N1  UNL     1      29.678   9.362  46.071  1.00  0.00    -0.271 N 
HETATM    3  N2  UNL     1      28.787  10.102  46.704  1.00  0.00    -0.169 NA
HETATM    4  C2  UNL     1      29.152  10.268  47.989  1.00  0.00     0.123 A 
HETATM    5  C4  UNL     1      30.335   9.568  48.087  1.00  0.00     0.006 A 
HETATM    6  C5  UNL     1      30.692   8.992  46.909  1.00  0.00     0.089 A 
HETATM    7  C6  UNL     1      31.872   8.202  46.611  1.00  0.00     0.085 C 
HETATM    8  N3  UNL     1      32.017   7.745  45.457  1.00  0.00    -0.280 NA
HETATM    9  C7  UNL     1      33.025   6.959  44.850  1.00  0.00     0.230 C 
HETATM   10  C8  UNL     1      33.240   5.650  45.518  1.00  0.00     0.169 C 
HETATM   11  O2  UNL     1      32.262   5.945  46.181  1.00  0.00    -0.294 OA
HETATM   12  C9  UNL     1      33.775   4.328  45.913  1.00  0.00     0.154 C 
HETATM   13  C10 UNL     1      32.620   3.374  45.888  1.00  0.00     0.033 C 
HETATM   14  C11 UNL     1      32.834   2.134  46.685  1.00  0.00     0.004 C 
HETATM   15  C12 UNL     1      33.403   2.408  48.052  1.00  0.00     0.020 C 
HETATM   16  C13 UNL     1      34.613   3.261  47.906  1.00  0.00     0.122 C 
HETATM   17  N4  UNL     1      34.461   4.454  47.153  1.00  0.00    -0.378 N 
HETATM   18  P1  UNL     1      34.165   5.909  48.091  1.00  0.00    -0.003 P 
HETATM   19  C14 UNL     1      35.761   6.510  48.803  1.00  0.00     0.133 A 
HETATM   20  N5  UNL     1      35.253   7.701  48.645  1.00  0.00    -0.284 NA
HETATM   21  C15 UNL     1      33.968   7.893  48.104  1.00  0.00     0.184 A 
HETATM   22  C16 UNL     1      32.711   8.082  47.808  1.00  0.00    -0.019 C 
HETATM   23  C17 UNL     1      32.113   8.185  49.114  1.00  0.00     0.044 C 
HETATM   24  C18 UNL     1      31.188   9.385  49.264  1.00  0.00     0.048 C 
HETATM   25  H16 UNL     1      33.318   5.560  49.234  1.00  0.00     0.082 HD
ENDROOT
BRANCH   4  26
HETATM   26  C3  UNL     1      28.475  11.011  49.064  1.00  0.00     0.292 C 
HETATM   27  O1  UNL     1      27.365  11.611  48.913  1.00  0.00    -0.300 OA
ENDBRANCH   4  26
TORSDOF 1
ENDMDL
MODEL 6
REMARK VINA RESULT:      -7.3      6.681      9.621
REMARK  1 active torsions:
REMARK  status: ('A' for Active; 'I' for Inactive)
REMARK    1  A    between atoms: C2_4  and  C3_5 
ROOT
HETATM    1  C1  UNL     1      26.994   9.947  46.833  1.00  0.00     0.180 C 
HETATM    2  N1  UNL     1      26.669   8.658  47.391  1.00  0.00    -0.271 N 
HETATM    3  N2  UNL     1      25.433   8.255  47.626  1.00  0.00    -0.169 NA
HETATM    4  C2  UNL     1      25.444   7.015  48.152  1.00  0.00     0.123 A 
HETATM    5  C4  UNL     1      26.783   6.697  48.215  1.00  0.00     0.006 A 
HETATM    6  C5  UNL     1      27.574   7.699  47.750  1.00  0.00     0.089 A 
HETATM    7  C6  UNL     1      29.022   7.748  47.678  1.00  0.00     0.085 C 
HETATM    8  N3  UNL     1      29.569   8.766  47.203  1.00  0.00    -0.280 NA
HETATM    9  C7  UNL     1      30.922   9.126  46.995  1.00  0.00     0.230 C 
HETATM   10  C8  UNL     1      31.661   8.181  46.121  1.00  0.00     0.169 C 
HETATM   11  O2  UNL     1      30.576   7.658  45.943  1.00  0.00    -0.294 OA
HETATM   12  C9  UNL     1      32.723   7.479  45.365  1.00  0.00     0.154 C 
HETATM   13  C10 UNL     1      32.241   7.369  43.952  1.00  0.00     0.033 C 
HETATM   14  C11 UNL     1      32.922   6.313  43.153  1.00  0.00     0.004 C 
HETATM   15  C12 UNL     1      33.036   5.004  43.890  1.00  0.00     0.020 C 
HETATM   16  C13 UNL     1      33.645   5.255  45.223  1.00  0.00     0.122 C 
HETATM   17  N4  UNL     1      33.032   6.255  46.023  1.00  0.00    -0.378 N 
HETATM   18  P1  UNL     1      31.882   5.672  47.216  1.00  0.00    -0.003 P 
HETATM   19  C14 UNL     1      32.803   5.009  48.675  1.00  0.00     0.133 A 
HETATM   20  N5  UNL     1      31.792   5.450  49.371  1.00  0.00    -0.284 NA
HETATM   21  C15 UNL     1      30.700   6.097  48.763  1.00  0.00     0.184 A 
HETATM   22  C16 UNL     1      29.592   6.504  48.206  1.00  0.00    -0.019 C 
HETATM   23  C17 UNL     1      28.819   5.290  48.168  1.00  0.00     0.044 C 
HETATM   24  C18 UNL     1      27.400   5.458  48.695  1.00  0.00     0.048 C 
HETATM   25  H16 UNL     1      31.157   4.534  46.645  1.00  0.00     0.082 HD
ENDROOT
BRANCH   4  26
HETATM   26  C3  UNL     1      24.315   6.169  48.569  1.00  0.00     0.292 C 
HETATM   27  O1  UNL     1      24.020   5.939  49.784  1.00  0.00    -0.300 OA
ENDBRANCH   4  26
TORSDOF 1
ENDMDL
MODEL 7
REMARK VINA RESULT:      -6.9      8.264     11.127
REMARK  1 active torsions:
REMARK  status: ('A' for Active; 'I' for Inactive)
REMARK    1  A    between atoms: C2_4  and  C3_5 
ROOT
HETATM    1  C1  UNL     1      31.137  11.635  48.240  1.00  0.00     0.180 C 
HETATM    2  N1  UNL     1      30.037  10.720  48.416  1.00  0.00    -0.271 N 
HETATM    3  N2  UNL     1      28.804  11.104  48.691  1.00  0.00    -0.169 NA
HETATM    4  C2  UNL     1      28.000  10.031  48.805  1.00  0.00     0.123 A 
HETATM    5  C4  UNL     1      28.842   8.964  48.575  1.00  0.00     0.006 A 
HETATM    6  C5  UNL     1      30.119   9.358  48.331  1.00  0.00     0.089 A 
HETATM    7  C6  UNL     1      31.284   8.535  48.071  1.00  0.00     0.085 C 
HETATM    8  N3  UNL     1      32.382   9.092  47.858  1.00  0.00    -0.280 NA
HETATM    9  C7  UNL     1      33.678   8.596  47.579  1.00  0.00     0.230 C 
HETATM   10  C8  UNL     1      33.742   7.749  46.362  1.00  0.00     0.169 C 
HETATM   11  O2  UNL     1      32.586   8.091  46.190  1.00  0.00    -0.294 OA
HETATM   12  C9  UNL     1      34.197   6.843  45.284  1.00  0.00     0.154 C 
HETATM   13  C10 UNL     1      33.871   7.520  43.989  1.00  0.00     0.033 C 
HETATM   14  C11 UNL     1      33.814   6.604  42.817  1.00  0.00     0.004 C 
HETATM   15  C12 UNL     1      33.030   5.348  43.093  1.00  0.00     0.020 C 
HETATM   16  C13 UNL     1      33.549   4.721  44.338  1.00  0.00     0.122 C 
HETATM   17  N4  UNL     1      33.624   5.556  45.484  1.00  0.00    -0.378 N 
HETATM   18  P1  UNL     1      32.267   5.444  46.593  1.00  0.00    -0.003 P 
HETATM   19  C14 UNL     1      32.452   3.927  47.631  1.00  0.00     0.133 A 
HETATM   20  N5  UNL     1      31.879   4.633  48.566  1.00  0.00    -0.284 NA
HETATM   21  C15 UNL     1      31.479   5.965  48.348  1.00  0.00     0.184 A 
HETATM   22  C16 UNL     1      30.914   7.116  48.106  1.00  0.00    -0.019 C 
HETATM   23  C17 UNL     1      29.561   6.723  47.809  1.00  0.00     0.044 C 
HETATM   24  C18 UNL     1      28.515   7.536  48.559  1.00  0.00     0.048 C 
HETATM   25  H16 UNL     1      31.043   5.252  45.810  1.00  0.00     0.082 HD
ENDROOT
BRANCH   4  26
HETATM   26  C3  UNL     1      26.559   9.970  49.099  1.00  0.00     0.292 C 
HETATM   27  O1  UNL     1      26.087   9.682  50.243  1.00  0.00    -0.300 OA
ENDBRANCH   4  26
TORSDOF 1
ENDMDL
MODEL 8
REMARK VINA RESULT:      -6.8     23.507     26.727
REMARK  1 active torsions:
REMARK  status: ('A' for Active; 'I' for Inactive)
REMARK    1  A    between atoms: C2_4  and  C3_5 
ROOT
HETATM    1  C1  UNL     1      42.220  -4.574  69.329  1.00  0.00     0.180 C 
HETATM    2  N1  UNL     1      41.345  -3.723  68.560  1.00  0.00    -0.271 N 
HETATM    3  N2  UNL     1      40.231  -4.145  67.992  1.00  0.00    -0.169 NA
HETATM    4  C2  UNL     1      39.632  -3.131  67.339  1.00  0.00     0.123 A 
HETATM    5  C4  UNL     1      40.472  -2.059  67.557  1.00  0.00     0.006 A 
HETATM    6  C5  UNL     1      41.550  -2.394  68.313  1.00  0.00     0.089 A 
HETATM    7  C6  UNL     1      42.656  -1.554  68.731  1.00  0.00     0.085 C 
HETATM    8  N3  UNL     1      43.557  -2.051  69.441  1.00  0.00    -0.280 NA
HETATM    9  C7  UNL     1      44.742  -1.522  70.005  1.00  0.00     0.230 C 
HETATM   10  C8  UNL     1      44.508  -0.369  70.909  1.00  0.00     0.169 C 
HETATM   11  O2  UNL     1      43.327  -0.625  70.761  1.00  0.00    -0.294 OA
HETATM   12  C9  UNL     1      44.693   0.795  71.805  1.00  0.00     0.154 C 
HETATM   13  C10 UNL     1      43.894   0.516  73.040  1.00  0.00     0.033 C 
HETATM   14  C11 UNL     1      43.569   1.726  73.845  1.00  0.00     0.004 C 
HETATM   15  C12 UNL     1      43.062   2.869  73.005  1.00  0.00     0.020 C 
HETATM   16  C13 UNL     1      44.021   3.109  71.893  1.00  0.00     0.122 C 
HETATM   17  N4  UNL     1      44.365   1.985  71.097  1.00  0.00    -0.378 N 
HETATM   18  P1  UNL     1      43.456   1.808  69.604  1.00  0.00    -0.003 P 
HETATM   19  C14 UNL     1      44.135   2.967  68.336  1.00  0.00     0.133 A 
HETATM   20  N5  UNL     1      43.816   2.039  67.479  1.00  0.00    -0.284 NA
HETATM   21  C15 UNL     1      43.219   0.829  67.884  1.00  0.00     0.184 A 
HETATM   22  C16 UNL     1      42.479  -0.196  68.208  1.00  0.00    -0.019 C 
HETATM   23  C17 UNL     1      41.157   0.292  67.916  1.00  0.00     0.044 C 
HETATM   24  C18 UNL     1      40.321  -0.679  67.092  1.00  0.00     0.048 C 
HETATM   25  H16 UNL     1      42.076   2.236  69.847  1.00  0.00     0.082 HD
ENDROOT
BRANCH   4  26
HETATM   26  C3  UNL     1      38.379  -3.127  66.568  1.00  0.00     0.292 C 
HETATM   27  O1  UNL     1      37.225  -3.144  67.100  1.00  0.00    -0.300 OA
ENDBRANCH   4  26
TORSDOF 1
ENDMDL
MODEL 9
REMARK VINA RESULT:      -6.7      9.151     11.343
REMARK  1 active torsions:
REMARK  status: ('A' for Active; 'I' for Inactive)
REMARK    1  A    between atoms: C2_4  and  C3_5 
ROOT
HETATM    1  C1  UNL     1      32.407   4.013  47.696  1.00  0.00     0.180 C 
HETATM    2  N1  UNL     1      32.718   4.653  46.442  1.00  0.00    -0.271 N 
HETATM    3  N2  UNL     1      33.011   3.990  45.338  1.00  0.00    -0.169 NA
HETATM    4  C2  UNL     1      33.261   4.853  44.334  1.00  0.00     0.123 A 
HETATM    5  C4  UNL     1      33.095   6.091  44.916  1.00  0.00     0.006 A 
HETATM    6  C5  UNL     1      32.758   6.002  46.230  1.00  0.00     0.089 A 
HETATM    7  C6  UNL     1      32.524   7.076  47.176  1.00  0.00     0.085 C 
HETATM    8  N3  UNL     1      32.210   6.787  48.351  1.00  0.00    -0.280 NA
HETATM    9  C7  UNL     1      31.921   7.572  49.493  1.00  0.00     0.230 C 
HETATM   10  C8  UNL     1      30.786   8.509  49.299  1.00  0.00     0.169 C 
HETATM   11  O2  UNL     1      30.635   7.942  48.232  1.00  0.00    -0.294 OA
HETATM   12  C9  UNL     1      29.779   9.578  49.483  1.00  0.00     0.154 C 
HETATM   13  C10 UNL     1      28.442   8.955  49.225  1.00  0.00     0.033 C 
HETATM   14  C11 UNL     1      27.365   9.930  48.902  1.00  0.00     0.004 C 
HETATM   15  C12 UNL     1      27.792  10.961  47.890  1.00  0.00     0.020 C 
HETATM   16  C13 UNL     1      29.066  11.580  48.344  1.00  0.00     0.122 C 
HETATM   17  N4  UNL     1      30.125  10.691  48.666  1.00  0.00    -0.378 N 
HETATM   18  P1  UNL     1      31.299  10.416  47.390  1.00  0.00    -0.003 P 
HETATM   19  C14 UNL     1      32.466  11.847  47.318  1.00  0.00     0.133 A 
HETATM   20  N5  UNL     1      33.354  10.960  46.967  1.00  0.00    -0.284 NA
HETATM   21  C15 UNL     1      33.031   9.596  46.844  1.00  0.00     0.184 A 
HETATM   22  C16 UNL     1      32.708   8.373  46.519  1.00  0.00    -0.019 C 
HETATM   23  C17 UNL     1      32.510   8.489  45.097  1.00  0.00     0.044 C 
HETATM   24  C18 UNL     1      33.227   7.411  44.296  1.00  0.00     0.048 C 
HETATM   25  H16 UNL     1      30.593  10.404  46.105  1.00  0.00     0.082 HD
ENDROOT
BRANCH   4  26
HETATM   26  C3  UNL     1      33.624   4.577  42.935  1.00  0.00     0.292 C 
HETATM   27  O1  UNL     1      32.858   4.813  41.950  1.00  0.00    -0.300 OA
ENDBRANCH   4  26
TORSDOF 1
ENDMDL
