MODEL 1
REMARK VINA RESULT:      -8.1      0.000      0.000
REMARK  6 active torsions:
REMARK  status: ('A' for Active; 'I' for Inactive)
REMARK    1  A    between atoms: C3_3  and  S1_4 
REMARK    2  A    between atoms: S1_4  and  C4_5 
REMARK    3  A    between atoms: C4_5  and  C5_6 
REMARK    4  A    between atoms: N2_8  and  C6_9 
REMARK    5  A    between atoms: C7_11  and  O1_12 
REMARK    6  A    between atoms: C9_15  and  C10_16 
ROOT
HETATM    1  C5  UNL     1      24.932   2.823  51.272  1.00  0.00     0.044 C 
HETATM    2  N1  UNL     1      24.096   2.279  52.097  1.00  0.00    -0.178 NA
HETATM    3  N2  UNL     1      24.663   1.275  52.839  1.00  0.00    -0.237 N 
HETATM    4  C9  UNL     1      26.083   1.491  52.782  1.00  0.00     0.151 C 
HETATM    5  C16 UNL     1      26.243   2.145  51.423  1.00  0.00     0.089 C 
ENDROOT
BRANCH   3   6
HETATM    6  C6  UNL     1      23.805   0.294  53.473  1.00  0.00     0.192 A 
HETATM    7  N3  UNL     1      23.739  -0.384  54.364  1.00  0.00    -0.198 NA
HETATM    8  C7  UNL     1      22.810  -1.225  54.736  1.00  0.00     0.171 A 
HETATM    9  C8  UNL     1      21.760  -1.294  53.920  1.00  0.00     0.111 A 
HETATM   10  S2  UNL     1      22.188  -0.050  52.550  1.00  0.00    -0.058 SA
BRANCH   8  11
HETATM   11  O1  UNL     1      23.004  -1.955  55.929  1.00  0.00    -0.344 OA
HETATM   12  H8  UNL     1      22.578  -2.867  56.047  1.00  0.00     0.219 HD
ENDBRANCH   8  11
ENDBRANCH   3   6
BRANCH   4  13
HETATM   13  C10 UNL     1      26.896   0.263  52.904  1.00  0.00    -0.033 A 
HETATM   14  C11 UNL     1      28.086   0.325  53.635  1.00  0.00     0.012 A 
HETATM   15  C12 UNL     1      28.932  -0.763  53.814  1.00  0.00     0.043 A 
HETATM   16  C13 UNL     1      28.559  -1.940  53.237  1.00  0.00     0.116 A 
HETATM   17  F1  UNL     1      29.357  -3.034  53.387  1.00  0.00    -0.206 F 
HETATM   18  C14 UNL     1      27.406  -2.076  52.506  1.00  0.00     0.043 A 
HETATM   19  C15 UNL     1      26.603  -0.947  52.365  1.00  0.00     0.012 A 
ENDBRANCH   4  13
BRANCH   1  20
HETATM   20  C4  UNL     1      24.591   3.929  50.350  1.00  0.00     0.135 C 
BRANCH  20  21
HETATM   21  S1  UNL     1      25.995   4.427  49.323  1.00  0.00    -0.136 SA
BRANCH  21  22
HETATM   22  C3  UNL     1      26.003   6.148  48.919  1.00  0.00     0.041 C 
HETATM   23  C2  UNL     1      27.260   6.315  48.486  1.00  0.00    -0.024 C 
HETATM   24  C1  UNL     1      28.157   5.125  48.482  1.00  0.00     0.036 C 
ENDBRANCH  21  22
ENDBRANCH  20  21
ENDBRANCH   1  20
TORSDOF 6
ENDMDL
MODEL 2
REMARK VINA RESULT:      -8.0      2.825      6.090
REMARK  6 active torsions:
REMARK  status: ('A' for Active; 'I' for Inactive)
REMARK    1  A    between atoms: C3_3  and  S1_4 
REMARK    2  A    between atoms: S1_4  and  C4_5 
REMARK    3  A    between atoms: C4_5  and  C5_6 
REMARK    4  A    between atoms: N2_8  and  C6_9 
REMARK    5  A    between atoms: C7_11  and  O1_12 
REMARK    6  A    between atoms: C9_15  and  C10_16 
ROOT
HETATM    1  C5  UNL     1      22.229   0.242  53.799  1.00  0.00     0.044 C 
HETATM    2  N1  UNL     1      22.548   0.953  52.766  1.00  0.00    -0.178 NA
HETATM    3  N2  UNL     1      23.861   0.798  52.402  1.00  0.00    -0.237 N 
HETATM    4  C9  UNL     1      24.295  -0.438  52.993  1.00  0.00     0.151 C 
HETATM    5  C16 UNL     1      23.432  -0.506  54.239  1.00  0.00     0.089 C 
ENDROOT
BRANCH   3   6
HETATM    6  C6  UNL     1      24.489   1.809  51.576  1.00  0.00     0.192 A 
HETATM    7  N3  UNL     1      25.465   2.334  51.403  1.00  0.00    -0.198 NA
HETATM    8  C7  UNL     1      25.800   3.266  50.549  1.00  0.00     0.171 A 
HETATM    9  C8  UNL     1      24.818   3.664  49.744  1.00  0.00     0.111 A 
HETATM   10  S2  UNL     1      23.343   2.599  50.293  1.00  0.00    -0.058 SA
BRANCH   8  11
HETATM   11  O1  UNL     1      27.129   3.742  50.562  1.00  0.00    -0.344 OA
HETATM   12  H8  UNL     1      27.495   4.215  51.380  1.00  0.00     0.219 HD
ENDBRANCH   8  11
ENDBRANCH   3   6
BRANCH   4  13
HETATM   13  C10 UNL     1      25.736  -0.492  53.315  1.00  0.00    -0.033 A 
HETATM   14  C11 UNL     1      26.192   0.210  54.436  1.00  0.00     0.012 A 
HETATM   15  C12 UNL     1      27.523   0.235  54.833  1.00  0.00     0.043 A 
HETATM   16  C13 UNL     1      28.410  -0.469  54.075  1.00  0.00     0.116 A 
HETATM   17  F1  UNL     1      29.726  -0.473  54.427  1.00  0.00    -0.206 F 
HETATM   18  C14 UNL     1      28.036  -1.181  52.963  1.00  0.00     0.043 A 
HETATM   19  C15 UNL     1      26.687  -1.164  52.619  1.00  0.00     0.012 A 
ENDBRANCH   4  13
BRANCH   1  20
HETATM   20  C4  UNL     1      20.880   0.214  54.407  1.00  0.00     0.135 C 
BRANCH  20  21
HETATM   21  S1  UNL     1      19.733  -0.842  53.489  1.00  0.00    -0.136 SA
BRANCH  21  22
HETATM   22  C3  UNL     1      18.959  -0.030  52.123  1.00  0.00     0.041 C 
HETATM   23  C2  UNL     1      17.763  -0.632  52.095  1.00  0.00    -0.024 C 
HETATM   24  C1  UNL     1      17.492  -1.685  53.117  1.00  0.00     0.036 C 
ENDBRANCH  21  22
ENDBRANCH  20  21
ENDBRANCH   1  20
TORSDOF 6
ENDMDL
MODEL 3
REMARK VINA RESULT:      -7.8      1.172      1.424
REMARK  6 active torsions:
REMARK  status: ('A' for Active; 'I' for Inactive)
REMARK    1  A    between atoms: C3_3  and  S1_4 
REMARK    2  A    between atoms: S1_4  and  C4_5 
REMARK    3  A    between atoms: C4_5  and  C5_6 
REMARK    4  A    between atoms: N2_8  and  C6_9 
REMARK    5  A    between atoms: C7_11  and  O1_12 
REMARK    6  A    between atoms: C9_15  and  C10_16 
ROOT
HETATM    1  C5  UNL     1      23.525   2.562  50.771  1.00  0.00     0.044 C 
HETATM    2  N1  UNL     1      22.834   1.974  51.693  1.00  0.00    -0.178 NA
HETATM    3  N2  UNL     1      23.621   1.335  52.617  1.00  0.00    -0.237 N 
HETATM    4  C9  UNL     1      24.925   1.929  52.508  1.00  0.00     0.151 C 
HETATM    5  C16 UNL     1      24.964   2.326  51.045  1.00  0.00     0.089 C 
ENDROOT
BRANCH   3   6
HETATM    6  C6  UNL     1      23.040   0.293  53.440  1.00  0.00     0.192 A 
HETATM    7  N3  UNL     1      23.270  -0.394  54.295  1.00  0.00    -0.198 NA
HETATM    8  C7  UNL     1      22.539  -1.300  54.891  1.00  0.00     0.171 A 
HETATM    9  C8  UNL     1      21.308  -1.432  54.402  1.00  0.00     0.111 A 
HETATM   10  S2  UNL     1      21.253  -0.151  53.001  1.00  0.00    -0.058 SA
BRANCH   8  11
HETATM   11  O1  UNL     1      23.107  -2.024  55.961  1.00  0.00    -0.344 OA
HETATM   12  H8  UNL     1      22.538  -2.303  56.751  1.00  0.00     0.219 HD
ENDBRANCH   8  11
ENDBRANCH   3   6
BRANCH   4  13
HETATM   13  C10 UNL     1      26.041   1.029  52.866  1.00  0.00    -0.033 A 
HETATM   14  C11 UNL     1      26.870   1.392  53.933  1.00  0.00     0.012 A 
HETATM   15  C12 UNL     1      27.950   0.627  54.357  1.00  0.00     0.043 A 
HETATM   16  C13 UNL     1      28.192  -0.532  53.683  1.00  0.00     0.116 A 
HETATM   17  F1  UNL     1      29.240  -1.314  54.064  1.00  0.00    -0.206 F 
HETATM   18  C14 UNL     1      27.422  -0.953  52.628  1.00  0.00     0.043 A 
HETATM   19  C15 UNL     1      26.355  -0.140  52.253  1.00  0.00     0.012 A 
ENDBRANCH   4  13
BRANCH   1  20
HETATM   20  C4  UNL     1      22.936   3.326  49.649  1.00  0.00     0.135 C 
BRANCH  20  21
HETATM   21  S1  UNL     1      24.049   4.613  49.032  1.00  0.00    -0.136 SA
BRANCH  21  22
HETATM   22  C3  UNL     1      24.323   5.926  50.183  1.00  0.00     0.041 C 
HETATM   23  C2  UNL     1      25.623   6.185  49.990  1.00  0.00    -0.024 C 
HETATM   24  C1  UNL     1      26.349   5.371  48.973  1.00  0.00     0.036 C 
ENDBRANCH  21  22
ENDBRANCH  20  21
ENDBRANCH   1  20
TORSDOF 6
ENDMDL
MODEL 4
REMARK VINA RESULT:      -7.8      2.341      3.202
REMARK  6 active torsions:
REMARK  status: ('A' for Active; 'I' for Inactive)
REMARK    1  A    between atoms: C3_3  and  S1_4 
REMARK    2  A    between atoms: S1_4  and  C4_5 
REMARK    3  A    between atoms: C4_5  and  C5_6 
REMARK    4  A    between atoms: N2_8  and  C6_9 
REMARK    5  A    between atoms: C7_11  and  O1_12 
REMARK    6  A    between atoms: C9_15  and  C10_16 
ROOT
HETATM    1  C5  UNL     1      23.024   3.279  51.406  1.00  0.00     0.044 C 
HETATM    2  N1  UNL     1      22.363   2.524  52.223  1.00  0.00    -0.178 NA
HETATM    3  N2  UNL     1      23.176   1.703  52.961  1.00  0.00    -0.237 N 
HETATM    4  C9  UNL     1      24.486   2.292  52.912  1.00  0.00     0.151 C 
HETATM    5  C16 UNL     1      24.468   2.976  51.558  1.00  0.00     0.089 C 
ENDROOT
BRANCH   3   6
HETATM    6  C6  UNL     1      22.612   0.522  53.584  1.00  0.00     0.192 A 
HETATM    7  N3  UNL     1      22.838  -0.280  54.333  1.00  0.00    -0.198 NA
HETATM    8  C7  UNL     1      22.126  -1.297  54.746  1.00  0.00     0.171 A 
HETATM    9  C8  UNL     1      20.924  -1.401  54.182  1.00  0.00     0.111 A 
HETATM   10  S2  UNL     1      20.868   0.080  52.995  1.00  0.00    -0.058 SA
BRANCH   8  11
HETATM   11  O1  UNL     1      22.683  -2.156  55.717  1.00  0.00    -0.344 OA
HETATM   12  H8  UNL     1      23.688  -2.221  55.828  1.00  0.00     0.219 HD
ENDBRANCH   8  11
ENDBRANCH   3   6
BRANCH   4  13
HETATM   13  C10 UNL     1      25.598   1.326  53.028  1.00  0.00    -0.033 A 
HETATM   14  C11 UNL     1      26.378   1.349  54.189  1.00  0.00     0.012 A 
HETATM   15  C12 UNL     1      27.450   0.492  54.408  1.00  0.00     0.043 A 
HETATM   16  C13 UNL     1      27.735  -0.408  53.425  1.00  0.00     0.116 A 
HETATM   17  F1  UNL     1      28.777  -1.269  53.597  1.00  0.00    -0.206 F 
HETATM   18  C14 UNL     1      27.014  -0.489  52.260  1.00  0.00     0.043 A 
HETATM   19  C15 UNL     1      25.953   0.399  52.103  1.00  0.00     0.012 A 
ENDBRANCH   4  13
BRANCH   1  20
HETATM   20  C4  UNL     1      22.401   4.260  50.490  1.00  0.00     0.135 C 
BRANCH  20  21
HETATM   21  S1  UNL     1      21.491   3.464  49.144  1.00  0.00    -0.136 SA
BRANCH  21  22
HETATM   22  C3  UNL     1      22.383   2.154  48.361  1.00  0.00     0.041 C 
HETATM   23  C2  UNL     1      21.595   1.102  48.619  1.00  0.00    -0.024 C 
HETATM   24  C1  UNL     1      20.348   1.344  49.400  1.00  0.00     0.036 C 
ENDBRANCH  21  22
ENDBRANCH  20  21
ENDBRANCH   1  20
TORSDOF 6
ENDMDL
MODEL 5
REMARK VINA RESULT:      -7.5      1.883      2.876
REMARK  6 active torsions:
REMARK  status: ('A' for Active; 'I' for Inactive)
REMARK    1  A    between atoms: C3_3  and  S1_4 
REMARK    2  A    between atoms: S1_4  and  C4_5 
REMARK    3  A    between atoms: C4_5  and  C5_6 
REMARK    4  A    between atoms: N2_8  and  C6_9 
REMARK    5  A    between atoms: C7_11  and  O1_12 
REMARK    6  A    between atoms: C9_15  and  C10_16 
ROOT
HETATM    1  C5  UNL     1      24.073   2.991  51.184  1.00  0.00     0.044 C 
HETATM    2  N1  UNL     1      23.327   2.342  52.019  1.00  0.00    -0.178 NA
HETATM    3  N2  UNL     1      24.044   1.488  52.816  1.00  0.00    -0.237 N 
HETATM    4  C9  UNL     1      25.404   1.952  52.774  1.00  0.00     0.151 C 
HETATM    5  C16 UNL     1      25.479   2.566  51.389  1.00  0.00     0.089 C 
ENDROOT
BRANCH   3   6
HETATM    6  C6  UNL     1      23.360   0.397  53.480  1.00  0.00     0.192 A 
HETATM    7  N3  UNL     1      23.452  -0.317  54.339  1.00  0.00    -0.198 NA
HETATM    8  C7  UNL     1      22.656  -1.267  54.757  1.00  0.00     0.171 A 
HETATM    9  C8  UNL     1      21.543  -1.416  54.042  1.00  0.00     0.111 A 
HETATM   10  S2  UNL     1      21.703  -0.082  52.700  1.00  0.00    -0.058 SA
BRANCH   8  11
HETATM   11  O1  UNL     1      23.043  -2.017  55.889  1.00  0.00    -0.344 OA
HETATM   12  H8  UNL     1      23.802  -2.685  55.827  1.00  0.00     0.219 HD
ENDBRANCH   8  11
ENDBRANCH   3   6
BRANCH   4  13
HETATM   13  C10 UNL     1      26.419   0.896  52.966  1.00  0.00    -0.033 A 
HETATM   14  C11 UNL     1      27.452   1.127  53.881  1.00  0.00     0.012 A 
HETATM   15  C12 UNL     1      28.462   0.209  54.142  1.00  0.00     0.043 A 
HETATM   16  C13 UNL     1      28.422  -0.969  53.458  1.00  0.00     0.116 A 
HETATM   17  F1  UNL     1      29.392  -1.898  53.682  1.00  0.00    -0.206 F 
HETATM   18  C14 UNL     1      27.441  -1.265  52.545  1.00  0.00     0.043 A 
HETATM   19  C15 UNL     1      26.458  -0.302  52.330  1.00  0.00     0.012 A 
ENDBRANCH   4  13
BRANCH   1  20
HETATM   20  C4  UNL     1      23.563   3.978  50.205  1.00  0.00     0.135 C 
BRANCH  20  21
HETATM   21  S1  UNL     1      22.432   3.235  49.004  1.00  0.00    -0.136 SA
BRANCH  21  22
HETATM   22  C3  UNL     1      20.749   3.197  49.544  1.00  0.00     0.041 C 
HETATM   23  C2  UNL     1      20.465   1.892  49.443  1.00  0.00    -0.024 C 
HETATM   24  C1  UNL     1      21.542   0.982  48.959  1.00  0.00     0.036 C 
ENDBRANCH  21  22
ENDBRANCH  20  21
ENDBRANCH   1  20
TORSDOF 6
ENDMDL
MODEL 6
REMARK VINA RESULT:      -7.4      2.908      6.312
REMARK  6 active torsions:
REMARK  status: ('A' for Active; 'I' for Inactive)
REMARK    1  A    between atoms: C3_3  and  S1_4 
REMARK    2  A    between atoms: S1_4  and  C4_5 
REMARK    3  A    between atoms: C4_5  and  C5_6 
REMARK    4  A    between atoms: N2_8  and  C6_9 
REMARK    5  A    between atoms: C7_11  and  O1_12 
REMARK    6  A    between atoms: C9_15  and  C10_16 
ROOT
HETATM    1  C5  UNL     1      22.617   1.901  52.145  1.00  0.00     0.044 C 
HETATM    2  N1  UNL     1      23.141   2.575  51.172  1.00  0.00    -0.178 NA
HETATM    3  N2  UNL     1      24.500   2.417  51.089  1.00  0.00    -0.237 N 
HETATM    4  C9  UNL     1      24.804   1.206  51.802  1.00  0.00     0.151 C 
HETATM    5  C16 UNL     1      23.706   1.178  52.848  1.00  0.00     0.089 C 
ENDROOT
BRANCH   3   6
HETATM    6  C6  UNL     1      25.284   3.401  50.370  1.00  0.00     0.192 A 
HETATM    7  N3  UNL     1      26.251   3.535  49.819  1.00  0.00    -0.198 NA
HETATM    8  C7  UNL     1      26.765   4.581  49.226  1.00  0.00     0.171 A 
HETATM    9  C8  UNL     1      26.014   5.679  49.284  1.00  0.00     0.111 A 
HETATM   10  S2  UNL     1      24.487   5.115  50.263  1.00  0.00    -0.058 SA
BRANCH   8  11
HETATM   11  O1  UNL     1      28.024   4.448  48.601  1.00  0.00    -0.344 OA
HETATM   12  H8  UNL     1      28.179   3.723  47.911  1.00  0.00     0.219 HD
ENDBRANCH   8  11
ENDBRANCH   3   6
BRANCH   4  13
HETATM   13  C10 UNL     1      26.149   1.175  52.413  1.00  0.00    -0.033 A 
HETATM   14  C11 UNL     1      26.873  -0.021  52.362  1.00  0.00     0.012 A 
HETATM   15  C12 UNL     1      28.144  -0.170  52.903  1.00  0.00     0.043 A 
HETATM   16  C13 UNL     1      28.691   0.921  53.510  1.00  0.00     0.116 A 
HETATM   17  F1  UNL     1      29.936   0.821  54.055  1.00  0.00    -0.206 F 
HETATM   18  C14 UNL     1      28.041   2.126  53.598  1.00  0.00     0.043 A 
HETATM   19  C15 UNL     1      26.770   2.208  53.035  1.00  0.00     0.012 A 
ENDBRANCH   4  13
BRANCH   1  20
HETATM   20  C4  UNL     1      21.173   1.886  52.465  1.00  0.00     0.135 C 
BRANCH  20  21
HETATM   21  S1  UNL     1      20.794   0.835  53.889  1.00  0.00    -0.136 SA
BRANCH  21  22
HETATM   22  C3  UNL     1      19.993  -0.680  53.458  1.00  0.00     0.041 C 
HETATM   23  C2  UNL     1      20.711  -1.570  54.155  1.00  0.00    -0.024 C 
HETATM   24  C1  UNL     1      21.839  -1.056  54.984  1.00  0.00     0.036 C 
ENDBRANCH  21  22
ENDBRANCH  20  21
ENDBRANCH   1  20
TORSDOF 6
ENDMDL
MODEL 7
REMARK VINA RESULT:      -7.4      2.718      4.471
REMARK  6 active torsions:
REMARK  status: ('A' for Active; 'I' for Inactive)
REMARK    1  A    between atoms: C3_3  and  S1_4 
REMARK    2  A    between atoms: S1_4  and  C4_5 
REMARK    3  A    between atoms: C4_5  and  C5_6 
REMARK    4  A    between atoms: N2_8  and  C6_9 
REMARK    5  A    between atoms: C7_11  and  O1_12 
REMARK    6  A    between atoms: C9_15  and  C10_16 
ROOT
HETATM    1  C5  UNL     1      24.797   3.437  51.151  1.00  0.00     0.044 C 
HETATM    2  N1  UNL     1      25.748   2.564  51.244  1.00  0.00    -0.178 NA
HETATM    3  N2  UNL     1      25.308   1.347  51.697  1.00  0.00    -0.237 N 
HETATM    4  C9  UNL     1      23.889   1.325  51.464  1.00  0.00     0.151 C 
HETATM    5  C16 UNL     1      23.532   2.794  51.585  1.00  0.00     0.089 C 
ENDROOT
BRANCH   3   6
HETATM    6  C6  UNL     1      26.263   0.417  52.264  1.00  0.00     0.192 A 
HETATM    7  N3  UNL     1      26.509  -0.676  52.326  1.00  0.00    -0.198 NA
HETATM    8  C7  UNL     1      27.479  -1.306  52.935  1.00  0.00     0.171 A 
HETATM    9  C8  UNL     1      28.324  -0.519  53.599  1.00  0.00     0.111 A 
HETATM   10  S2  UNL     1      27.632   1.223  53.293  1.00  0.00    -0.058 SA
BRANCH   8  11
HETATM   11  O1  UNL     1      27.536  -2.712  52.833  1.00  0.00    -0.344 OA
HETATM   12  H8  UNL     1      28.146  -3.246  53.440  1.00  0.00     0.219 HD
ENDBRANCH   8  11
ENDBRANCH   3   6
BRANCH   4  13
HETATM   13  C10 UNL     1      23.125   0.489  52.413  1.00  0.00    -0.033 A 
HETATM   14  C11 UNL     1      21.800   0.170  52.097  1.00  0.00     0.012 A 
HETATM   15  C12 UNL     1      20.985  -0.605  52.913  1.00  0.00     0.043 A 
HETATM   16  C13 UNL     1      21.527  -1.064  54.076  1.00  0.00     0.116 A 
HETATM   17  F1  UNL     1      20.764  -1.827  54.907  1.00  0.00    -0.206 F 
HETATM   18  C14 UNL     1      22.818  -0.791  54.452  1.00  0.00     0.043 A 
HETATM   19  C15 UNL     1      23.582  -0.009  53.589  1.00  0.00     0.012 A 
ENDBRANCH   4  13
BRANCH   1  20
HETATM   20  C4  UNL     1      24.986   4.830  50.689  1.00  0.00     0.135 C 
BRANCH  20  21
HETATM   21  S1  UNL     1      26.084   4.935  49.255  1.00  0.00    -0.136 SA
BRANCH  21  22
HETATM   22  C3  UNL     1      26.275   6.577  48.627  1.00  0.00     0.041 C 
HETATM   23  C2  UNL     1      27.553   6.563  48.225  1.00  0.00    -0.024 C 
HETATM   24  C1  UNL     1      28.327   5.302  48.415  1.00  0.00     0.036 C 
ENDBRANCH  21  22
ENDBRANCH  20  21
ENDBRANCH   1  20
TORSDOF 6
ENDMDL
MODEL 8
REMARK VINA RESULT:      -7.2      3.622      6.287
REMARK  6 active torsions:
REMARK  status: ('A' for Active; 'I' for Inactive)
REMARK    1  A    between atoms: C3_3  and  S1_4 
REMARK    2  A    between atoms: S1_4  and  C4_5 
REMARK    3  A    between atoms: C4_5  and  C5_6 
REMARK    4  A    between atoms: N2_8  and  C6_9 
REMARK    5  A    between atoms: C7_11  and  O1_12 
REMARK    6  A    between atoms: C9_15  and  C10_16 
ROOT
HETATM    1  C5  UNL     1      23.102   0.804  52.708  1.00  0.00     0.044 C 
HETATM    2  N1  UNL     1      24.204   0.765  53.386  1.00  0.00    -0.178 NA
HETATM    3  N2  UNL     1      25.123   1.687  52.955  1.00  0.00    -0.237 N 
HETATM    4  C9  UNL     1      24.381   2.678  52.226  1.00  0.00     0.151 C 
HETATM    5  C16 UNL     1      23.230   1.860  51.674  1.00  0.00     0.089 C 
ENDROOT
BRANCH   3   6
HETATM    6  C6  UNL     1      26.521   1.500  53.288  1.00  0.00     0.192 A 
HETATM    7  N3  UNL     1      27.399   2.018  53.754  1.00  0.00    -0.198 NA
HETATM    8  C7  UNL     1      28.629   1.618  53.950  1.00  0.00     0.171 A 
HETATM    9  C8  UNL     1      28.888   0.384  53.524  1.00  0.00     0.111 A 
HETATM   10  S2  UNL     1      27.225  -0.190  52.807  1.00  0.00    -0.058 SA
BRANCH   8  11
HETATM   11  O1  UNL     1      29.533   2.505  54.574  1.00  0.00    -0.344 OA
HETATM   12  H8  UNL     1      30.136   3.098  54.017  1.00  0.00     0.219 HD
ENDBRANCH   8  11
ENDBRANCH   3   6
BRANCH   4  13
HETATM   13  C10 UNL     1      25.144   3.351  51.155  1.00  0.00    -0.033 A 
HETATM   14  C11 UNL     1      24.820   4.675  50.841  1.00  0.00     0.012 A 
HETATM   15  C12 UNL     1      25.466   5.407  49.852  1.00  0.00     0.043 A 
HETATM   16  C13 UNL     1      26.464   4.780  49.168  1.00  0.00     0.116 A 
HETATM   17  F1  UNL     1      27.126   5.459  48.190  1.00  0.00    -0.206 F 
HETATM   18  C14 UNL     1      26.837   3.484  49.421  1.00  0.00     0.043 A 
HETATM   19  C15 UNL     1      26.149   2.806  50.425  1.00  0.00     0.012 A 
ENDBRANCH   4  13
BRANCH   1  20
HETATM   20  C4  UNL     1      21.940  -0.078  52.957  1.00  0.00     0.135 C 
BRANCH  20  21
HETATM   21  S1  UNL     1      20.599   0.202  51.775  1.00  0.00    -0.136 SA
BRANCH  21  22
HETATM   22  C3  UNL     1      19.678   1.679  52.083  1.00  0.00     0.041 C 
HETATM   23  C2  UNL     1      19.466   2.126  50.838  1.00  0.00    -0.024 C 
HETATM   24  C1  UNL     1      20.014   1.322  49.708  1.00  0.00     0.036 C 
ENDBRANCH  21  22
ENDBRANCH  20  21
ENDBRANCH   1  20
TORSDOF 6
ENDMDL
MODEL 9
REMARK VINA RESULT:      -7.1      3.771      6.505
REMARK  6 active torsions:
REMARK  status: ('A' for Active; 'I' for Inactive)
REMARK    1  A    between atoms: C3_3  and  S1_4 
REMARK    2  A    between atoms: S1_4  and  C4_5 
REMARK    3  A    between atoms: C4_5  and  C5_6 
REMARK    4  A    between atoms: N2_8  and  C6_9 
REMARK    5  A    between atoms: C7_11  and  O1_12 
REMARK    6  A    between atoms: C9_15  and  C10_16 
ROOT
HETATM    1  C5  UNL     1      21.476   1.472  51.459  1.00  0.00     0.044 C 
HETATM    2  N1  UNL     1      21.660   2.673  51.014  1.00  0.00    -0.178 NA
HETATM    3  N2  UNL     1      22.975   3.059  51.059  1.00  0.00    -0.237 N 
HETATM    4  C9  UNL     1      23.743   1.847  51.138  1.00  0.00     0.151 C 
HETATM    5  C16 UNL     1      22.791   0.924  51.874  1.00  0.00     0.089 C 
ENDROOT
BRANCH   3   6
HETATM    6  C6  UNL     1      23.299   4.471  51.019  1.00  0.00     0.192 A 
HETATM    7  N3  UNL     1      24.160   5.186  51.091  1.00  0.00    -0.198 NA
HETATM    8  C7  UNL     1      24.200   6.492  51.023  1.00  0.00     0.171 A 
HETATM    9  C8  UNL     1      23.019   7.077  50.836  1.00  0.00     0.111 A 
HETATM   10  S2  UNL     1      21.812   5.613  50.761  1.00  0.00    -0.058 SA
BRANCH   8  11
HETATM   11  O1  UNL     1      25.452   7.132  51.149  1.00  0.00    -0.344 OA
HETATM   12  H8  UNL     1      25.503   8.112  51.402  1.00  0.00     0.219 HD
ENDBRANCH   8  11
ENDBRANCH   3   6
BRANCH   4  13
HETATM   13  C10 UNL     1      25.035   1.984  51.841  1.00  0.00    -0.033 A 
HETATM   14  C11 UNL     1      25.046   1.878  53.236  1.00  0.00     0.012 A 
HETATM   15  C12 UNL     1      26.199   1.993  54.003  1.00  0.00     0.043 A 
HETATM   16  C13 UNL     1      27.366   2.220  53.338  1.00  0.00     0.116 A 
HETATM   17  F1  UNL     1      28.522   2.339  54.049  1.00  0.00    -0.206 F 
HETATM   18  C14 UNL     1      27.433   2.334  51.972  1.00  0.00     0.043 A 
HETATM   19  C15 UNL     1      26.241   2.209  51.262  1.00  0.00     0.012 A 
ENDBRANCH   4  13
BRANCH   1  20
HETATM   20  C4  UNL     1      20.159   0.801  51.525  1.00  0.00     0.135 C 
BRANCH  20  21
HETATM   21  S1  UNL     1      19.986  -0.230  53.002  1.00  0.00    -0.136 SA
BRANCH  21  22
HETATM   22  C3  UNL     1      20.669   0.498  54.460  1.00  0.00     0.041 C 
HETATM   23  C2  UNL     1      21.456  -0.489  54.909  1.00  0.00    -0.024 C 
HETATM   24  C1  UNL     1      21.501  -1.754  54.121  1.00  0.00     0.036 C 
ENDBRANCH  21  22
ENDBRANCH  20  21
ENDBRANCH   1  20
TORSDOF 6
ENDMDL
