MODEL 1
REMARK VINA RESULT:      -7.2      0.000      0.000
REMARK  8 active torsions:
REMARK  status: ('A' for Active; 'I' for Inactive)
REMARK    1  A    between atoms: C2_2  and  C3_3 
REMARK    2  A    between atoms: C2_2  and  O1_16 
REMARK    3  A    between atoms: C3_3  and  C4_4 
REMARK    4  A    between atoms: O1_16  and  C12_17 
REMARK    5  A    between atoms: C12_17  and  N5_18 
REMARK    6  A    between atoms: N5_18  and  C13_19 
REMARK    7  A    between atoms: C13_19  and  O2_21 
REMARK    8  A    between atoms: O2_21  and  C15_22 
ROOT
HETATM    1  C4  UNL     1      24.332   1.234  52.980  1.00  0.00     0.068 A 
HETATM    2  C5  UNL     1      22.908   1.451  52.817  1.00  0.00     0.099 A 
HETATM    3  N1  UNL     1      21.973   0.652  53.163  1.00  0.00    -0.258 NA
HETATM    4  C6  UNL     1      22.257  -0.599  53.773  1.00  0.00     0.227 A 
HETATM    5  N2  UNL     1      23.447  -0.851  53.942  1.00  0.00    -0.266 NA
HETATM    6  C7  UNL     1      24.602  -0.114  53.635  1.00  0.00     0.101 A 
HETATM    7  C8  UNL     1      25.807  -0.832  53.166  1.00  0.00    -0.019 A 
HETATM    8  C9  UNL     1      26.789  -1.556  52.619  1.00  0.00     0.115 C 
HETATM    9  N3  UNL     1      28.039  -1.325  53.253  1.00  0.00    -0.290 N 
HETATM   10  N4  UNL     1      28.140  -0.480  54.357  1.00  0.00    -0.191 NA
HETATM   11  C10 UNL     1      27.091   0.050  54.889  1.00  0.00     0.123 C 
HETATM   12  C11 UNL     1      25.702  -0.124  54.557  1.00  0.00     0.096 A 
HETATM   13  H9  UNL     1      28.852  -1.823  52.844  1.00  0.00     0.188 HD
ENDROOT
BRANCH   1  14
HETATM   14  C3  UNL     1      24.969   1.274  51.593  1.00  0.00     0.076 C 
BRANCH  14  15
HETATM   15  C2  UNL     1      25.913   2.403  51.433  1.00  0.00     0.040 C 
HETATM   16  C1  UNL     1      27.129   2.330  51.966  1.00  0.00     0.046 C 
BRANCH  15  17
HETATM   17  O1  UNL     1      25.769   3.598  50.793  1.00  0.00    -0.327 OA
BRANCH  17  18
HETATM   18  C12 UNL     1      26.283   3.939  49.543  1.00  0.00     0.447 C 
BRANCH  18  19
HETATM   19  N5  UNL     1      26.985   5.207  49.595  1.00  0.00     0.135 N 
HETATM   20  H14 UNL     1      26.416   6.009  49.878  1.00  0.00     0.322 HD
BRANCH  19  21
HETATM   21  C13 UNL     1      27.664   5.502  48.371  1.00  0.00     0.354 C 
HETATM   22  C14 UNL     1      27.622   6.981  48.043  1.00  0.00     0.073 C 
BRANCH  21  23
HETATM   23  O2  UNL     1      28.982   5.034  48.534  1.00  0.00    -0.358 OA
BRANCH  23  24
HETATM   24  C15 UNL     1      29.910   5.859  47.946  1.00  0.00     0.166 C 
HETATM   25  C16 UNL     1      31.178   5.024  47.754  1.00  0.00     0.033 C 
ENDBRANCH  23  24
ENDBRANCH  21  23
ENDBRANCH  19  21
ENDBRANCH  18  19
ENDBRANCH  17  18
ENDBRANCH  15  17
ENDBRANCH  14  15
ENDBRANCH   1  14
TORSDOF 8
ENDMDL
MODEL 2
REMARK VINA RESULT:      -7.1      1.933      3.182
REMARK  8 active torsions:
REMARK  status: ('A' for Active; 'I' for Inactive)
REMARK    1  A    between atoms: C2_2  and  C3_3 
REMARK    2  A    between atoms: C2_2  and  O1_16 
REMARK    3  A    between atoms: C3_3  and  C4_4 
REMARK    4  A    between atoms: O1_16  and  C12_17 
REMARK    5  A    between atoms: C12_17  and  N5_18 
REMARK    6  A    between atoms: N5_18  and  C13_19 
REMARK    7  A    between atoms: C13_19  and  O2_21 
REMARK    8  A    between atoms: O2_21  and  C15_22 
ROOT
HETATM    1  C4  UNL     1      24.805   1.414  52.922  1.00  0.00     0.068 A 
HETATM    2  C5  UNL     1      23.429   1.810  52.693  1.00  0.00     0.099 A 
HETATM    3  N1  UNL     1      22.386   1.127  52.972  1.00  0.00    -0.258 NA
HETATM    4  C6  UNL     1      22.481  -0.160  53.566  1.00  0.00     0.227 A 
HETATM    5  N2  UNL     1      23.621  -0.561  53.788  1.00  0.00    -0.266 NA
HETATM    6  C7  UNL     1      24.872   0.032  53.558  1.00  0.00     0.101 A 
HETATM    7  C8  UNL     1      26.003  -0.821  53.133  1.00  0.00    -0.019 A 
HETATM    8  C9  UNL     1      26.916  -1.652  52.619  1.00  0.00     0.115 C 
HETATM    9  N3  UNL     1      28.149  -1.589  53.321  1.00  0.00    -0.290 N 
HETATM   10  N4  UNL     1      28.295  -0.781  54.448  1.00  0.00    -0.191 NA
HETATM   11  C10 UNL     1      27.293  -0.134  54.939  1.00  0.00     0.123 C 
HETATM   12  C11 UNL     1      25.913  -0.129  54.533  1.00  0.00     0.096 A 
HETATM   13  H9  UNL     1      28.916  -2.177  52.941  1.00  0.00     0.188 HD
ENDROOT
BRANCH   1  14
HETATM   14  C3  UNL     1      25.514   1.399  51.570  1.00  0.00     0.076 C 
BRANCH  14  15
HETATM   15  C2  UNL     1      26.679   2.313  51.527  1.00  0.00     0.040 C 
HETATM   16  C1  UNL     1      27.466   2.432  52.593  1.00  0.00     0.046 C 
BRANCH  15  17
HETATM   17  O1  UNL     1      27.139   3.119  50.530  1.00  0.00    -0.327 OA
BRANCH  17  18
HETATM   18  C12 UNL     1      26.368   3.879  49.652  1.00  0.00     0.447 C 
BRANCH  18  19
HETATM   19  N5  UNL     1      25.739   4.991  50.338  1.00  0.00     0.135 N 
HETATM   20  H14 UNL     1      25.924   5.045  51.343  1.00  0.00     0.322 HD
BRANCH  19  21
HETATM   21  C13 UNL     1      24.329   5.047  50.101  1.00  0.00     0.354 C 
HETATM   22  C14 UNL     1      23.858   3.913  49.213  1.00  0.00     0.073 C 
BRANCH  21  23
HETATM   23  O2  UNL     1      23.720   5.012  51.371  1.00  0.00    -0.358 OA
BRANCH  23  24
HETATM   24  C15 UNL     1      22.527   5.692  51.401  1.00  0.00     0.166 C 
HETATM   25  C16 UNL     1      22.782   7.051  50.744  1.00  0.00     0.033 C 
ENDBRANCH  23  24
ENDBRANCH  21  23
ENDBRANCH  19  21
ENDBRANCH  18  19
ENDBRANCH  17  18
ENDBRANCH  15  17
ENDBRANCH  14  15
ENDBRANCH   1  14
TORSDOF 8
ENDMDL
MODEL 3
REMARK VINA RESULT:      -7.1      1.988      3.169
REMARK  8 active torsions:
REMARK  status: ('A' for Active; 'I' for Inactive)
REMARK    1  A    between atoms: C2_2  and  C3_3 
REMARK    2  A    between atoms: C2_2  and  O1_16 
REMARK    3  A    between atoms: C3_3  and  C4_4 
REMARK    4  A    between atoms: O1_16  and  C12_17 
REMARK    5  A    between atoms: C12_17  and  N5_18 
REMARK    6  A    between atoms: N5_18  and  C13_19 
REMARK    7  A    between atoms: C13_19  and  O2_21 
REMARK    8  A    between atoms: O2_21  and  C15_22 
ROOT
HETATM    1  C4  UNL     1      24.854   1.475  52.940  1.00  0.00     0.068 A 
HETATM    2  C5  UNL     1      23.477   1.884  52.734  1.00  0.00     0.099 A 
HETATM    3  N1  UNL     1      22.432   1.225  53.057  1.00  0.00    -0.258 NA
HETATM    4  C6  UNL     1      22.524  -0.047  53.685  1.00  0.00     0.227 A 
HETATM    5  N2  UNL     1      23.663  -0.458  53.890  1.00  0.00    -0.266 NA
HETATM    6  C7  UNL     1      24.917   0.110  53.613  1.00  0.00     0.101 A 
HETATM    7  C8  UNL     1      26.025  -0.771  53.184  1.00  0.00    -0.019 A 
HETATM    8  C9  UNL     1      26.913  -1.630  52.671  1.00  0.00     0.115 C 
HETATM    9  N3  UNL     1      28.164  -1.566  53.340  1.00  0.00    -0.290 N 
HETATM   10  N4  UNL     1      28.349  -0.730  54.441  1.00  0.00    -0.191 NA
HETATM   11  C10 UNL     1      27.369  -0.054  54.938  1.00  0.00     0.123 C 
HETATM   12  C11 UNL     1      25.979  -0.040  54.566  1.00  0.00     0.096 A 
HETATM   13  H9  UNL     1      28.912  -2.175  52.959  1.00  0.00     0.188 HD
ENDROOT
BRANCH   1  14
HETATM   14  C3  UNL     1      25.529   1.412  51.572  1.00  0.00     0.076 C 
BRANCH  14  15
HETATM   15  C2  UNL     1      26.674   2.344  51.459  1.00  0.00     0.040 C 
HETATM   16  C1  UNL     1      27.568   2.416  52.440  1.00  0.00     0.046 C 
BRANCH  15  17
HETATM   17  O1  UNL     1      27.018   3.211  50.466  1.00  0.00    -0.327 OA
BRANCH  17  18
HETATM   18  C12 UNL     1      26.159   4.054  49.763  1.00  0.00     0.447 C 
BRANCH  18  19
HETATM   19  N5  UNL     1      25.489   4.980  50.657  1.00  0.00     0.135 N 
HETATM   20  H14 UNL     1      25.772   4.921  51.639  1.00  0.00     0.322 HD
BRANCH  19  21
HETATM   21  C13 UNL     1      24.064   4.896  50.557  1.00  0.00     0.354 C 
HETATM   22  C14 UNL     1      23.448   6.212  50.127  1.00  0.00     0.073 C 
BRANCH  21  23
HETATM   23  O2  UNL     1      23.799   3.862  49.637  1.00  0.00    -0.358 OA
BRANCH  23  24
HETATM   24  C15 UNL     1      22.461   3.564  49.553  1.00  0.00     0.166 C 
HETATM   25  C16 UNL     1      22.365   2.079  49.197  1.00  0.00     0.033 C 
ENDBRANCH  23  24
ENDBRANCH  21  23
ENDBRANCH  19  21
ENDBRANCH  18  19
ENDBRANCH  17  18
ENDBRANCH  15  17
ENDBRANCH  14  15
ENDBRANCH   1  14
TORSDOF 8
ENDMDL
MODEL 4
REMARK VINA RESULT:      -6.8      3.214      5.693
REMARK  8 active torsions:
REMARK  status: ('A' for Active; 'I' for Inactive)
REMARK    1  A    between atoms: C2_2  and  C3_3 
REMARK    2  A    between atoms: C2_2  and  O1_16 
REMARK    3  A    between atoms: C3_3  and  C4_4 
REMARK    4  A    between atoms: O1_16  and  C12_17 
REMARK    5  A    between atoms: C12_17  and  N5_18 
REMARK    6  A    between atoms: N5_18  and  C13_19 
REMARK    7  A    between atoms: C13_19  and  O2_21 
REMARK    8  A    between atoms: O2_21  and  C15_22 
ROOT
HETATM    1  C4  UNL     1      24.599   1.534  51.611  1.00  0.00     0.068 A 
HETATM    2  C5  UNL     1      24.212   2.634  50.748  1.00  0.00     0.099 A 
HETATM    3  N1  UNL     1      24.997   3.463  50.176  1.00  0.00    -0.258 NA
HETATM    4  C6  UNL     1      26.406   3.383  50.341  1.00  0.00     0.227 A 
HETATM    5  N2  UNL     1      26.807   2.473  51.062  1.00  0.00    -0.266 NA
HETATM    6  C7  UNL     1      26.113   1.477  51.768  1.00  0.00     0.101 A 
HETATM    7  C8  UNL     1      26.610   1.061  53.097  1.00  0.00    -0.019 A 
HETATM    8  C9  UNL     1      27.058   0.861  54.342  1.00  0.00     0.115 C 
HETATM    9  N3  UNL     1      27.269  -0.517  54.617  1.00  0.00    -0.290 N 
HETATM   10  N4  UNL     1      27.076  -1.484  53.632  1.00  0.00    -0.191 NA
HETATM   11  C10 UNL     1      26.786  -1.153  52.419  1.00  0.00     0.123 C 
HETATM   12  C11 UNL     1      26.660   0.151  51.826  1.00  0.00     0.096 A 
HETATM   13  H9  UNL     1      27.571  -0.743  55.583  1.00  0.00     0.188 HD
ENDROOT
BRANCH   1  14
HETATM   14  C3  UNL     1      23.944   1.760  52.972  1.00  0.00     0.076 C 
BRANCH  14  15
HETATM   15  C2  UNL     1      22.931   0.730  53.294  1.00  0.00     0.040 C 
HETATM   16  C1  UNL     1      23.318  -0.474  53.706  1.00  0.00     0.046 C 
BRANCH  15  17
HETATM   17  O1  UNL     1      21.569   0.778  53.248  1.00  0.00    -0.327 OA
BRANCH  17  18
HETATM   18  C12 UNL     1      20.747   0.169  52.301  1.00  0.00     0.447 C 
BRANCH  18  19
HETATM   19  N5  UNL     1      21.314   0.276  50.971  1.00  0.00     0.135 N 
HETATM   20  H14 UNL     1      22.267   0.647  50.930  1.00  0.00     0.322 HD
BRANCH  19  21
HETATM   21  C13 UNL     1      20.470   1.013  50.080  1.00  0.00     0.354 C 
HETATM   22  C14 UNL     1      20.210   2.420  50.580  1.00  0.00     0.073 C 
BRANCH  21  23
HETATM   23  O2  UNL     1      21.124   1.009  48.832  1.00  0.00    -0.358 OA
BRANCH  23  24
HETATM   24  C15 UNL     1      21.282   2.272  48.317  1.00  0.00     0.166 C 
HETATM   25  C16 UNL     1      22.531   2.231  47.434  1.00  0.00     0.033 C 
ENDBRANCH  23  24
ENDBRANCH  21  23
ENDBRANCH  19  21
ENDBRANCH  18  19
ENDBRANCH  17  18
ENDBRANCH  15  17
ENDBRANCH  14  15
ENDBRANCH   1  14
TORSDOF 8
ENDMDL
MODEL 5
REMARK VINA RESULT:      -6.8      3.683      6.701
REMARK  8 active torsions:
REMARK  status: ('A' for Active; 'I' for Inactive)
REMARK    1  A    between atoms: C2_2  and  C3_3 
REMARK    2  A    between atoms: C2_2  and  O1_16 
REMARK    3  A    between atoms: C3_3  and  C4_4 
REMARK    4  A    between atoms: O1_16  and  C12_17 
REMARK    5  A    between atoms: C12_17  and  N5_18 
REMARK    6  A    between atoms: N5_18  and  C13_19 
REMARK    7  A    between atoms: C13_19  and  O2_21 
REMARK    8  A    between atoms: O2_21  and  C15_22 
ROOT
HETATM    1  C4  UNL     1      24.315   0.981  51.886  1.00  0.00     0.068 A 
HETATM    2  C5  UNL     1      23.629   1.982  51.091  1.00  0.00     0.099 A 
HETATM    3  N1  UNL     1      24.165   2.979  50.497  1.00  0.00    -0.258 NA
HETATM    4  C6  UNL     1      25.564   3.214  50.564  1.00  0.00     0.227 A 
HETATM    5  N2  UNL     1      26.210   2.403  51.223  1.00  0.00    -0.266 NA
HETATM    6  C7  UNL     1      25.810   1.263  51.937  1.00  0.00     0.101 A 
HETATM    7  C8  UNL     1      26.485   0.943  53.215  1.00  0.00    -0.019 A 
HETATM    8  C9  UNL     1      27.056   0.824  54.418  1.00  0.00     0.115 C 
HETATM    9  N3  UNL     1      27.589  -0.476  54.628  1.00  0.00    -0.290 N 
HETATM   10  N4  UNL     1      27.545  -1.442  53.623  1.00  0.00    -0.191 NA
HETATM   11  C10 UNL     1      27.099  -1.161  52.446  1.00  0.00     0.123 C 
HETATM   12  C11 UNL     1      26.642   0.094  51.910  1.00  0.00     0.096 A 
HETATM   13  H9  UNL     1      28.005  -0.648  55.563  1.00  0.00     0.188 HD
ENDROOT
BRANCH   1  14
HETATM   14  C3  UNL     1      23.728   1.026  53.295  1.00  0.00     0.076 C 
BRANCH  14  15
HETATM   15  C2  UNL     1      23.171  -0.278  53.721  1.00  0.00     0.040 C 
HETATM   16  C1  UNL     1      23.808  -1.002  54.637  1.00  0.00     0.046 C 
BRANCH  15  17
HETATM   17  O1  UNL     1      22.042  -0.932  53.329  1.00  0.00    -0.327 OA
BRANCH  17  18
HETATM   18  C12 UNL     1      20.985  -1.328  54.146  1.00  0.00     0.447 C 
BRANCH  18  19
HETATM   19  N5  UNL     1      19.799  -0.534  53.888  1.00  0.00     0.135 N 
HETATM   20  H14 UNL     1      18.913  -1.043  53.936  1.00  0.00     0.322 HD
BRANCH  19  21
HETATM   21  C13 UNL     1      19.881   0.177  52.648  1.00  0.00     0.354 C 
HETATM   22  C14 UNL     1      18.685  -0.096  51.759  1.00  0.00     0.073 C 
BRANCH  21  23
HETATM   23  O2  UNL     1      19.987   1.540  52.987  1.00  0.00    -0.358 OA
BRANCH  23  24
HETATM   24  C15 UNL     1      19.518   2.367  51.996  1.00  0.00     0.166 C 
HETATM   25  C16 UNL     1      20.444   3.585  51.967  1.00  0.00     0.033 C 
ENDBRANCH  23  24
ENDBRANCH  21  23
ENDBRANCH  19  21
ENDBRANCH  18  19
ENDBRANCH  17  18
ENDBRANCH  15  17
ENDBRANCH  14  15
ENDBRANCH   1  14
TORSDOF 8
ENDMDL
MODEL 6
REMARK VINA RESULT:      -6.6      3.428      5.922
REMARK  8 active torsions:
REMARK  status: ('A' for Active; 'I' for Inactive)
REMARK    1  A    between atoms: C2_2  and  C3_3 
REMARK    2  A    between atoms: C2_2  and  O1_16 
REMARK    3  A    between atoms: C3_3  and  C4_4 
REMARK    4  A    between atoms: O1_16  and  C12_17 
REMARK    5  A    between atoms: C12_17  and  N5_18 
REMARK    6  A    between atoms: N5_18  and  C13_19 
REMARK    7  A    between atoms: C13_19  and  O2_21 
REMARK    8  A    between atoms: O2_21  and  C15_22 
ROOT
HETATM    1  C4  UNL     1      22.860   0.411  52.644  1.00  0.00     0.068 A 
HETATM    2  C5  UNL     1      23.432  -0.437  53.672  1.00  0.00     0.099 A 
HETATM    3  N1  UNL     1      22.788  -1.129  54.531  1.00  0.00    -0.258 NA
HETATM    4  C6  UNL     1      21.367  -1.132  54.564  1.00  0.00     0.227 A 
HETATM    5  N2  UNL     1      20.814  -0.433  53.720  1.00  0.00    -0.266 NA
HETATM    6  C7  UNL     1      21.339   0.386  52.708  1.00  0.00     0.101 A 
HETATM    7  C8  UNL     1      20.657   1.660  52.390  1.00  0.00    -0.019 A 
HETATM    8  C9  UNL     1      20.053   2.848  52.279  1.00  0.00     0.115 C 
HETATM    9  N3  UNL     1      19.702   3.144  50.935  1.00  0.00    -0.290 N 
HETATM   10  N4  UNL     1      19.931   2.225  49.913  1.00  0.00    -0.191 NA
HETATM   11  C10 UNL     1      20.388   1.045  50.167  1.00  0.00     0.123 C 
HETATM   12  C11 UNL     1      20.685   0.425  51.430  1.00  0.00     0.096 A 
HETATM   13  H9  UNL     1      19.271   4.075  50.775  1.00  0.00     0.188 HD
ENDROOT
BRANCH   1  14
HETATM   14  C3  UNL     1      23.367   1.832  52.881  1.00  0.00     0.076 C 
BRANCH  14  15
HETATM   15  C2  UNL     1      24.232   2.318  51.782  1.00  0.00     0.040 C 
HETATM   16  C1  UNL     1      23.747   2.408  50.548  1.00  0.00     0.046 C 
BRANCH  15  17
HETATM   17  O1  UNL     1      25.533   2.726  51.790  1.00  0.00    -0.327 OA
BRANCH  17  18
HETATM   18  C12 UNL     1      26.654   1.925  52.001  1.00  0.00     0.447 C 
BRANCH  18  19
HETATM   19  N5  UNL     1      27.417   2.385  53.144  1.00  0.00     0.135 N 
HETATM   20  H14 UNL     1      28.203   3.004  52.925  1.00  0.00     0.322 HD
BRANCH  19  21
HETATM   21  C13 UNL     1      27.868   1.304  53.967  1.00  0.00     0.354 C 
HETATM   22  C14 UNL     1      26.716   0.592  54.646  1.00  0.00     0.073 C 
BRANCH  21  23
HETATM   23  O2  UNL     1      28.594   0.446  53.118  1.00  0.00    -0.358 OA
BRANCH  23  24
HETATM   24  C15 UNL     1      29.571  -0.251  53.785  1.00  0.00     0.166 C 
HETATM   25  C16 UNL     1      29.425  -1.716  53.369  1.00  0.00     0.033 C 
ENDBRANCH  23  24
ENDBRANCH  21  23
ENDBRANCH  19  21
ENDBRANCH  18  19
ENDBRANCH  17  18
ENDBRANCH  15  17
ENDBRANCH  14  15
ENDBRANCH   1  14
TORSDOF 8
ENDMDL
MODEL 7
REMARK VINA RESULT:      -6.6      3.289      7.214
REMARK  8 active torsions:
REMARK  status: ('A' for Active; 'I' for Inactive)
REMARK    1  A    between atoms: C2_2  and  C3_3 
REMARK    2  A    between atoms: C2_2  and  O1_16 
REMARK    3  A    between atoms: C3_3  and  C4_4 
REMARK    4  A    between atoms: O1_16  and  C12_17 
REMARK    5  A    between atoms: C12_17  and  N5_18 
REMARK    6  A    between atoms: N5_18  and  C13_19 
REMARK    7  A    between atoms: C13_19  and  O2_21 
REMARK    8  A    between atoms: O2_21  and  C15_22 
ROOT
HETATM    1  C4  UNL     1      24.595   1.677  51.566  1.00  0.00     0.068 A 
HETATM    2  C5  UNL     1      24.280   2.775  50.672  1.00  0.00     0.099 A 
HETATM    3  N1  UNL     1      25.117   3.564  50.114  1.00  0.00    -0.258 NA
HETATM    4  C6  UNL     1      26.515   3.432  50.331  1.00  0.00     0.227 A 
HETATM    5  N2  UNL     1      26.855   2.520  51.080  1.00  0.00    -0.266 NA
HETATM    6  C7  UNL     1      26.099   1.564  51.777  1.00  0.00     0.101 A 
HETATM    7  C8  UNL     1      26.533   1.153  53.130  1.00  0.00    -0.019 A 
HETATM    8  C9  UNL     1      26.928   0.957  54.392  1.00  0.00     0.115 C 
HETATM    9  N3  UNL     1      27.076  -0.422  54.696  1.00  0.00    -0.290 N 
HETATM   10  N4  UNL     1      26.881  -1.399  53.721  1.00  0.00    -0.191 NA
HETATM   11  C10 UNL     1      26.645  -1.078  52.494  1.00  0.00     0.123 C 
HETATM   12  C11 UNL     1      26.591   0.220  51.875  1.00  0.00     0.096 A 
HETATM   13  H9  UNL     1      27.335  -0.644  55.677  1.00  0.00     0.188 HD
ENDROOT
BRANCH   1  14
HETATM   14  C3  UNL     1      23.902   1.951  52.898  1.00  0.00     0.076 C 
BRANCH  14  15
HETATM   15  C2  UNL     1      22.800   1.001  53.173  1.00  0.00     0.040 C 
HETATM   16  C1  UNL     1      23.070  -0.286  53.372  1.00  0.00     0.046 C 
BRANCH  15  17
HETATM   17  O1  UNL     1      21.456   1.204  53.272  1.00  0.00    -0.327 OA
BRANCH  17  18
HETATM   18  C12 UNL     1      20.685   2.059  52.487  1.00  0.00     0.447 C 
BRANCH  18  19
HETATM   19  N5  UNL     1      20.124   1.359  51.348  1.00  0.00     0.135 N 
HETATM   20  H14 UNL     1      20.135   1.879  50.467  1.00  0.00     0.322 HD
BRANCH  19  21
HETATM   21  C13 UNL     1      18.803   0.873  51.606  1.00  0.00     0.354 C 
HETATM   22  C14 UNL     1      17.853   1.182  50.465  1.00  0.00     0.073 C 
BRANCH  21  23
HETATM   23  O2  UNL     1      18.933  -0.513  51.824  1.00  0.00    -0.358 OA
BRANCH  23  24
HETATM   24  C15 UNL     1      18.559  -0.883  53.092  1.00  0.00     0.166 C 
HETATM   25  C16 UNL     1      17.191  -1.556  52.966  1.00  0.00     0.033 C 
ENDBRANCH  23  24
ENDBRANCH  21  23
ENDBRANCH  19  21
ENDBRANCH  18  19
ENDBRANCH  17  18
ENDBRANCH  15  17
ENDBRANCH  14  15
ENDBRANCH   1  14
TORSDOF 8
ENDMDL
MODEL 8
REMARK VINA RESULT:      -6.6      1.738      2.318
REMARK  8 active torsions:
REMARK  status: ('A' for Active; 'I' for Inactive)
REMARK    1  A    between atoms: C2_2  and  C3_3 
REMARK    2  A    between atoms: C2_2  and  O1_16 
REMARK    3  A    between atoms: C3_3  and  C4_4 
REMARK    4  A    between atoms: O1_16  and  C12_17 
REMARK    5  A    between atoms: C12_17  and  N5_18 
REMARK    6  A    between atoms: N5_18  and  C13_19 
REMARK    7  A    between atoms: C13_19  and  O2_21 
REMARK    8  A    between atoms: O2_21  and  C15_22 
ROOT
HETATM    1  C4  UNL     1      24.073   1.349  52.930  1.00  0.00     0.068 A 
HETATM    2  C5  UNL     1      22.665   1.522  52.624  1.00  0.00     0.099 A 
HETATM    3  N1  UNL     1      21.744   0.649  52.767  1.00  0.00    -0.258 NA
HETATM    4  C6  UNL     1      22.027  -0.650  53.268  1.00  0.00     0.227 A 
HETATM    5  N2  UNL     1      23.203  -0.868  53.548  1.00  0.00    -0.266 NA
HETATM    6  C7  UNL     1      24.342  -0.052  53.463  1.00  0.00     0.101 A 
HETATM    7  C8  UNL     1      25.631  -0.659  53.065  1.00  0.00    -0.019 A 
HETATM    8  C9  UNL     1      26.707  -1.273  52.563  1.00  0.00     0.115 C 
HETATM    9  N3  UNL     1      27.863  -1.062  53.362  1.00  0.00    -0.290 N 
HETATM   10  N4  UNL     1      27.790  -0.345  54.555  1.00  0.00    -0.191 NA
HETATM   11  C10 UNL     1      26.660   0.076  55.013  1.00  0.00     0.123 C 
HETATM   12  C11 UNL     1      25.330  -0.119  54.502  1.00  0.00     0.096 A 
HETATM   13  H9  UNL     1      28.744  -1.475  53.001  1.00  0.00     0.188 HD
ENDROOT
BRANCH   1  14
HETATM   14  C3  UNL     1      24.859   1.574  51.641  1.00  0.00     0.076 C 
BRANCH  14  15
HETATM   15  C2  UNL     1      24.483   2.833  50.958  1.00  0.00     0.040 C 
HETATM   16  C1  UNL     1      23.979   2.793  49.728  1.00  0.00     0.046 C 
BRANCH  15  17
HETATM   17  O1  UNL     1      24.557   4.128  51.377  1.00  0.00    -0.327 OA
BRANCH  17  18
HETATM   18  C12 UNL     1      24.387   5.266  50.592  1.00  0.00     0.447 C 
BRANCH  18  19
HETATM   19  N5  UNL     1      25.595   6.069  50.566  1.00  0.00     0.135 N 
HETATM   20  H14 UNL     1      25.508   7.001  50.978  1.00  0.00     0.322 HD
BRANCH  19  21
HETATM   21  C13 UNL     1      26.150   6.170  49.251  1.00  0.00     0.354 C 
HETATM   22  C14 UNL     1      26.946   4.936  48.876  1.00  0.00     0.073 C 
BRANCH  21  23
HETATM   23  O2  UNL     1      25.061   6.381  48.383  1.00  0.00    -0.358 OA
BRANCH  23  24
HETATM   24  C15 UNL     1      24.900   7.704  48.052  1.00  0.00     0.166 C 
HETATM   25  C16 UNL     1      25.901   7.999  46.932  1.00  0.00     0.033 C 
ENDBRANCH  23  24
ENDBRANCH  21  23
ENDBRANCH  19  21
ENDBRANCH  18  19
ENDBRANCH  17  18
ENDBRANCH  15  17
ENDBRANCH  14  15
ENDBRANCH   1  14
TORSDOF 8
ENDMDL
MODEL 9
REMARK VINA RESULT:      -6.5      3.149      6.713
REMARK  8 active torsions:
REMARK  status: ('A' for Active; 'I' for Inactive)
REMARK    1  A    between atoms: C2_2  and  C3_3 
REMARK    2  A    between atoms: C2_2  and  O1_16 
REMARK    3  A    between atoms: C3_3  and  C4_4 
REMARK    4  A    between atoms: O1_16  and  C12_17 
REMARK    5  A    between atoms: C12_17  and  N5_18 
REMARK    6  A    between atoms: N5_18  and  C13_19 
REMARK    7  A    between atoms: C13_19  and  O2_21 
REMARK    8  A    between atoms: O2_21  and  C15_22 
ROOT
HETATM    1  C4  UNL     1      24.493   1.858  51.421  1.00  0.00     0.068 A 
HETATM    2  C5  UNL     1      24.298   2.865  50.395  1.00  0.00     0.099 A 
HETATM    3  N1  UNL     1      25.214   3.506  49.777  1.00  0.00    -0.258 NA
HETATM    4  C6  UNL     1      26.590   3.281  50.052  1.00  0.00     0.227 A 
HETATM    5  N2  UNL     1      26.830   2.439  50.913  1.00  0.00    -0.266 NA
HETATM    6  C7  UNL     1      25.976   1.642  51.692  1.00  0.00     0.101 A 
HETATM    7  C8  UNL     1      26.342   1.359  53.097  1.00  0.00    -0.019 A 
HETATM    8  C9  UNL     1      26.690   1.281  54.386  1.00  0.00     0.115 C 
HETATM    9  N3  UNL     1      26.707  -0.060  54.854  1.00  0.00    -0.290 N 
HETATM   10  N4  UNL     1      26.446  -1.125  53.993  1.00  0.00    -0.191 NA
HETATM   11  C10 UNL     1      26.267  -0.934  52.730  1.00  0.00     0.123 C 
HETATM   12  C11 UNL     1      26.343   0.281  51.963  1.00  0.00     0.096 A 
HETATM   13  H9  UNL     1      26.924  -0.184  55.861  1.00  0.00     0.188 HD
ENDROOT
BRANCH   1  14
HETATM   14  C3  UNL     1      23.799   2.348  52.689  1.00  0.00     0.076 C 
BRANCH  14  15
HETATM   15  C2  UNL     1      22.468   2.937  52.419  1.00  0.00     0.040 C 
HETATM   16  C1  UNL     1      22.338   4.256  52.307  1.00  0.00     0.046 C 
BRANCH  15  17
HETATM   17  O1  UNL     1      21.253   2.345  52.246  1.00  0.00    -0.327 OA
BRANCH  17  18
HETATM   18  C12 UNL     1      20.813   1.663  51.113  1.00  0.00     0.447 C 
BRANCH  18  19
HETATM   19  N5  UNL     1      20.600   0.258  51.398  1.00  0.00     0.135 N 
HETATM   20  H14 UNL     1      20.104  -0.265  50.671  1.00  0.00     0.322 HD
BRANCH  19  21
HETATM   21  C13 UNL     1      19.961   0.051  52.662  1.00  0.00     0.354 C 
HETATM   22  C14 UNL     1      18.529  -0.418  52.503  1.00  0.00     0.073 C 
BRANCH  21  23
HETATM   23  O2  UNL     1      20.753  -0.891  53.348  1.00  0.00    -0.358 OA
BRANCH  23  24
HETATM   24  C15 UNL     1      21.361  -0.358  54.458  1.00  0.00     0.166 C 
HETATM   25  C16 UNL     1      22.826  -0.798  54.407  1.00  0.00     0.033 C 
ENDBRANCH  23  24
ENDBRANCH  21  23
ENDBRANCH  19  21
ENDBRANCH  18  19
ENDBRANCH  17  18
ENDBRANCH  15  17
ENDBRANCH  14  15
ENDBRANCH   1  14
TORSDOF 8
ENDMDL
