MODEL 1
REMARK VINA RESULT:      -9.9      0.000      0.000
REMARK  1 active torsions:
REMARK  status: ('A' for Active; 'I' for Inactive)
REMARK    1  A    between atoms: O1_2  and  C2_3 
ROOT
HETATM    1  C2  UNL     1      27.396   1.398  53.237  1.00  0.00     0.107 A 
HETATM    2  C3  UNL     1      26.949   0.535  54.211  1.00  0.00     0.071 A 
HETATM    3  C4  UNL     1      25.670  -0.010  54.311  1.00  0.00     0.071 A 
HETATM    4  N1  UNL     1      25.367  -0.845  55.333  1.00  0.00    -0.259 NA
HETATM    5  C5  UNL     1      24.093  -1.348  55.393  1.00  0.00     0.142 A 
HETATM    6  C6  UNL     1      23.143  -1.002  54.428  1.00  0.00     0.089 A 
HETATM    7  C7  UNL     1      21.808  -1.548  54.524  1.00  0.00     0.103 C 
HETATM    8  N2  UNL     1      20.749  -2.001  54.607  1.00  0.00    -0.191 NA
HETATM    9  C8  UNL     1      23.445  -0.153  53.382  1.00  0.00     0.067 A 
HETATM   10  C9  UNL     1      24.729   0.317  53.367  1.00  0.00     0.023 A 
HETATM   11  C10 UNL     1      25.241   1.166  52.443  1.00  0.00     0.058 A 
HETATM   12  C11 UNL     1      26.474   1.741  52.281  1.00  0.00     0.202 A 
HETATM   13  N3  UNL     1      26.791   2.635  51.219  1.00  0.00     0.143 N 
HETATM   14  C12 UNL     1      26.611   3.547  50.171  1.00  0.00     0.286 A 
HETATM   15  O2  UNL     1      25.552   3.116  50.744  1.00  0.00     0.000 OA
HETATM   16  C13 UNL     1      25.520   4.153  49.541  1.00  0.00     0.045 A 
HETATM   17  C14 UNL     1      24.620   4.637  49.011  1.00  0.00    -0.143 C 
HETATM   18  C15 UNL     1      23.526   5.212  48.348  1.00  0.00     0.105 C 
HETATM   19  C16 UNL     1      22.218   4.454  48.610  1.00  0.00     0.091 C 
HETATM   20 BR1  UNL     1      20.783   5.134  47.543  1.00  0.00    -0.086 Br
HETATM   21  C17 UNL     1      22.389   3.020  48.427  1.00  0.00    -0.010 C 
HETATM   22  C18 UNL     1      22.376   2.202  49.453  1.00  0.00    -0.001 C 
HETATM   23  C19 UNL     1      22.221   2.247  50.892  1.00  0.00     0.017 C 
HETATM   24  C20 UNL     1      22.220   1.480  51.966  1.00  0.00     0.088 C 
HETATM   25  N4  UNL     1      22.362   0.165  52.477  1.00  0.00    -0.364 N 
HETATM   26  H7  UNL     1      27.858   2.693  51.060  1.00  0.00     0.325 HD
HETATM   27  H15 UNL     1      21.663  -0.533  52.186  1.00  0.00     0.165 HD
ENDROOT
BRANCH   1  28
HETATM   28  O1  UNL     1      28.658   1.945  53.131  1.00  0.00    -0.353 OA
HETATM   29  C1  UNL     1      29.561   2.212  54.159  1.00  0.00     0.210 C 
ENDBRANCH   1  28
TORSDOF 1
ENDMDL
MODEL 2
REMARK VINA RESULT:      -9.7      2.691      5.913
REMARK  1 active torsions:
REMARK  status: ('A' for Active; 'I' for Inactive)
REMARK    1  A    between atoms: O1_2  and  C2_3 
ROOT
HETATM    1  C2  UNL     1      26.894   0.734  53.114  1.00  0.00     0.107 A 
HETATM    2  C3  UNL     1      27.331   1.611  52.148  1.00  0.00     0.071 A 
HETATM    3  C4  UNL     1      26.532   2.398  51.321  1.00  0.00     0.071 A 
HETATM    4  N1  UNL     1      27.103   3.215  50.404  1.00  0.00    -0.259 NA
HETATM    5  C5  UNL     1      26.274   3.963  49.608  1.00  0.00     0.142 A 
HETATM    6  C6  UNL     1      24.886   3.876  49.744  1.00  0.00     0.089 A 
HETATM    7  C7  UNL     1      24.041   4.677  48.885  1.00  0.00     0.103 C 
HETATM    8  N2  UNL     1      23.381   5.331  48.201  1.00  0.00    -0.191 NA
HETATM    9  C8  UNL     1      24.297   3.048  50.677  1.00  0.00     0.067 A 
HETATM   10  C9  UNL     1      25.168   2.327  51.447  1.00  0.00     0.023 A 
HETATM   11  C10 UNL     1      24.813   1.448  52.416  1.00  0.00     0.058 A 
HETATM   12  C11 UNL     1      25.533   0.645  53.260  1.00  0.00     0.202 A 
HETATM   13  N3  UNL     1      24.936  -0.230  54.212  1.00  0.00     0.143 N 
HETATM   14  C12 UNL     1      23.968  -1.022  54.843  1.00  0.00     0.286 A 
HETATM   15  O2  UNL     1      23.608  -0.420  53.774  1.00  0.00     0.000 OA
HETATM   16  C13 UNL     1      22.630  -1.354  54.608  1.00  0.00     0.045 A 
HETATM   17  C14 UNL     1      21.524  -1.611  54.424  1.00  0.00    -0.143 C 
HETATM   18  C15 UNL     1      20.169  -1.911  54.215  1.00  0.00     0.105 C 
HETATM   19  C16 UNL     1      19.491  -0.918  53.261  1.00  0.00     0.091 C 
HETATM   20 BR1  UNL     1      17.606  -1.225  53.147  1.00  0.00    -0.086 Br
HETATM   21  C17 UNL     1      19.788   0.459  53.628  1.00  0.00    -0.010 C 
HETATM   22  C18 UNL     1      20.578   1.200  52.887  1.00  0.00    -0.001 C 
HETATM   23  C19 UNL     1      21.348   1.102  51.664  1.00  0.00     0.017 C 
HETATM   24  C20 UNL     1      22.167   1.787  50.888  1.00  0.00     0.088 C 
HETATM   25  N4  UNL     1      22.850   3.012  50.685  1.00  0.00    -0.364 N 
HETATM   26  H7  UNL     1      25.633  -0.496  54.993  1.00  0.00     0.325 HD
HETATM   27  H15 UNL     1      22.277   3.854  50.536  1.00  0.00     0.165 HD
ENDROOT
BRANCH   1  28
HETATM   28  O1  UNL     1      27.676  -0.052  53.934  1.00  0.00    -0.353 OA
HETATM   29  C1  UNL     1      28.679   0.363  54.809  1.00  0.00     0.210 C 
ENDBRANCH   1  28
TORSDOF 1
ENDMDL
MODEL 3
REMARK VINA RESULT:      -9.0      1.505      1.881
REMARK  1 active torsions:
REMARK  status: ('A' for Active; 'I' for Inactive)
REMARK    1  A    between atoms: O1_2  and  C2_3 
ROOT
HETATM    1  C2  UNL     1      26.689   1.773  52.433  1.00  0.00     0.107 A 
HETATM    2  C3  UNL     1      25.976   0.889  53.211  1.00  0.00     0.071 A 
HETATM    3  C4  UNL     1      24.614   0.612  53.113  1.00  0.00     0.071 A 
HETATM    4  N1  UNL     1      24.042  -0.281  53.955  1.00  0.00    -0.259 NA
HETATM    5  C5  UNL     1      22.697  -0.513  53.825  1.00  0.00     0.142 A 
HETATM    6  C6  UNL     1      21.947   0.157  52.855  1.00  0.00     0.089 A 
HETATM    7  C7  UNL     1      20.530  -0.109  52.749  1.00  0.00     0.103 C 
HETATM    8  N2  UNL     1      19.402  -0.341  52.668  1.00  0.00    -0.191 NA
HETATM    9  C8  UNL     1      22.523   1.067  51.992  1.00  0.00     0.067 A 
HETATM   10  C9  UNL     1      23.867   1.259  52.161  1.00  0.00     0.023 A 
HETATM   11  C10 UNL     1      24.634   2.109  51.435  1.00  0.00     0.058 A 
HETATM   12  C11 UNL     1      25.964   2.433  51.473  1.00  0.00     0.202 A 
HETATM   13  N3  UNL     1      26.566   3.386  50.602  1.00  0.00     0.143 N 
HETATM   14  C12 UNL     1      26.684   4.458  49.707  1.00  0.00     0.286 A 
HETATM   15  O2  UNL     1      25.504   4.177  50.113  1.00  0.00     0.000 OA
HETATM   16  C13 UNL     1      25.809   5.361  49.098  1.00  0.00     0.045 A 
HETATM   17  C14 UNL     1      25.085   6.092  48.582  1.00  0.00    -0.143 C 
HETATM   18  C15 UNL     1      24.204   6.971  47.934  1.00  0.00     0.105 C 
HETATM   19  C16 UNL     1      22.754   6.469  47.958  1.00  0.00     0.091 C 
HETATM   20 BR1  UNL     1      21.606   7.578  46.903  1.00  0.00    -0.086 Br
HETATM   21  C17 UNL     1      22.667   5.073  47.557  1.00  0.00    -0.010 C 
HETATM   22  C18 UNL     1      22.381   4.135  48.429  1.00  0.00    -0.001 C 
HETATM   23  C19 UNL     1      22.074   4.003  49.838  1.00  0.00     0.017 C 
HETATM   24  C20 UNL     1      21.803   3.105  50.768  1.00  0.00     0.088 C 
HETATM   25  N4  UNL     1      21.632   1.730  51.065  1.00  0.00    -0.364 N 
HETATM   26  H7  UNL     1      27.635   3.246  50.544  1.00  0.00     0.325 HD
HETATM   27  H15 UNL     1      20.851   1.242  50.606  1.00  0.00     0.165 HD
ENDROOT
BRANCH   1  28
HETATM   28  O1  UNL     1      28.035   2.057  52.523  1.00  0.00    -0.353 OA
HETATM   29  C1  UNL     1      28.943   1.591  53.473  1.00  0.00     0.210 C 
ENDBRANCH   1  28
TORSDOF 1
ENDMDL
MODEL 4
REMARK VINA RESULT:      -8.9      3.673      7.434
REMARK  1 active torsions:
REMARK  status: ('A' for Active; 'I' for Inactive)
REMARK    1  A    between atoms: O1_2  and  C2_3 
ROOT
HETATM    1  C2  UNL     1      19.702  -0.161  52.550  1.00  0.00     0.107 A 
HETATM    2  C3  UNL     1      19.101   0.596  51.570  1.00  0.00     0.071 A 
HETATM    3  C4  UNL     1      19.747   1.395  50.628  1.00  0.00     0.071 A 
HETATM    4  N1  UNL     1      19.023   2.094  49.722  1.00  0.00    -0.259 NA
HETATM    5  C5  UNL     1      19.703   2.872  48.822  1.00  0.00     0.142 A 
HETATM    6  C6  UNL     1      21.099   2.938  48.847  1.00  0.00     0.089 A 
HETATM    7  C7  UNL     1      21.784   3.772  47.885  1.00  0.00     0.103 C 
HETATM    8  N2  UNL     1      22.318   4.433  47.103  1.00  0.00    -0.191 NA
HETATM    9  C8  UNL     1      21.844   2.227  49.765  1.00  0.00     0.067 A 
HETATM   10  C9  UNL     1      21.117   1.465  50.638  1.00  0.00     0.023 A 
HETATM   11  C10 UNL     1      21.636   0.694  51.625  1.00  0.00     0.058 A 
HETATM   12  C11 UNL     1      21.072  -0.108  52.581  1.00  0.00     0.202 A 
HETATM   13  N3  UNL     1      21.829  -0.830  53.548  1.00  0.00     0.143 N 
HETATM   14  C12 UNL     1      22.905  -1.200  54.365  1.00  0.00     0.286 A 
HETATM   15  O2  UNL     1      23.088  -0.195  53.596  1.00  0.00     0.000 OA
HETATM   16  C13 UNL     1      24.207  -0.742  54.583  1.00  0.00     0.045 A 
HETATM   17  C14 UNL     1      25.286  -0.375  54.747  1.00  0.00    -0.143 C 
HETATM   18  C15 UNL     1      26.607   0.055  54.936  1.00  0.00     0.105 C 
HETATM   19  C16 UNL     1      27.108   0.932  53.780  1.00  0.00     0.091 C 
HETATM   20 BR1  UNL     1      28.968   1.341  53.959  1.00  0.00    -0.086 Br
HETATM   21  C17 UNL     1      26.815   0.327  52.489  1.00  0.00    -0.010 C 
HETATM   22  C18 UNL     1      25.902   0.836  51.695  1.00  0.00    -0.001 C 
HETATM   23  C19 UNL     1      24.972   1.946  51.662  1.00  0.00     0.017 C 
HETATM   24  C20 UNL     1      24.027   2.494  50.920  1.00  0.00     0.088 C 
HETATM   25  N4  UNL     1      23.277   2.418  49.720  1.00  0.00    -0.364 N 
HETATM   26  H7  UNL     1      21.258  -1.649  53.962  1.00  0.00     0.325 HD
HETATM   27  H15 UNL     1      23.793   2.514  48.834  1.00  0.00     0.165 HD
ENDROOT
BRANCH   1  28
HETATM   28  O1  UNL     1      19.072  -0.952  53.488  1.00  0.00    -0.353 OA
HETATM   29  C1  UNL     1      17.948  -1.756  53.310  1.00  0.00     0.210 C 
ENDBRANCH   1  28
TORSDOF 1
ENDMDL
MODEL 5
REMARK VINA RESULT:      -8.8      2.853      5.928
REMARK  1 active torsions:
REMARK  status: ('A' for Active; 'I' for Inactive)
REMARK    1  A    between atoms: O1_2  and  C2_3 
ROOT
HETATM    1  C2  UNL     1      25.848   0.762  52.293  1.00  0.00     0.107 A 
HETATM    2  C3  UNL     1      26.640   1.609  51.552  1.00  0.00     0.071 A 
HETATM    3  C4  UNL     1      26.208   2.694  50.792  1.00  0.00     0.071 A 
HETATM    4  N1  UNL     1      27.105   3.440  50.104  1.00  0.00    -0.259 NA
HETATM    5  C5  UNL     1      26.630   4.492  49.364  1.00  0.00     0.142 A 
HETATM    6  C6  UNL     1      25.263   4.776  49.325  1.00  0.00     0.089 A 
HETATM    7  C7  UNL     1      24.796   5.891  48.531  1.00  0.00     0.103 C 
HETATM    8  N2  UNL     1      24.440   6.792  47.902  1.00  0.00    -0.191 NA
HETATM    9  C8  UNL     1      24.343   4.023  50.025  1.00  0.00     0.067 A 
HETATM   10  C9  UNL     1      24.869   2.988  50.749  1.00  0.00     0.023 A 
HETATM   11  C10 UNL     1      24.154   2.116  51.501  1.00  0.00     0.058 A 
HETATM   12  C11 UNL     1      24.504   1.035  52.266  1.00  0.00     0.202 A 
HETATM   13  N3  UNL     1      23.561   0.237  52.976  1.00  0.00     0.143 N 
HETATM   14  C12 UNL     1      22.336  -0.335  53.344  1.00  0.00     0.286 A 
HETATM   15  O2  UNL     1      22.314   0.487  52.364  1.00  0.00     0.000 OA
HETATM   16  C13 UNL     1      21.013  -0.246  52.905  1.00  0.00     0.045 A 
HETATM   17  C14 UNL     1      19.920  -0.157  52.554  1.00  0.00    -0.143 C 
HETATM   18  C15 UNL     1      18.584  -0.037  52.145  1.00  0.00     0.105 C 
HETATM   19  C16 UNL     1      18.340   1.228  51.310  1.00  0.00     0.091 C 
HETATM   20 BR1  UNL     1      16.480   1.476  50.932  1.00  0.00    -0.086 Br
HETATM   21  C17 UNL     1      18.918   2.403  51.945  1.00  0.00    -0.010 C 
HETATM   22  C18 UNL     1      19.977   2.992  51.440  1.00  0.00    -0.001 C 
HETATM   23  C19 UNL     1      20.877   2.854  50.314  1.00  0.00     0.017 C 
HETATM   24  C20 UNL     1      21.955   3.386  49.768  1.00  0.00     0.088 C 
HETATM   25  N4  UNL     1      22.952   4.389  49.863  1.00  0.00    -0.364 N 
HETATM   26  H7  UNL     1      24.037  -0.318  53.771  1.00  0.00     0.325 HD
HETATM   27  H15 UNL     1      22.644   5.369  49.801  1.00  0.00     0.165 HD
ENDROOT
BRANCH   1  28
HETATM   28  O1  UNL     1      26.265  -0.316  53.045  1.00  0.00    -0.353 OA
HETATM   29  C1  UNL     1      26.738  -1.544  52.586  1.00  0.00     0.210 C 
ENDBRANCH   1  28
TORSDOF 1
ENDMDL
MODEL 6
REMARK VINA RESULT:      -8.7      2.448      4.962
REMARK  1 active torsions:
REMARK  status: ('A' for Active; 'I' for Inactive)
REMARK    1  A    between atoms: O1_2  and  C2_3 
ROOT
HETATM    1  C2  UNL     1      21.219   0.481  51.888  1.00  0.00     0.107 A 
HETATM    2  C3  UNL     1      22.033  -0.281  52.695  1.00  0.00     0.071 A 
HETATM    3  C4  UNL     1      23.338   0.022  53.077  1.00  0.00     0.071 A 
HETATM    4  N1  UNL     1      24.027  -0.829  53.874  1.00  0.00    -0.259 NA
HETATM    5  C5  UNL     1      25.311  -0.490  54.215  1.00  0.00     0.142 A 
HETATM    6  C6  UNL     1      25.884   0.695  53.748  1.00  0.00     0.089 A 
HETATM    7  C7  UNL     1      27.242   1.020  54.125  1.00  0.00     0.103 C 
HETATM    8  N2  UNL     1      28.323   1.271  54.443  1.00  0.00    -0.191 NA
HETATM    9  C8  UNL     1      25.188   1.569  52.938  1.00  0.00     0.067 A 
HETATM   10  C9  UNL     1      23.912   1.186  52.630  1.00  0.00     0.023 A 
HETATM   11  C10 UNL     1      23.052   1.882  51.846  1.00  0.00     0.058 A 
HETATM   12  C11 UNL     1      21.769   1.650  51.428  1.00  0.00     0.202 A 
HETATM   13  N3  UNL     1      21.048   2.533  50.575  1.00  0.00     0.143 N 
HETATM   14  C12 UNL     1      20.801   3.548  49.641  1.00  0.00     0.286 A 
HETATM   15  O2  UNL     1      22.025   3.330  49.940  1.00  0.00     0.000 OA
HETATM   16  C13 UNL     1      21.577   4.445  48.900  1.00  0.00     0.045 A 
HETATM   17  C14 UNL     1      22.216   5.195  48.306  1.00  0.00    -0.143 C 
HETATM   18  C15 UNL     1      22.988   6.125  47.595  1.00  0.00     0.105 C 
HETATM   19  C16 UNL     1      24.395   6.291  48.186  1.00  0.00     0.091 C 
HETATM   20 BR1  UNL     1      25.359   7.704  47.327  1.00  0.00    -0.086 Br
HETATM   21  C17 UNL     1      24.346   6.477  49.629  1.00  0.00    -0.010 C 
HETATM   22  C18 UNL     1      24.758   5.536  50.446  1.00  0.00    -0.001 C 
HETATM   23  C19 UNL     1      25.328   4.205  50.389  1.00  0.00     0.017 C 
HETATM   24  C20 UNL     1      25.737   3.212  51.157  1.00  0.00     0.088 C 
HETATM   25  N4  UNL     1      25.908   2.739  52.482  1.00  0.00    -0.364 N 
HETATM   26  H7  UNL     1      19.983   2.369  50.648  1.00  0.00     0.325 HD
HETATM   27  H15 UNL     1      26.566   3.252  53.086  1.00  0.00     0.165 HD
ENDROOT
BRANCH   1  28
HETATM   28  O1  UNL     1      19.928   0.187  51.502  1.00  0.00    -0.353 OA
HETATM   29  C1  UNL     1      18.849  -0.151  52.317  1.00  0.00     0.210 C 
ENDBRANCH   1  28
TORSDOF 1
ENDMDL
MODEL 7
REMARK VINA RESULT:      -8.5      2.930      5.452
REMARK  1 active torsions:
REMARK  status: ('A' for Active; 'I' for Inactive)
REMARK    1  A    between atoms: O1_2  and  C2_3 
ROOT
HETATM    1  C2  UNL     1      18.954   0.853  51.675  1.00  0.00     0.107 A 
HETATM    2  C3  UNL     1      19.214  -0.181  52.546  1.00  0.00     0.071 A 
HETATM    3  C4  UNL     1      20.420  -0.431  53.198  1.00  0.00     0.071 A 
HETATM    4  N1  UNL     1      20.534  -1.496  54.027  1.00  0.00    -0.259 NA
HETATM    5  C5  UNL     1      21.743  -1.705  54.639  1.00  0.00     0.142 A 
HETATM    6  C6  UNL     1      22.818  -0.844  54.406  1.00  0.00     0.089 A 
HETATM    7  C7  UNL     1      24.081  -1.096  55.066  1.00  0.00     0.103 C 
HETATM    8  N2  UNL     1      25.078  -1.303  55.608  1.00  0.00    -0.191 NA
HETATM    9  C8  UNL     1      22.710   0.245  53.565  1.00  0.00     0.067 A 
HETATM   10  C9  UNL     1      21.483   0.410  52.984  1.00  0.00     0.023 A 
HETATM   11  C10 UNL     1      21.152   1.401  52.120  1.00  0.00     0.058 A 
HETATM   12  C11 UNL     1      20.002   1.708  51.443  1.00  0.00     0.202 A 
HETATM   13  N3  UNL     1      19.883   2.816  50.556  1.00  0.00     0.143 N 
HETATM   14  C12 UNL     1      20.258   3.855  49.694  1.00  0.00     0.286 A 
HETATM   15  O2  UNL     1      21.205   3.160  50.200  1.00  0.00     0.000 OA
HETATM   16  C13 UNL     1      21.460   4.373  49.205  1.00  0.00     0.045 A 
HETATM   17  C14 UNL     1      22.452   4.810  48.819  1.00  0.00    -0.143 C 
HETATM   18  C15 UNL     1      23.659   5.360  48.362  1.00  0.00     0.105 C 
HETATM   19  C16 UNL     1      24.857   4.942  49.226  1.00  0.00     0.091 C 
HETATM   20 BR1  UNL     1      26.455   5.858  48.707  1.00  0.00    -0.086 Br
HETATM   21  C17 UNL     1      24.576   5.115  50.643  1.00  0.00    -0.010 C 
HETATM   22  C18 UNL     1      24.405   4.078  51.430  1.00  0.00    -0.001 C 
HETATM   23  C19 UNL     1      24.407   2.631  51.356  1.00  0.00     0.017 C 
HETATM   24  C20 UNL     1      24.223   1.549  52.089  1.00  0.00     0.088 C 
HETATM   25  N4  UNL     1      23.908   1.032  53.370  1.00  0.00    -0.364 N 
HETATM   26  H7  UNL     1      18.849   3.092  50.408  1.00  0.00     0.325 HD
HETATM   27  H15 UNL     1      24.567   1.231  54.136  1.00  0.00     0.165 HD
ENDROOT
BRANCH   1  28
HETATM   28  O1  UNL     1      17.767   1.107  51.022  1.00  0.00    -0.353 OA
HETATM   29  C1  UNL     1      17.175   0.358  50.006  1.00  0.00     0.210 C 
ENDBRANCH   1  28
TORSDOF 1
ENDMDL
MODEL 8
REMARK VINA RESULT:      -8.5      2.259      2.937
REMARK  1 active torsions:
REMARK  status: ('A' for Active; 'I' for Inactive)
REMARK    1  A    between atoms: O1_2  and  C2_3 
ROOT
HETATM    1  C2  UNL     1      24.771   0.606  52.910  1.00  0.00     0.107 A 
HETATM    2  C3  UNL     1      24.029  -0.393  53.498  1.00  0.00     0.071 A 
HETATM    3  C4  UNL     1      22.641  -0.520  53.471  1.00  0.00     0.071 A 
HETATM    4  N1  UNL     1      22.043  -1.556  54.103  1.00  0.00    -0.259 NA
HETATM    5  C5  UNL     1      20.675  -1.633  54.056  1.00  0.00     0.142 A 
HETATM    6  C6  UNL     1      19.930  -0.665  53.377  1.00  0.00     0.089 A 
HETATM    7  C7  UNL     1      18.488  -0.774  53.350  1.00  0.00     0.103 C 
HETATM    8  N2  UNL     1      17.339  -0.881  53.327  1.00  0.00    -0.191 NA
HETATM    9  C8  UNL     1      20.532   0.394  52.729  1.00  0.00     0.067 A 
HETATM   10  C9  UNL     1      21.898   0.421  52.804  1.00  0.00     0.023 A 
HETATM   11  C10 UNL     1      22.694   1.369  52.251  1.00  0.00     0.058 A 
HETATM   12  C11 UNL     1      24.050   1.559  52.236  1.00  0.00     0.202 A 
HETATM   13  N3  UNL     1      24.682   2.659  51.589  1.00  0.00     0.143 N 
HETATM   14  C12 UNL     1      24.846   3.920  50.999  1.00  0.00     0.286 A 
HETATM   15  O2  UNL     1      23.677   3.638  51.435  1.00  0.00     0.000 OA
HETATM   16  C13 UNL     1      24.028   5.023  50.740  1.00  0.00     0.045 A 
HETATM   17  C14 UNL     1      23.349   5.924  50.510  1.00  0.00    -0.143 C 
HETATM   18  C15 UNL     1      22.521   7.015  50.209  1.00  0.00     0.105 C 
HETATM   19  C16 UNL     1      21.031   6.647  50.250  1.00  0.00     0.091 C 
HETATM   20 BR1  UNL     1      19.932   8.092  49.644  1.00  0.00    -0.086 Br
HETATM   21  C17 UNL     1      20.765   5.424  49.507  1.00  0.00    -0.010 C 
HETATM   22  C18 UNL     1      20.448   4.312  50.127  1.00  0.00    -0.001 C 
HETATM   23  C19 UNL     1      20.237   3.830  51.477  1.00  0.00     0.017 C 
HETATM   24  C20 UNL     1      19.943   2.739  52.161  1.00  0.00     0.088 C 
HETATM   25  N4  UNL     1      19.649   1.354  52.104  1.00  0.00    -0.364 N 
HETATM   26  H7  UNL     1      25.723   2.451  51.387  1.00  0.00     0.325 HD
HETATM   27  H15 UNL     1      18.787   1.075  51.615  1.00  0.00     0.165 HD
ENDROOT
BRANCH   1  28
HETATM   28  O1  UNL     1      26.143   0.742  52.934  1.00  0.00    -0.353 OA
HETATM   29  C1  UNL     1      26.923   1.345  53.919  1.00  0.00     0.210 C 
ENDBRANCH   1  28
TORSDOF 1
ENDMDL
MODEL 9
REMARK VINA RESULT:      -8.4      3.457      5.125
REMARK  1 active torsions:
REMARK  status: ('A' for Active; 'I' for Inactive)
REMARK    1  A    between atoms: O1_2  and  C2_3 
ROOT
HETATM    1  C2  UNL     1      21.662  -0.354  53.577  1.00  0.00     0.107 A 
HETATM    2  C3  UNL     1      20.419  -0.872  53.858  1.00  0.00     0.071 A 
HETATM    3  C4  UNL     1      19.280  -0.772  53.061  1.00  0.00     0.071 A 
HETATM    4  N1  UNL     1      18.115  -1.328  53.470  1.00  0.00    -0.259 NA
HETATM    5  C5  UNL     1      17.020  -1.195  52.656  1.00  0.00     0.142 A 
HETATM    6  C6  UNL     1      17.112  -0.502  51.446  1.00  0.00     0.089 A 
HETATM    7  C7  UNL     1      15.937  -0.377  50.613  1.00  0.00     0.103 C 
HETATM    8  N2  UNL     1      14.993  -0.296  49.953  1.00  0.00    -0.191 NA
HETATM    9  C8  UNL     1      18.296   0.066  51.021  1.00  0.00     0.067 A 
HETATM   10  C9  UNL     1      19.357  -0.099  51.868  1.00  0.00     0.023 A 
HETATM   11  C10 UNL     1      20.608   0.381  51.659  1.00  0.00     0.058 A 
HETATM   12  C11 UNL     1      21.765   0.324  52.389  1.00  0.00     0.202 A 
HETATM   13  N3  UNL     1      22.987   0.925  51.972  1.00  0.00     0.143 N 
HETATM   14  C12 UNL     1      23.869   1.769  51.284  1.00  0.00     0.286 A 
HETATM   15  O2  UNL     1      22.626   1.894  51.011  1.00  0.00     0.000 OA
HETATM   16  C13 UNL     1      23.753   2.774  50.319  1.00  0.00     0.045 A 
HETATM   17  C14 UNL     1      23.658   3.587  49.510  1.00  0.00    -0.143 C 
HETATM   18  C15 UNL     1      23.550   4.564  48.510  1.00  0.00     0.105 C 
HETATM   19  C16 UNL     1      22.208   4.496  47.768  1.00  0.00     0.091 C 
HETATM   20 BR1  UNL     1      22.160   5.701  46.283  1.00  0.00    -0.086 Br
HETATM   21  C17 UNL     1      21.894   3.133  47.362  1.00  0.00    -0.010 C 
HETATM   22  C18 UNL     1      20.930   2.460  47.945  1.00  0.00    -0.001 C 
HETATM   23  C19 UNL     1      19.939   2.639  48.987  1.00  0.00     0.017 C 
HETATM   24  C20 UNL     1      18.973   2.008  49.627  1.00  0.00     0.088 C 
HETATM   25  N4  UNL     1      18.249   0.798  49.774  1.00  0.00    -0.364 N 
HETATM   26  H7  UNL     1      23.834   0.486  52.478  1.00  0.00     0.325 HD
HETATM   27  H15 UNL     1      17.691   0.481  48.969  1.00  0.00     0.165 HD
ENDROOT
BRANCH   1  28
HETATM   28  O1  UNL     1      22.794  -0.445  54.360  1.00  0.00    -0.353 OA
HETATM   29  C1  UNL     1      23.046  -1.346  55.393  1.00  0.00     0.210 C 
ENDBRANCH   1  28
TORSDOF 1
ENDMDL
