MODEL 1
REMARK VINA RESULT:      -8.0      0.000      0.000
REMARK  4 active torsions:
REMARK  status: ('A' for Active; 'I' for Inactive)
REMARK    1  A    between atoms: C3_4  and  N2_5 
REMARK    2  A    between atoms: N2_5  and  C4_6 
REMARK    3  A    between atoms: C9_11  and  C10_12 
REMARK    4  A    between atoms: C13_15  and  C14_16 
ROOT
HETATM    1  C1  UNL     1      28.315   5.131  48.802  1.00  0.00     0.068 C 
HETATM    2  C2  UNL     1      26.874   4.609  48.862  1.00  0.00     0.341 C 
HETATM    3  N1  UNL     1      26.950   3.328  49.549  1.00  0.00    -0.238 NA
HETATM    4  C3  UNL     1      26.089   2.742  50.355  1.00  0.00     0.140 C 
HETATM    5  C13 UNL     1      24.817   3.364  50.721  1.00  0.00     0.326 C 
HETATM    6  N3  UNL     1      24.299   4.024  49.505  1.00  0.00     0.128 N 
HETATM    7  C20 UNL     1      24.683   5.404  49.480  1.00  0.00     0.541 C 
HETATM    8  N4  UNL     1      26.113   5.596  49.603  1.00  0.00     0.135 N 
HETATM    9  H21 UNL     1      24.722   3.576  48.651  1.00  0.00     0.319 HD
HETATM   10  H24 UNL     1      26.335   6.512  49.148  1.00  0.00     0.320 HD
ENDROOT
BRANCH   4  11
HETATM   11  N2  UNL     1      26.601   1.476  50.793  1.00  0.00    -0.342 N 
HETATM   12  H5  UNL     1      26.424   0.748  50.033  1.00  0.00     0.167 HD
BRANCH  11  13
HETATM   13  C4  UNL     1      27.233   1.399  52.088  1.00  0.00     0.040 A 
HETATM   14  C5  UNL     1      28.026   2.462  52.474  1.00  0.00     0.030 A 
HETATM   15  C6  UNL     1      28.679   2.506  53.683  1.00  0.00     0.002 A 
HETATM   16  C7  UNL     1      28.503   1.429  54.499  1.00  0.00     0.001 A 
HETATM   17  C8  UNL     1      27.731   0.366  54.151  1.00  0.00     0.010 A 
HETATM   18  C9  UNL     1      27.058   0.312  52.916  1.00  0.00    -0.028 A 
BRANCH  18  19
HETATM   19  C10 UNL     1      26.199  -0.844  52.556  1.00  0.00     0.013 C 
HETATM   20  C11 UNL     1      24.982  -0.967  53.409  1.00  0.00     0.015 C 
HETATM   21  C12 UNL     1      26.963  -2.103  52.316  1.00  0.00     0.015 C 
ENDBRANCH  18  19
ENDBRANCH  11  13
ENDBRANCH   4  11
BRANCH   5  22
HETATM   22  C14 UNL     1      23.804   2.530  51.351  1.00  0.00     0.004 A 
HETATM   23  C15 UNL     1      22.882   1.872  50.525  1.00  0.00     0.013 A 
HETATM   24  C16 UNL     1      21.848   1.050  50.907  1.00  0.00     0.024 A 
HETATM   25  C17 UNL     1      21.699   0.853  52.259  1.00  0.00     0.035 A 
HETATM   26 CL1  UNL     1      20.392  -0.188  52.786  1.00  0.00    -0.084 Cl
HETATM   27  C18 UNL     1      22.569   1.469  53.138  1.00  0.00     0.048 A 
HETATM   28  C19 UNL     1      23.589   2.282  52.685  1.00  0.00     0.044 A 
HETATM   29 CL2  UNL     1      24.694   3.047  53.802  1.00  0.00    -0.084 Cl
ENDBRANCH   5  22
TORSDOF 4
ENDMDL
MODEL 2
REMARK VINA RESULT:      -7.8      2.601      5.213
REMARK  4 active torsions:
REMARK  status: ('A' for Active; 'I' for Inactive)
REMARK    1  A    between atoms: C3_4  and  N2_5 
REMARK    2  A    between atoms: N2_5  and  C4_6 
REMARK    3  A    between atoms: C9_11  and  C10_12 
REMARK    4  A    between atoms: C13_15  and  C14_16 
ROOT
HETATM    1  C1  UNL     1      28.195  -1.192  53.761  1.00  0.00     0.068 C 
HETATM    2  C2  UNL     1      27.891   0.098  52.989  1.00  0.00     0.341 C 
HETATM    3  N1  UNL     1      26.509  -0.025  52.550  1.00  0.00    -0.238 NA
HETATM    4  C3  UNL     1      25.582   0.898  52.388  1.00  0.00     0.140 C 
HETATM    5  C13 UNL     1      25.832   2.311  52.669  1.00  0.00     0.326 C 
HETATM    6  N3  UNL     1      27.200   2.604  52.196  1.00  0.00     0.128 N 
HETATM    7  C20 UNL     1      28.141   2.481  53.269  1.00  0.00     0.541 C 
HETATM    8  N4  UNL     1      28.085   1.189  53.923  1.00  0.00     0.135 N 
HETATM    9  H21 UNL     1      27.481   1.902  51.464  1.00  0.00     0.319 HD
HETATM   10  H24 UNL     1      29.029   1.025  54.345  1.00  0.00     0.320 HD
ENDROOT
BRANCH   4  11
HETATM   11  N2  UNL     1      24.360   0.299  51.936  1.00  0.00    -0.342 N 
HETATM   12  H5  UNL     1      24.434   0.109  50.888  1.00  0.00     0.167 HD
BRANCH  11  13
HETATM   13  C4  UNL     1      23.312   0.060  52.897  1.00  0.00     0.040 A 
HETATM   14  C5  UNL     1      23.625  -0.706  54.004  1.00  0.00     0.030 A 
HETATM   15  C6  UNL     1      22.713  -1.001  54.990  1.00  0.00     0.002 A 
HETATM   16  C7  UNL     1      21.460  -0.493  54.819  1.00  0.00     0.001 A 
HETATM   17  C8  UNL     1      21.117   0.263  53.743  1.00  0.00     0.010 A 
HETATM   18  C9  UNL     1      22.043   0.572  52.729  1.00  0.00    -0.028 A 
BRANCH  18  19
HETATM   19  C10 UNL     1      21.665   1.418  51.569  1.00  0.00     0.013 C 
HETATM   20  C11 UNL     1      20.592   2.405  51.881  1.00  0.00     0.015 C 
HETATM   21  C12 UNL     1      21.503   0.651  50.300  1.00  0.00     0.015 C 
ENDBRANCH  18  19
ENDBRANCH  11  13
ENDBRANCH   4  11
BRANCH   5  22
HETATM   22  C14 UNL     1      24.873   3.287  52.174  1.00  0.00     0.004 A 
HETATM   23  C15 UNL     1      23.982   3.863  53.091  1.00  0.00     0.013 A 
HETATM   24  C16 UNL     1      22.999   4.790  52.839  1.00  0.00     0.024 A 
HETATM   25  C17 UNL     1      22.873   5.200  51.533  1.00  0.00     0.035 A 
HETATM   26 CL1  UNL     1      21.630   6.381  51.172  1.00  0.00    -0.084 Cl
HETATM   27  C18 UNL     1      23.715   4.677  50.570  1.00  0.00     0.048 A 
HETATM   28  C19 UNL     1      24.684   3.748  50.894  1.00  0.00     0.044 A 
HETATM   29 CL2  UNL     1      25.754   3.102  49.673  1.00  0.00    -0.084 Cl
ENDBRANCH   5  22
TORSDOF 4
ENDMDL
MODEL 3
REMARK VINA RESULT:      -7.7      2.614      6.159
REMARK  4 active torsions:
REMARK  status: ('A' for Active; 'I' for Inactive)
REMARK    1  A    between atoms: C3_4  and  N2_5 
REMARK    2  A    between atoms: N2_5  and  C4_6 
REMARK    3  A    between atoms: C9_11  and  C10_12 
REMARK    4  A    between atoms: C13_15  and  C14_16 
ROOT
HETATM    1  C1  UNL     1      19.506   0.936  51.931  1.00  0.00     0.068 C 
HETATM    2  C2  UNL     1      20.778   0.126  52.211  1.00  0.00     0.341 C 
HETATM    3  N1  UNL     1      21.856   0.848  51.552  1.00  0.00    -0.238 NA
HETATM    4  C3  UNL     1      23.122   0.982  51.890  1.00  0.00     0.140 C 
HETATM    5  C13 UNL     1      23.673   0.376  53.102  1.00  0.00     0.326 C 
HETATM    6  N3  UNL     1      23.052  -0.957  53.232  1.00  0.00     0.128 N 
HETATM    7  C20 UNL     1      21.902  -0.896  54.085  1.00  0.00     0.541 C 
HETATM    8  N4  UNL     1      20.930   0.087  53.652  1.00  0.00     0.135 N 
HETATM    9  H21 UNL     1      22.714  -1.285  52.291  1.00  0.00     0.319 HD
HETATM   10  H24 UNL     1      20.001  -0.227  54.018  1.00  0.00     0.320 HD
ENDROOT
BRANCH   4  11
HETATM   11  N2  UNL     1      23.810   1.793  50.927  1.00  0.00    -0.342 N 
HETATM   12  H5  UNL     1      24.280   1.156  50.212  1.00  0.00     0.167 HD
BRANCH  11  13
HETATM   13  C4  UNL     1      23.751   3.227  51.066  1.00  0.00     0.040 A 
HETATM   14  C5  UNL     1      22.679   3.757  51.758  1.00  0.00     0.030 A 
HETATM   15  C6  UNL     1      22.513   5.108  51.958  1.00  0.00     0.002 A 
HETATM   16  C7  UNL     1      23.476   5.914  51.430  1.00  0.00     0.001 A 
HETATM   17  C8  UNL     1      24.542   5.427  50.743  1.00  0.00     0.010 A 
HETATM   18  C9  UNL     1      24.722   4.047  50.534  1.00  0.00    -0.028 A 
BRANCH  18  19
HETATM   19  C10 UNL     1      25.904   3.525  49.802  1.00  0.00     0.013 C 
HETATM   20  C11 UNL     1      26.792   2.672  50.642  1.00  0.00     0.015 C 
HETATM   21  C12 UNL     1      26.583   4.551  48.958  1.00  0.00     0.015 C 
ENDBRANCH  18  19
ENDBRANCH  11  13
ENDBRANCH   4  11
BRANCH   5  22
HETATM   22  C14 UNL     1      25.121   0.309  53.236  1.00  0.00     0.004 A 
HETATM   23  C15 UNL     1      25.763  -0.884  52.876  1.00  0.00     0.013 A 
HETATM   24  C16 UNL     1      27.108  -1.164  52.931  1.00  0.00     0.024 A 
HETATM   25  C17 UNL     1      27.918  -0.155  53.396  1.00  0.00     0.035 A 
HETATM   26 CL1  UNL     1      29.639  -0.475  53.481  1.00  0.00    -0.084 Cl
HETATM   27  C18 UNL     1      27.358   1.051  53.770  1.00  0.00     0.048 A 
HETATM   28  C19 UNL     1      25.997   1.265  53.688  1.00  0.00     0.044 A 
HETATM   29 CL2  UNL     1      25.298   2.798  54.151  1.00  0.00    -0.084 Cl
ENDBRANCH   5  22
TORSDOF 4
ENDMDL
MODEL 4
REMARK VINA RESULT:      -7.6      2.868      6.581
REMARK  4 active torsions:
REMARK  status: ('A' for Active; 'I' for Inactive)
REMARK    1  A    between atoms: C3_4  and  N2_5 
REMARK    2  A    between atoms: N2_5  and  C4_6 
REMARK    3  A    between atoms: C9_11  and  C10_12 
REMARK    4  A    between atoms: C13_15  and  C14_16 
ROOT
HETATM    1  C1  UNL     1      19.658   0.646  52.718  1.00  0.00     0.068 C 
HETATM    2  C2  UNL     1      20.963  -0.140  52.895  1.00  0.00     0.341 C 
HETATM    3  N1  UNL     1      21.953   0.556  52.086  1.00  0.00    -0.238 NA
HETATM    4  C3  UNL     1      23.247   0.716  52.276  1.00  0.00     0.140 C 
HETATM    5  C13 UNL     1      23.934   0.176  53.448  1.00  0.00     0.326 C 
HETATM    6  N3  UNL     1      23.349  -1.154  53.712  1.00  0.00     0.128 N 
HETATM    7  C20 UNL     1      22.298  -1.057  54.682  1.00  0.00     0.541 C 
HETATM    8  N4  UNL     1      21.273  -0.104  54.311  1.00  0.00     0.135 N 
HETATM    9  H21 UNL     1      22.914  -1.531  52.831  1.00  0.00     0.319 HD
HETATM   10  H24 UNL     1      20.393  -0.406  54.792  1.00  0.00     0.320 HD
ENDROOT
BRANCH   4  11
HETATM   11  N2  UNL     1      23.814   1.481  51.204  1.00  0.00    -0.342 N 
HETATM   12  H5  UNL     1      24.611   0.923  50.764  1.00  0.00     0.167 HD
BRANCH  11  13
HETATM   13  C4  UNL     1      23.254   2.778  50.911  1.00  0.00     0.040 A 
HETATM   14  C5  UNL     1      23.510   3.800  51.805  1.00  0.00     0.030 A 
HETATM   15  C6  UNL     1      23.033   5.078  51.635  1.00  0.00     0.002 A 
HETATM   16  C7  UNL     1      22.281   5.293  50.519  1.00  0.00     0.001 A 
HETATM   17  C8  UNL     1      22.009   4.311  49.620  1.00  0.00     0.010 A 
HETATM   18  C9  UNL     1      22.493   3.000  49.785  1.00  0.00    -0.028 A 
BRANCH  18  19
HETATM   19  C10 UNL     1      22.209   1.941  48.783  1.00  0.00     0.013 C 
HETATM   20  C11 UNL     1      22.600   2.318  47.395  1.00  0.00     0.015 C 
HETATM   21  C12 UNL     1      20.862   1.318  48.941  1.00  0.00     0.015 C 
ENDBRANCH  18  19
ENDBRANCH  11  13
ENDBRANCH   4  11
BRANCH   5  22
HETATM   22  C14 UNL     1      25.389   0.126  53.425  1.00  0.00     0.004 A 
HETATM   23  C15 UNL     1      26.003  -1.086  53.080  1.00  0.00     0.013 A 
HETATM   24  C16 UNL     1      27.349  -1.355  53.004  1.00  0.00     0.024 A 
HETATM   25  C17 UNL     1      28.193  -0.312  53.305  1.00  0.00     0.035 A 
HETATM   26 CL1  UNL     1      29.916  -0.615  53.220  1.00  0.00    -0.084 Cl
HETATM   27  C18 UNL     1      27.662   0.915  53.655  1.00  0.00     0.048 A 
HETATM   28  C19 UNL     1      26.298   1.116  53.710  1.00  0.00     0.044 A 
HETATM   29 CL2  UNL     1      25.634   2.674  54.139  1.00  0.00    -0.084 Cl
ENDBRANCH   5  22
TORSDOF 4
ENDMDL
MODEL 5
REMARK VINA RESULT:      -7.5      2.909      5.879
REMARK  4 active torsions:
REMARK  status: ('A' for Active; 'I' for Inactive)
REMARK    1  A    between atoms: C3_4  and  N2_5 
REMARK    2  A    between atoms: N2_5  and  C4_6 
REMARK    3  A    between atoms: C9_11  and  C10_12 
REMARK    4  A    between atoms: C13_15  and  C14_16 
ROOT
HETATM    1  C1  UNL     1      20.293   5.341  50.251  1.00  0.00     0.068 C 
HETATM    2  C2  UNL     1      21.379   4.929  51.254  1.00  0.00     0.341 C 
HETATM    3  N1  UNL     1      21.572   3.500  51.056  1.00  0.00    -0.238 NA
HETATM    4  C3  UNL     1      22.659   2.764  51.168  1.00  0.00     0.140 C 
HETATM    5  C13 UNL     1      23.955   3.340  51.528  1.00  0.00     0.326 C 
HETATM    6  N3  UNL     1      23.695   4.365  52.559  1.00  0.00     0.128 N 
HETATM    7  C20 UNL     1      23.566   5.660  51.960  1.00  0.00     0.541 C 
HETATM    8  N4  UNL     1      22.558   5.704  50.921  1.00  0.00     0.135 N 
HETATM    9  H21 UNL     1      22.781   4.161  53.040  1.00  0.00     0.319 HD
HETATM   10  H24 UNL     1      22.227   6.695  50.863  1.00  0.00     0.320 HD
ENDROOT
BRANCH   4  11
HETATM   11  N2  UNL     1      22.363   1.392  50.873  1.00  0.00    -0.342 N 
HETATM   12  H5  UNL     1      23.250   0.916  50.518  1.00  0.00     0.167 HD
BRANCH  11  13
HETATM   13  C4  UNL     1      21.021   0.914  51.096  1.00  0.00     0.040 A 
HETATM   14  C5  UNL     1      20.100   1.106  50.085  1.00  0.00     0.030 A 
HETATM   15  C6  UNL     1      18.791   0.693  50.179  1.00  0.00     0.002 A 
HETATM   16  C7  UNL     1      18.440   0.073  51.340  1.00  0.00     0.001 A 
HETATM   17  C8  UNL     1      19.320  -0.132  52.355  1.00  0.00     0.010 A 
HETATM   18  C9  UNL     1      20.661   0.286  52.269  1.00  0.00    -0.028 A 
BRANCH  18  19
HETATM   19  C10 UNL     1      21.620   0.036  53.375  1.00  0.00     0.013 C 
HETATM   20  C11 UNL     1      22.454  -1.184  53.173  1.00  0.00     0.015 C 
HETATM   21  C12 UNL     1      21.022   0.206  54.732  1.00  0.00     0.015 C 
ENDBRANCH  18  19
ENDBRANCH  11  13
ENDBRANCH   4  11
BRANCH   5  22
HETATM   22  C14 UNL     1      25.019   2.432  51.932  1.00  0.00     0.004 A 
HETATM   23  C15 UNL     1      24.867   1.732  53.137  1.00  0.00     0.013 A 
HETATM   24  C16 UNL     1      25.744   0.839  53.706  1.00  0.00     0.024 A 
HETATM   25  C17 UNL     1      26.908   0.607  53.011  1.00  0.00     0.035 A 
HETATM   26 CL1  UNL     1      28.052  -0.525  53.704  1.00  0.00    -0.084 Cl
HETATM   27  C18 UNL     1      27.129   1.260  51.814  1.00  0.00     0.048 A 
HETATM   28  C19 UNL     1      26.203   2.145  51.299  1.00  0.00     0.044 A 
HETATM   29 CL2  UNL     1      26.484   2.957  49.778  1.00  0.00    -0.084 Cl
ENDBRANCH   5  22
TORSDOF 4
ENDMDL
MODEL 6
REMARK VINA RESULT:      -7.5      3.049      5.569
REMARK  4 active torsions:
REMARK  status: ('A' for Active; 'I' for Inactive)
REMARK    1  A    between atoms: C3_4  and  N2_5 
REMARK    2  A    between atoms: N2_5  and  C4_6 
REMARK    3  A    between atoms: C9_11  and  C10_12 
REMARK    4  A    between atoms: C13_15  and  C14_16 
ROOT
HETATM    1  C1  UNL     1      20.818   8.192  50.035  1.00  0.00     0.068 C 
HETATM    2  C2  UNL     1      21.900   7.553  50.915  1.00  0.00     0.341 C 
HETATM    3  N1  UNL     1      21.459   6.185  51.147  1.00  0.00    -0.238 NA
HETATM    4  C3  UNL     1      22.159   5.079  51.298  1.00  0.00     0.140 C 
HETATM    5  C13 UNL     1      23.620   5.067  51.231  1.00  0.00     0.326 C 
HETATM    6  N3  UNL     1      24.088   6.289  51.915  1.00  0.00     0.128 N 
HETATM    7  C20 UNL     1      24.302   7.344  50.969  1.00  0.00     0.541 C 
HETATM    8  N4  UNL     1      23.135   7.621  50.158  1.00  0.00     0.135 N 
HETATM    9  H21 UNL     1      23.350   6.627  52.584  1.00  0.00     0.319 HD
HETATM   10  H24 UNL     1      23.212   8.618  49.848  1.00  0.00     0.320 HD
ENDROOT
BRANCH   4  11
HETATM   11  N2  UNL     1      21.283   3.962  51.505  1.00  0.00    -0.342 N 
HETATM   12  H5  UNL     1      20.682   4.149  52.368  1.00  0.00     0.167 HD
BRANCH  11  13
HETATM   13  C4  UNL     1      21.344   2.857  50.581  1.00  0.00     0.040 A 
HETATM   14  C5  UNL     1      21.258   3.148  49.233  1.00  0.00     0.030 A 
HETATM   15  C6  UNL     1      21.306   2.182  48.256  1.00  0.00     0.002 A 
HETATM   16  C7  UNL     1      21.444   0.897  48.690  1.00  0.00     0.001 A 
HETATM   17  C8  UNL     1      21.531   0.575  50.007  1.00  0.00     0.010 A 
HETATM   18  C9  UNL     1      21.484   1.557  51.014  1.00  0.00    -0.028 A 
BRANCH  18  19
HETATM   19  C10 UNL     1      21.603   1.196  52.450  1.00  0.00     0.013 C 
HETATM   20  C11 UNL     1      22.540   0.063  52.701  1.00  0.00     0.015 C 
HETATM   21  C12 UNL     1      20.292   1.134  53.160  1.00  0.00     0.015 C 
ENDBRANCH  18  19
ENDBRANCH  11  13
ENDBRANCH   4  11
BRANCH   5  22
HETATM   22  C14 UNL     1      24.316   3.882  51.712  1.00  0.00     0.004 A 
HETATM   23  C15 UNL     1      24.316   3.630  53.090  1.00  0.00     0.013 A 
HETATM   24  C16 UNL     1      24.914   2.585  53.754  1.00  0.00     0.024 A 
HETATM   25  C17 UNL     1      25.593   1.681  52.972  1.00  0.00     0.035 A 
HETATM   26 CL1  UNL     1      26.368   0.334  53.781  1.00  0.00    -0.084 Cl
HETATM   27  C18 UNL     1      25.638   1.862  51.603  1.00  0.00     0.048 A 
HETATM   28  C19 UNL     1      25.013   2.936  51.001  1.00  0.00     0.044 A 
HETATM   29 CL2  UNL     1      25.063   3.150  49.268  1.00  0.00    -0.084 Cl
ENDBRANCH   5  22
TORSDOF 4
ENDMDL
MODEL 7
REMARK VINA RESULT:      -7.4      2.246      5.440
REMARK  4 active torsions:
REMARK  status: ('A' for Active; 'I' for Inactive)
REMARK    1  A    between atoms: C3_4  and  N2_5 
REMARK    2  A    between atoms: N2_5  and  C4_6 
REMARK    3  A    between atoms: C9_11  and  C10_12 
REMARK    4  A    between atoms: C13_15  and  C14_16 
ROOT
HETATM    1  C1  UNL     1      28.020   2.107  53.456  1.00  0.00     0.068 C 
HETATM    2  C2  UNL     1      26.688   1.433  53.809  1.00  0.00     0.341 C 
HETATM    3  N1  UNL     1      25.653   2.360  53.374  1.00  0.00    -0.238 NA
HETATM    4  C3  UNL     1      24.447   2.126  52.899  1.00  0.00     0.140 C 
HETATM    5  C13 UNL     1      23.934   0.769  52.710  1.00  0.00     0.326 C 
HETATM    6  N3  UNL     1      24.396  -0.027  53.864  1.00  0.00     0.128 N 
HETATM    7  C20 UNL     1      25.615  -0.711  53.547  1.00  0.00     0.541 C 
HETATM    8  N4  UNL     1      26.658   0.180  53.082  1.00  0.00     0.135 N 
HETATM    9  H21 UNL     1      24.609   0.612  54.674  1.00  0.00     0.319 HD
HETATM   10  H24 UNL     1      27.570  -0.286  53.299  1.00  0.00     0.320 HD
ENDROOT
BRANCH   4  11
HETATM   11  N2  UNL     1      23.782   3.362  52.603  1.00  0.00    -0.342 N 
HETATM   12  H5  UNL     1      23.150   3.620  53.424  1.00  0.00     0.167 HD
BRANCH  11  13
HETATM   13  C4  UNL     1      24.060   4.011  51.346  1.00  0.00     0.040 A 
HETATM   14  C5  UNL     1      25.227   3.661  50.693  1.00  0.00     0.030 A 
HETATM   15  C6  UNL     1      25.601   4.208  49.488  1.00  0.00     0.002 A 
HETATM   16  C7  UNL     1      24.749   5.131  48.959  1.00  0.00     0.001 A 
HETATM   17  C8  UNL     1      23.595   5.499  49.574  1.00  0.00     0.010 A 
HETATM   18  C9  UNL     1      23.203   4.945  50.807  1.00  0.00    -0.028 A 
BRANCH  18  19
HETATM   19  C10 UNL     1      21.928   5.338  51.459  1.00  0.00     0.013 C 
HETATM   20  C11 UNL     1      20.845   4.325  51.301  1.00  0.00     0.015 C 
HETATM   21  C12 UNL     1      21.543   6.757  51.207  1.00  0.00     0.015 C 
ENDBRANCH  18  19
ENDBRANCH  11  13
ENDBRANCH   4  11
BRANCH   5  22
HETATM   22  C14 UNL     1      22.505   0.604  52.482  1.00  0.00     0.004 A 
HETATM   23  C15 UNL     1      21.712   0.171  53.554  1.00  0.00     0.013 A 
HETATM   24  C16 UNL     1      20.356  -0.057  53.557  1.00  0.00     0.024 A 
HETATM   25  C17 UNL     1      19.702   0.164  52.368  1.00  0.00     0.035 A 
HETATM   26 CL1  UNL     1      17.973  -0.116  52.332  1.00  0.00    -0.084 Cl
HETATM   27  C18 UNL     1      20.417   0.592  51.266  1.00  0.00     0.048 A 
HETATM   28  C19 UNL     1      21.779   0.803  51.334  1.00  0.00     0.044 A 
HETATM   29 CL2  UNL     1      22.674   1.357  49.939  1.00  0.00    -0.084 Cl
ENDBRANCH   5  22
TORSDOF 4
ENDMDL
MODEL 8
REMARK VINA RESULT:      -7.2      3.001      7.062
REMARK  4 active torsions:
REMARK  status: ('A' for Active; 'I' for Inactive)
REMARK    1  A    between atoms: C3_4  and  N2_5 
REMARK    2  A    between atoms: N2_5  and  C4_6 
REMARK    3  A    between atoms: C9_11  and  C10_12 
REMARK    4  A    between atoms: C13_15  and  C14_16 
ROOT
HETATM    1  C1  UNL     1      22.869   0.010  53.092  1.00  0.00     0.068 C 
HETATM    2  C2  UNL     1      24.083   0.679  52.435  1.00  0.00     0.341 C 
HETATM    3  N1  UNL     1      23.565   1.362  51.259  1.00  0.00    -0.238 NA
HETATM    4  C3  UNL     1      23.952   2.484  50.686  1.00  0.00     0.140 C 
HETATM    5  C13 UNL     1      25.055   3.287  51.214  1.00  0.00     0.326 C 
HETATM    6  N3  UNL     1      26.093   2.340  51.668  1.00  0.00     0.128 N 
HETATM    7  C20 UNL     1      25.949   2.070  53.068  1.00  0.00     0.541 C 
HETATM    8  N4  UNL     1      24.627   1.595  53.419  1.00  0.00     0.135 N 
HETATM    9  H21 UNL     1      25.978   1.421  51.169  1.00  0.00     0.319 HD
HETATM   10  H24 UNL     1      24.732   1.028  54.293  1.00  0.00     0.320 HD
ENDROOT
BRANCH   4  11
HETATM   11  N2  UNL     1      23.136   2.764  49.541  1.00  0.00    -0.342 N 
HETATM   12  H5  UNL     1      23.508   2.211  48.707  1.00  0.00     0.167 HD
BRANCH  11  13
HETATM   13  C4  UNL     1      22.023   3.669  49.692  1.00  0.00     0.040 A 
HETATM   14  C5  UNL     1      21.257   3.553  50.836  1.00  0.00     0.030 A 
HETATM   15  C6  UNL     1      20.173   4.358  51.094  1.00  0.00     0.002 A 
HETATM   16  C7  UNL     1      19.885   5.296  50.148  1.00  0.00     0.001 A 
HETATM   17  C8  UNL     1      20.616   5.438  49.012  1.00  0.00     0.010 A 
HETATM   18  C9  UNL     1      21.728   4.619  48.739  1.00  0.00    -0.028 A 
BRANCH  18  19
HETATM   19  C10 UNL     1      22.534   4.798  47.504  1.00  0.00     0.013 C 
HETATM   20  C11 UNL     1      22.950   6.210  47.268  1.00  0.00     0.015 C 
HETATM   21  C12 UNL     1      21.986   4.068  46.324  1.00  0.00     0.015 C 
ENDBRANCH  18  19
ENDBRANCH  11  13
ENDBRANCH   4  11
BRANCH   5  22
HETATM   22  C14 UNL     1      25.613   4.326  50.360  1.00  0.00     0.004 A 
HETATM   23  C15 UNL     1      26.692   3.990  49.530  1.00  0.00     0.013 A 
HETATM   24  C16 UNL     1      27.370   4.810  48.660  1.00  0.00     0.024 A 
HETATM   25  C17 UNL     1      26.940   6.115  48.598  1.00  0.00     0.035 A 
HETATM   26 CL1  UNL     1      27.780   7.192  47.500  1.00  0.00    -0.084 Cl
HETATM   27  C18 UNL     1      25.881   6.522  49.387  1.00  0.00     0.048 A 
HETATM   28  C19 UNL     1      25.244   5.643  50.240  1.00  0.00     0.044 A 
HETATM   29 CL2  UNL     1      23.897   6.162  51.224  1.00  0.00    -0.084 Cl
ENDBRANCH   5  22
TORSDOF 4
ENDMDL
MODEL 9
REMARK VINA RESULT:      -7.1      2.454      5.674
REMARK  4 active torsions:
REMARK  status: ('A' for Active; 'I' for Inactive)
REMARK    1  A    between atoms: C3_4  and  N2_5 
REMARK    2  A    between atoms: N2_5  and  C4_6 
REMARK    3  A    between atoms: C9_11  and  C10_12 
REMARK    4  A    between atoms: C13_15  and  C14_16 
ROOT
HETATM    1  C1  UNL     1      19.239   3.687  48.049  1.00  0.00     0.068 C 
HETATM    2  C2  UNL     1      20.001   2.731  48.975  1.00  0.00     0.341 C 
HETATM    3  N1  UNL     1      21.402   3.112  48.864  1.00  0.00    -0.238 NA
HETATM    4  C3  UNL     1      22.367   3.080  49.761  1.00  0.00     0.140 C 
HETATM    5  C13 UNL     1      22.139   2.628  51.133  1.00  0.00     0.326 C 
HETATM    6  N3  UNL     1      21.219   1.475  51.055  1.00  0.00     0.128 N 
HETATM    7  C20 UNL     1      19.863   1.902  51.236  1.00  0.00     0.541 C 
HETATM    8  N4  UNL     1      19.469   2.941  50.307  1.00  0.00     0.135 N 
HETATM    9  H21 UNL     1      21.275   1.040  50.099  1.00  0.00     0.319 HD
HETATM   10  H24 UNL     1      18.430   2.873  50.201  1.00  0.00     0.320 HD
ENDROOT
BRANCH   4  11
HETATM   11  N2  UNL     1      23.592   3.557  49.188  1.00  0.00    -0.342 N 
HETATM   12  H5  UNL     1      23.997   2.798  48.556  1.00  0.00     0.167 HD
BRANCH  11  13
HETATM   13  C4  UNL     1      24.040   4.885  49.527  1.00  0.00     0.040 A 
HETATM   14  C5  UNL     1      23.073   5.833  49.803  1.00  0.00     0.030 A 
HETATM   15  C6  UNL     1      23.374   7.131  50.139  1.00  0.00     0.002 A 
HETATM   16  C7  UNL     1      24.699   7.446  50.188  1.00  0.00     0.001 A 
HETATM   17  C8  UNL     1      25.676   6.540  49.921  1.00  0.00     0.010 A 
HETATM   18  C9  UNL     1      25.378   5.208  49.577  1.00  0.00    -0.028 A 
BRANCH  18  19
HETATM   19  C10 UNL     1      26.455   4.220  49.310  1.00  0.00     0.013 C 
HETATM   20  C11 UNL     1      26.729   3.317  50.464  1.00  0.00     0.015 C 
HETATM   21  C12 UNL     1      27.650   4.809  48.637  1.00  0.00     0.015 C 
ENDBRANCH  18  19
ENDBRANCH  11  13
ENDBRANCH   4  11
BRANCH   5  22
HETATM   22  C14 UNL     1      23.302   2.330  51.957  1.00  0.00     0.004 A 
HETATM   23  C15 UNL     1      23.853   1.043  51.882  1.00  0.00     0.013 A 
HETATM   24  C16 UNL     1      24.936   0.551  52.572  1.00  0.00     0.024 A 
HETATM   25  C17 UNL     1      25.548   1.424  53.440  1.00  0.00     0.035 A 
HETATM   26 CL1  UNL     1      26.932   0.833  54.338  1.00  0.00    -0.084 Cl
HETATM   27  C18 UNL     1      25.062   2.711  53.569  1.00  0.00     0.048 A 
HETATM   28  C19 UNL     1      23.970   3.140  52.842  1.00  0.00     0.044 A 
HETATM   29 CL2  UNL     1      23.370   4.773  53.001  1.00  0.00    -0.084 Cl
ENDBRANCH   5  22
TORSDOF 4
ENDMDL
