MODEL 1
REMARK VINA RESULT:      -8.3      0.000      0.000
REMARK  1 active torsions:
REMARK  status: ('A' for Active; 'I' for Inactive)
REMARK    1  A    between atoms: C5_6  and  C6_7 
ROOT
HETATM    1  C6  UNL     1      24.487   2.983  50.930  1.00  0.00     0.046 C 
HETATM    2  C7  UNL     1      25.519   1.980  51.296  1.00  0.00     0.032 C 
HETATM    3  C8  UNL     1      25.170   0.903  52.209  1.00  0.00     0.000 C 
HETATM    4  C9  UNL     1      24.621   0.049  53.029  1.00  0.00     0.020 C 
HETATM    5  C10 UNL     1      23.521  -0.517  53.834  1.00  0.00    -0.025 C 
HETATM    6  C11 UNL     1      22.259  -0.453  54.230  1.00  0.00    -0.029 C 
HETATM    7  C12 UNL     1      20.866   0.024  54.368  1.00  0.00     0.047 C 
HETATM    8  C13 UNL     1      20.807   1.265  53.461  1.00  0.00     0.128 C 
HETATM    9  N1  UNL     1      21.136   1.044  52.106  1.00  0.00    -0.360 N 
HETATM   10  C14 UNL     1      21.177   0.356  50.841  1.00  0.00     0.173 C 
HETATM   11  C15 UNL     1      22.130   1.379  50.370  1.00  0.00     0.031 C 
HETATM   12  S1  UNL     1      23.222   2.461  49.713  1.00  0.00    -0.180 SA
HETATM   13  C16 UNL     1      21.949   2.101  51.609  1.00  0.00     0.134 C 
HETATM   14  N2  UNL     1      22.376   3.190  52.168  1.00  0.00    -0.270 NA
HETATM   15  C17 UNL     1      23.768   3.581  52.107  1.00  0.00     0.175 C 
HETATM   16  H16 UNL     1      23.614   2.334  48.334  1.00  0.00     0.097 HD
ENDROOT
BRANCH   1  17
HETATM   17  C5  UNL     1      25.213   4.111  50.283  1.00  0.00    -0.037 A 
HETATM   18  C4  UNL     1      26.348   3.775  49.533  1.00  0.00     0.009 A 
HETATM   19  C3  UNL     1      27.132   4.728  48.870  1.00  0.00     0.002 A 
HETATM   20  C2  UNL     1      26.783   6.062  48.952  1.00  0.00     0.019 A 
HETATM   21  C1  UNL     1      25.686   6.419  49.673  1.00  0.00     0.011 A 
HETATM   22 BR1  UNL     1      25.138   8.249  49.831  1.00  0.00    -0.051 Br
HETATM   23  C18 UNL     1      24.958   5.461  50.297  1.00  0.00     0.027 A 
ENDBRANCH   1  17
TORSDOF 1
ENDMDL
MODEL 2
REMARK VINA RESULT:      -8.2      3.201      6.629
REMARK  1 active torsions:
REMARK  status: ('A' for Active; 'I' for Inactive)
REMARK    1  A    between atoms: C5_6  and  C6_7 
ROOT
HETATM    1  C6  UNL     1      21.403   0.974  51.939  1.00  0.00     0.046 C 
HETATM    2  C7  UNL     1      22.244   0.214  52.899  1.00  0.00     0.032 C 
HETATM    3  C8  UNL     1      23.687   0.390  52.871  1.00  0.00     0.000 C 
HETATM    4  C9  UNL     1      24.932   0.713  52.650  1.00  0.00     0.020 C 
HETATM    5  C10 UNL     1      26.029   1.427  51.970  1.00  0.00    -0.025 C 
HETATM    6  C11 UNL     1      26.415   2.291  51.043  1.00  0.00    -0.029 C 
HETATM    7  C12 UNL     1      26.343   3.269  49.936  1.00  0.00     0.047 C 
HETATM    8  C13 UNL     1      24.837   3.390  49.644  1.00  0.00     0.128 C 
HETATM    9  N1  UNL     1      24.038   3.798  50.734  1.00  0.00    -0.360 N 
HETATM   10  C14 UNL     1      23.676   4.537  51.916  1.00  0.00     0.173 C 
HETATM   11  C15 UNL     1      22.491   3.665  52.040  1.00  0.00     0.031 C 
HETATM   12  S1  UNL     1      21.122   2.745  52.306  1.00  0.00    -0.180 SA
HETATM   13  C16 UNL     1      22.830   3.046  50.778  1.00  0.00     0.134 C 
HETATM   14  N2  UNL     1      22.364   2.125  49.994  1.00  0.00    -0.270 NA
HETATM   15  C17 UNL     1      21.859   0.870  50.510  1.00  0.00     0.175 C 
HETATM   16  H16 UNL     1      20.230   3.085  53.384  1.00  0.00     0.097 HD
ENDROOT
BRANCH   1  17
HETATM   17  C5  UNL     1      20.054   0.345  51.979  1.00  0.00    -0.037 A 
HETATM   18  C4  UNL     1      19.738  -0.383  53.135  1.00  0.00     0.009 A 
HETATM   19  C3  UNL     1      18.509  -1.031  53.314  1.00  0.00     0.002 A 
HETATM   20  C2  UNL     1      17.557  -0.958  52.316  1.00  0.00     0.019 A 
HETATM   21  C1  UNL     1      17.834  -0.260  51.182  1.00  0.00     0.011 A 
HETATM   22 BR1  UNL     1      16.564  -0.113  49.755  1.00  0.00    -0.051 Br
HETATM   23  C18 UNL     1      19.038   0.351  51.054  1.00  0.00     0.027 A 
ENDBRANCH   1  17
TORSDOF 1
ENDMDL
MODEL 3
REMARK VINA RESULT:      -8.0      3.020      6.775
REMARK  1 active torsions:
REMARK  status: ('A' for Active; 'I' for Inactive)
REMARK    1  A    between atoms: C5_6  and  C6_7 
ROOT
HETATM    1  C6  UNL     1      23.976   3.324  50.436  1.00  0.00     0.046 C 
HETATM    2  C7  UNL     1      25.382   2.854  50.531  1.00  0.00     0.032 C 
HETATM    3  C8  UNL     1      26.435   3.636  49.905  1.00  0.00     0.000 C 
HETATM    4  C9  UNL     1      27.185   4.497  49.272  1.00  0.00     0.020 C 
HETATM    5  C10 UNL     1      27.453   5.717  48.487  1.00  0.00    -0.025 C 
HETATM    6  C11 UNL     1      26.987   6.803  47.889  1.00  0.00    -0.029 C 
HETATM    7  C12 UNL     1      26.033   7.823  47.402  1.00  0.00     0.047 C 
HETATM    8  C13 UNL     1      24.668   7.330  47.911  1.00  0.00     0.128 C 
HETATM    9  N1  UNL     1      24.565   7.165  49.309  1.00  0.00    -0.360 N 
HETATM   10  C14 UNL     1      24.763   7.468  50.704  1.00  0.00     0.173 C 
HETATM   11  C15 UNL     1      24.152   6.163  51.024  1.00  0.00     0.031 C 
HETATM   12  S1  UNL     1      23.492   4.712  51.527  1.00  0.00    -0.180 SA
HETATM   13  C16 UNL     1      23.858   5.969  49.622  1.00  0.00     0.134 C 
HETATM   14  N2  UNL     1      23.295   5.082  48.863  1.00  0.00    -0.270 NA
HETATM   15  C17 UNL     1      23.537   3.666  49.039  1.00  0.00     0.175 C 
HETATM   16  H16 UNL     1      23.328   4.449  52.933  1.00  0.00     0.097 HD
ENDROOT
BRANCH   1  17
HETATM   17  C5  UNL     1      23.124   2.177  50.857  1.00  0.00    -0.037 A 
HETATM   18  C4  UNL     1      22.131   1.772  49.954  1.00  0.00     0.009 A 
HETATM   19  C3  UNL     1      21.254   0.711  50.212  1.00  0.00     0.002 A 
HETATM   20  C2  UNL     1      21.361   0.024  51.406  1.00  0.00     0.019 A 
HETATM   21  C1  UNL     1      22.315   0.394  52.303  1.00  0.00     0.011 A 
HETATM   22 BR1  UNL     1      22.524  -0.511  53.979  1.00  0.00    -0.051 Br
HETATM   23  C18 UNL     1      23.141   1.427  52.008  1.00  0.00     0.027 A 
ENDBRANCH   1  17
TORSDOF 1
ENDMDL
MODEL 4
REMARK VINA RESULT:      -8.0      3.381      4.711
REMARK  1 active torsions:
REMARK  status: ('A' for Active; 'I' for Inactive)
REMARK    1  A    between atoms: C5_6  and  C6_7 
ROOT
HETATM    1  C6  UNL     1      25.280   1.425  52.639  1.00  0.00     0.046 C 
HETATM    2  C7  UNL     1      24.603   0.126  52.887  1.00  0.00     0.032 C 
HETATM    3  C8  UNL     1      23.150   0.069  52.870  1.00  0.00     0.000 C 
HETATM    4  C9  UNL     1      21.862   0.273  52.804  1.00  0.00     0.020 C 
HETATM    5  C10 UNL     1      20.643   1.083  52.616  1.00  0.00    -0.025 C 
HETATM    6  C11 UNL     1      20.094   2.261  52.364  1.00  0.00    -0.029 C 
HETATM    7  C12 UNL     1      19.973   3.704  52.063  1.00  0.00     0.047 C 
HETATM    8  C13 UNL     1      21.430   4.190  51.979  1.00  0.00     0.128 C 
HETATM    9  N1  UNL     1      22.233   3.538  51.018  1.00  0.00    -0.360 N 
HETATM   10  C14 UNL     1      22.567   2.917  49.762  1.00  0.00     0.173 C 
HETATM   11  C15 UNL     1      23.859   2.522  50.355  1.00  0.00     0.031 C 
HETATM   12  S1  UNL     1      25.350   2.002  50.903  1.00  0.00    -0.180 SA
HETATM   13  C16 UNL     1      23.529   3.273  51.545  1.00  0.00     0.134 C 
HETATM   14  N2  UNL     1      24.063   3.557  52.692  1.00  0.00    -0.270 NA
HETATM   15  C17 UNL     1      24.756   2.559  53.477  1.00  0.00     0.175 C 
HETATM   16  H16 UNL     1      26.253   1.338  50.000  1.00  0.00     0.097 HD
ENDROOT
BRANCH   1  17
HETATM   17  C5  UNL     1      26.699   1.240  53.050  1.00  0.00    -0.037 A 
HETATM   18  C4  UNL     1      27.389   2.393  53.448  1.00  0.00     0.009 A 
HETATM   19  C3  UNL     1      28.728   2.375  53.859  1.00  0.00     0.002 A 
HETATM   20  C2  UNL     1      29.411   1.174  53.878  1.00  0.00     0.019 A 
HETATM   21  C1  UNL     1      28.768   0.038  53.496  1.00  0.00     0.011 A 
HETATM   22 BR1  UNL     1      29.648  -1.665  53.497  1.00  0.00    -0.051 Br
HETATM   23  C18 UNL     1      27.471   0.105  53.107  1.00  0.00     0.027 A 
ENDBRANCH   1  17
TORSDOF 1
ENDMDL
MODEL 5
REMARK VINA RESULT:      -8.0      1.672      2.833
REMARK  1 active torsions:
REMARK  status: ('A' for Active; 'I' for Inactive)
REMARK    1  A    between atoms: C5_6  and  C6_7 
ROOT
HETATM    1  C6  UNL     1      24.485   4.181  49.618  1.00  0.00     0.046 C 
HETATM    2  C7  UNL     1      23.754   3.712  48.413  1.00  0.00     0.032 C 
HETATM    3  C8  UNL     1      22.785   2.636  48.546  1.00  0.00     0.000 C 
HETATM    4  C9  UNL     1      21.983   1.675  48.917  1.00  0.00     0.020 C 
HETATM    5  C10 UNL     1      21.359   0.750  49.882  1.00  0.00    -0.025 C 
HETATM    6  C11 UNL     1      21.256   0.315  51.129  1.00  0.00    -0.029 C 
HETATM    7  C12 UNL     1      21.489   0.192  52.584  1.00  0.00     0.047 C 
HETATM    8  C13 UNL     1      22.545   1.269  52.883  1.00  0.00     0.128 C 
HETATM    9  N1  UNL     1      22.180   2.589  52.538  1.00  0.00    -0.360 N 
HETATM   10  C14 UNL     1      21.324   3.738  52.388  1.00  0.00     0.173 C 
HETATM   11  C15 UNL     1      22.417   4.396  51.646  1.00  0.00     0.031 C 
HETATM   12  S1  UNL     1      23.564   5.252  50.782  1.00  0.00    -0.180 SA
HETATM   13  C16 UNL     1      23.277   3.272  51.940  1.00  0.00     0.134 C 
HETATM   14  N2  UNL     1      24.498   2.899  51.713  1.00  0.00    -0.270 NA
HETATM   15  C17 UNL     1      25.119   3.076  50.418  1.00  0.00     0.175 C 
HETATM   16  H16 UNL     1      23.298   6.612  50.392  1.00  0.00     0.097 HD
ENDROOT
BRANCH   1  17
HETATM   17  C5  UNL     1      25.612   5.018  49.121  1.00  0.00    -0.037 A 
HETATM   18  C4  UNL     1      26.870   4.401  49.062  1.00  0.00     0.009 A 
HETATM   19  C3  UNL     1      28.022   5.062  48.618  1.00  0.00     0.002 A 
HETATM   20  C2  UNL     1      27.930   6.381  48.218  1.00  0.00     0.019 A 
HETATM   21  C1  UNL     1      26.723   7.007  48.265  1.00  0.00     0.011 A 
HETATM   22 BR1  UNL     1      26.517   8.835  47.726  1.00  0.00    -0.051 Br
HETATM   23  C18 UNL     1      25.636   6.326  48.702  1.00  0.00     0.027 A 
ENDBRANCH   1  17
TORSDOF 1
ENDMDL
MODEL 6
REMARK VINA RESULT:      -7.9      3.133      6.782
REMARK  1 active torsions:
REMARK  status: ('A' for Active; 'I' for Inactive)
REMARK    1  A    between atoms: C5_6  and  C6_7 
ROOT
HETATM    1  C6  UNL     1      22.356   1.392  51.607  1.00  0.00     0.046 C 
HETATM    2  C7  UNL     1      21.915   1.018  50.239  1.00  0.00     0.032 C 
HETATM    3  C8  UNL     1      22.111   1.960  49.148  1.00  0.00     0.000 C 
HETATM    4  C9  UNL     1      22.390   2.957  48.354  1.00  0.00     0.020 C 
HETATM    5  C10 UNL     1      22.912   4.296  48.019  1.00  0.00    -0.025 C 
HETATM    6  C11 UNL     1      23.492   5.418  48.419  1.00  0.00    -0.029 C 
HETATM    7  C12 UNL     1      24.119   6.420  49.306  1.00  0.00     0.047 C 
HETATM    8  C13 UNL     1      24.117   5.746  50.689  1.00  0.00     0.128 C 
HETATM    9  N1  UNL     1      24.794   4.509  50.762  1.00  0.00    -0.360 N 
HETATM   10  C14 UNL     1      25.825   3.538  50.500  1.00  0.00     0.173 C 
HETATM   11  C15 UNL     1      24.994   2.538  51.198  1.00  0.00     0.031 C 
HETATM   12  S1  UNL     1      24.152   1.306  51.951  1.00  0.00    -0.180 SA
HETATM   13  C16 UNL     1      24.055   3.580  51.548  1.00  0.00     0.134 C 
HETATM   14  N2  UNL     1      22.941   3.703  52.199  1.00  0.00    -0.270 NA
HETATM   15  C17 UNL     1      21.868   2.741  52.060  1.00  0.00     0.175 C 
HETATM   16  H16 UNL     1      24.757   0.007  52.092  1.00  0.00     0.097 HD
ENDROOT
BRANCH   1  17
HETATM   17  C5  UNL     1      21.730   0.406  52.530  1.00  0.00    -0.037 A 
HETATM   18  C4  UNL     1      22.575  -0.182  53.482  1.00  0.00     0.009 A 
HETATM   19  C3  UNL     1      22.129  -1.128  54.415  1.00  0.00     0.002 A 
HETATM   20  C2  UNL     1      20.801  -1.507  54.408  1.00  0.00     0.019 A 
HETATM   21  C1  UNL     1      19.957  -0.954  53.495  1.00  0.00     0.011 A 
HETATM   22 BR1  UNL     1      18.102  -1.430  53.424  1.00  0.00    -0.051 Br
HETATM   23  C18 UNL     1      20.434  -0.043  52.613  1.00  0.00     0.027 A 
ENDBRANCH   1  17
TORSDOF 1
ENDMDL
MODEL 7
REMARK VINA RESULT:      -7.5      3.211      6.171
REMARK  1 active torsions:
REMARK  status: ('A' for Active; 'I' for Inactive)
REMARK    1  A    between atoms: C5_6  and  C6_7 
ROOT
HETATM    1  C6  UNL     1      24.100   2.989  51.230  1.00  0.00     0.046 C 
HETATM    2  C7  UNL     1      25.447   3.512  50.886  1.00  0.00     0.032 C 
HETATM    3  C8  UNL     1      25.567   4.566  49.892  1.00  0.00     0.000 C 
HETATM    4  C9  UNL     1      25.414   5.494  48.986  1.00  0.00     0.020 C 
HETATM    5  C10 UNL     1      24.643   6.358  48.072  1.00  0.00    -0.025 C 
HETATM    6  C11 UNL     1      23.468   6.730  47.586  1.00  0.00    -0.029 C 
HETATM    7  C12 UNL     1      22.006   6.787  47.372  1.00  0.00     0.047 C 
HETATM    8  C13 UNL     1      21.447   5.729  48.339  1.00  0.00     0.128 C 
HETATM    9  N1  UNL     1      21.768   5.921  49.700  1.00  0.00    -0.360 N 
HETATM   10  C14 UNL     1      21.999   6.644  50.925  1.00  0.00     0.173 C 
HETATM   11  C15 UNL     1      22.481   5.383  51.522  1.00  0.00     0.031 C 
HETATM   12  S1  UNL     1      23.061   4.032  52.317  1.00  0.00    -0.180 SA
HETATM   13  C16 UNL     1      22.106   4.682  50.314  1.00  0.00     0.134 C 
HETATM   14  N2  UNL     1      22.126   3.472  49.850  1.00  0.00    -0.270 NA
HETATM   15  C17 UNL     1      23.270   2.604  50.036  1.00  0.00     0.175 C 
HETATM   16  H16 UNL     1      23.404   4.116  53.713  1.00  0.00     0.097 HD
ENDROOT
BRANCH   1  17
HETATM   17  C5  UNL     1      24.324   1.729  51.990  1.00  0.00    -0.037 A 
HETATM   18  C4  UNL     1      25.612   1.180  51.924  1.00  0.00     0.009 A 
HETATM   19  C3  UNL     1      25.971  -0.002  52.585  1.00  0.00     0.002 A 
HETATM   20  C2  UNL     1      25.023  -0.667  53.338  1.00  0.00     0.019 A 
HETATM   21  C1  UNL     1      23.763  -0.159  53.421  1.00  0.00     0.011 A 
HETATM   22 BR1  UNL     1      22.396  -1.024  54.447  1.00  0.00    -0.051 Br
HETATM   23  C18 UNL     1      23.464   0.988  52.764  1.00  0.00     0.027 A 
ENDBRANCH   1  17
TORSDOF 1
ENDMDL
MODEL 8
REMARK VINA RESULT:      -7.5      3.135      6.531
REMARK  1 active torsions:
REMARK  status: ('A' for Active; 'I' for Inactive)
REMARK    1  A    between atoms: C5_6  and  C6_7 
ROOT
HETATM    1  C6  UNL     1      23.867   2.738  50.894  1.00  0.00     0.046 C 
HETATM    2  C7  UNL     1      23.130   2.239  49.706  1.00  0.00     0.032 C 
HETATM    3  C8  UNL     1      22.751   3.176  48.661  1.00  0.00     0.000 C 
HETATM    4  C9  UNL     1      22.528   4.194  47.875  1.00  0.00     0.020 C 
HETATM    5  C10 UNL     1      22.588   5.612  47.471  1.00  0.00    -0.025 C 
HETATM    6  C11 UNL     1      22.979   6.849  47.736  1.00  0.00    -0.029 C 
HETATM    7  C12 UNL     1      23.592   7.993  48.445  1.00  0.00     0.047 C 
HETATM    8  C13 UNL     1      24.175   7.369  49.724  1.00  0.00     0.128 C 
HETATM    9  N1  UNL     1      25.114   6.335  49.522  1.00  0.00    -0.360 N 
HETATM   10  C14 UNL     1      26.215   5.637  48.907  1.00  0.00     0.173 C 
HETATM   11  C15 UNL     1      25.901   4.481  49.768  1.00  0.00     0.031 C 
HETATM   12  S1  UNL     1      25.648   3.098  50.672  1.00  0.00    -0.180 SA
HETATM   13  C16 UNL     1      24.896   5.271  50.443  1.00  0.00     0.134 C 
HETATM   14  N2  UNL     1      24.040   5.134  51.407  1.00  0.00    -0.270 NA
HETATM   15  C17 UNL     1      23.237   3.938  51.547  1.00  0.00     0.175 C 
HETATM   16  H16 UNL     1      26.558   1.988  50.552  1.00  0.00     0.097 HD
ENDROOT
BRANCH   1  17
HETATM   17  C5  UNL     1      23.809   1.650  51.909  1.00  0.00    -0.037 A 
HETATM   18  C4  UNL     1      25.002   0.953  52.148  1.00  0.00     0.009 A 
HETATM   19  C3  UNL     1      25.099  -0.096  53.071  1.00  0.00     0.002 A 
HETATM   20  C2  UNL     1      23.978  -0.471  53.784  1.00  0.00     0.019 A 
HETATM   21  C1  UNL     1      22.805   0.186  53.574  1.00  0.00     0.011 A 
HETATM   22 BR1  UNL     1      21.208  -0.278  54.527  1.00  0.00    -0.051 Br
HETATM   23  C18 UNL     1      22.760   1.195  52.670  1.00  0.00     0.027 A 
ENDBRANCH   1  17
TORSDOF 1
ENDMDL
MODEL 9
REMARK VINA RESULT:      -7.4      3.350      6.436
REMARK  1 active torsions:
REMARK  status: ('A' for Active; 'I' for Inactive)
REMARK    1  A    between atoms: C5_6  and  C6_7 
ROOT
HETATM    1  C6  UNL     1      23.141   2.979  51.376  1.00  0.00     0.046 C 
HETATM    2  C7  UNL     1      22.060   3.692  52.103  1.00  0.00     0.032 C 
HETATM    3  C8  UNL     1      21.764   5.073  51.759  1.00  0.00     0.000 C 
HETATM    4  C9  UNL     1      21.692   6.284  51.277  1.00  0.00     0.020 C 
HETATM    5  C10 UNL     1      22.080   7.397  50.389  1.00  0.00    -0.025 C 
HETATM    6  C11 UNL     1      22.857   7.852  49.418  1.00  0.00    -0.029 C 
HETATM    7  C12 UNL     1      23.903   7.887  48.373  1.00  0.00     0.047 C 
HETATM    8  C13 UNL     1      24.510   6.475  48.407  1.00  0.00     0.128 C 
HETATM    9  N1  UNL     1      23.601   5.418  48.180  1.00  0.00    -0.360 N 
HETATM   10  C14 UNL     1      22.491   4.722  47.580  1.00  0.00     0.173 C 
HETATM   11  C15 UNL     1      22.672   3.662  48.591  1.00  0.00     0.031 C 
HETATM   12  S1  UNL     1      22.756   2.399  49.683  1.00  0.00    -0.180 SA
HETATM   13  C16 UNL     1      23.858   4.336  49.069  1.00  0.00     0.134 C 
HETATM   14  N2  UNL     1      24.770   4.169  49.975  1.00  0.00    -0.270 NA
HETATM   15  C17 UNL     1      24.440   3.735  51.315  1.00  0.00     0.175 C 
HETATM   16  H16 UNL     1      21.883   1.264  49.533  1.00  0.00     0.097 HD
ENDROOT
BRANCH   1  17
HETATM   17  C5  UNL     1      23.427   1.746  52.159  1.00  0.00    -0.037 A 
HETATM   18  C4  UNL     1      24.767   1.335  52.212  1.00  0.00     0.009 A 
HETATM   19  C3  UNL     1      25.187   0.195  52.908  1.00  0.00     0.002 A 
HETATM   20  C2  UNL     1      24.251  -0.569  53.576  1.00  0.00     0.019 A 
HETATM   21  C1  UNL     1      22.942  -0.197  53.543  1.00  0.00     0.011 A 
HETATM   22 BR1  UNL     1      21.587  -1.206  54.447  1.00  0.00    -0.051 Br
HETATM   23  C18 UNL     1      22.584   0.915  52.856  1.00  0.00     0.027 A 
ENDBRANCH   1  17
TORSDOF 1
ENDMDL
