MODEL 1
REMARK VINA RESULT:      -7.9      0.000      0.000
REMARK  3 active torsions:
REMARK  status: ('A' for Active; 'I' for Inactive)
REMARK    1  A    between atoms: C2_2  and  C3_3 
REMARK    2  A    between atoms: C15_21  and  O4_22 
REMARK    3  A    between atoms: C17_24  and  O5_25 
ROOT
HETATM    1  C3  UNL     1      22.057  -0.454  53.160  1.00  0.00    -0.057 C 
HETATM    2  C4  UNL     1      20.713  -0.201  52.623  1.00  0.00     0.003 C 
HETATM    3  C5  UNL     1      20.224   0.656  51.761  1.00  0.00    -0.021 C 
HETATM    4  C6  UNL     1      19.314   1.419  50.881  1.00  0.00     0.068 C 
HETATM    5  P1  UNL     1      19.411   3.189  51.443  1.00  0.00    -0.020 P 
HETATM    6  C7  UNL     1      20.373   4.220  50.324  1.00  0.00     0.280 C 
HETATM    7  O1  UNL     1      20.632   5.182  51.065  1.00  0.00    -0.260 OA
HETATM    8  O2  UNL     1      20.753   4.063  49.023  1.00  0.00    -0.316 OA
HETATM    9  C8  UNL     1      21.501   4.960  48.285  1.00  0.00     0.205 C 
HETATM   10  C9  UNL     1      22.887   5.151  48.790  1.00  0.00     0.195 C 
HETATM   11  O3  UNL     1      22.932   5.624  50.071  1.00  0.00    -0.383 OA
HETATM   12  C10 UNL     1      24.221   5.868  50.524  1.00  0.00     0.226 C 
HETATM   13  C11 UNL     1      25.086   4.695  50.498  1.00  0.00     0.061 A 
HETATM   14  C12 UNL     1      25.306   3.894  51.591  1.00  0.00     0.064 A 
HETATM   15  C13 UNL     1      26.158   2.806  51.376  1.00  0.00     0.096 A 
HETATM   16  N1  UNL     1      26.754   2.509  50.207  1.00  0.00    -0.239 NA
HETATM   17  C14 UNL     1      26.507   3.326  49.165  1.00  0.00     0.234 A 
HETATM   18  N2  UNL     1      25.692   4.376  49.344  1.00  0.00    -0.244 NA
HETATM   19  C15 UNL     1      26.560   1.775  52.361  1.00  0.00     0.126 C 
HETATM   20  C17 UNL     1      25.511   1.067  52.708  1.00  0.00     0.082 C 
HETATM   21  C19 UNL     1      24.089   0.923  52.481  1.00  0.00     0.040 C 
HETATM   22  C20 UNL     1      23.399  -0.022  53.118  1.00  0.00     0.070 C 
HETATM   23  H9  UNL     1      18.120   3.744  51.779  1.00  0.00     0.068 HD
ENDROOT
BRANCH   1  24
HETATM   24  C2  UNL     1      21.901  -1.465  53.989  1.00  0.00    -0.024 C 
HETATM   25  C1  UNL     1      22.617  -1.630  55.273  1.00  0.00     0.036 C 
ENDBRANCH   1  24
BRANCH  20  26
HETATM   26  O5  UNL     1      25.989   0.144  53.616  1.00  0.00    -0.357 OA
HETATM   27  C18 UNL     1      26.517  -1.103  53.177  1.00  0.00     0.209 C 
ENDBRANCH  20  26
BRANCH  19  28
HETATM   28  O4  UNL     1      27.842   1.676  52.764  1.00  0.00    -0.351 OA
HETATM   29  C16 UNL     1      28.538   2.513  53.632  1.00  0.00     0.210 C 
ENDBRANCH  19  28
TORSDOF 3
ENDMDL
MODEL 2
REMARK VINA RESULT:      -7.7      7.094      9.311
REMARK  3 active torsions:
REMARK  status: ('A' for Active; 'I' for Inactive)
REMARK    1  A    between atoms: C2_2  and  C3_3 
REMARK    2  A    between atoms: C15_21  and  O4_22 
REMARK    3  A    between atoms: C17_24  and  O5_25 
ROOT
HETATM    1  C3  UNL     1      27.553   5.350  48.585  1.00  0.00    -0.057 C 
HETATM    2  C4  UNL     1      26.307   6.127  48.559  1.00  0.00     0.003 C 
HETATM    3  C5  UNL     1      26.016   7.370  48.263  1.00  0.00    -0.021 C 
HETATM    4  C6  UNL     1      25.296   8.639  48.024  1.00  0.00     0.068 C 
HETATM    5  P1  UNL     1      26.035   9.883  49.194  1.00  0.00    -0.020 P 
HETATM    6  C7  UNL     1      27.126  11.051  48.366  1.00  0.00     0.280 C 
HETATM    7  O1  UNL     1      27.776  11.480  49.332  1.00  0.00    -0.260 OA
HETATM    8  O2  UNL     1      27.263  11.417  47.059  1.00  0.00    -0.316 OA
HETATM    9  C8  UNL     1      28.159  12.346  46.569  1.00  0.00     0.205 C 
HETATM   10  C9  UNL     1      29.585  11.956  46.732  1.00  0.00     0.195 C 
HETATM   11  O3  UNL     1      29.947  11.770  48.036  1.00  0.00    -0.383 OA
HETATM   12  C10 UNL     1      31.293  11.472  48.199  1.00  0.00     0.226 C 
HETATM   13  C11 UNL     1      31.718  10.271  47.490  1.00  0.00     0.061 A 
HETATM   14  C12 UNL     1      31.806   9.035  48.080  1.00  0.00     0.064 A 
HETATM   15  C13 UNL     1      32.223   7.998  47.241  1.00  0.00     0.096 A 
HETATM   16  N1  UNL     1      32.535   8.132  45.939  1.00  0.00    -0.239 NA
HETATM   17  C14 UNL     1      32.434   9.366  45.406  1.00  0.00     0.234 A 
HETATM   18  N2  UNL     1      32.034  10.379  46.189  1.00  0.00    -0.244 NA
HETATM   19  C15 UNL     1      32.393   6.570  47.598  1.00  0.00     0.126 C 
HETATM   20  C17 UNL     1      31.225   6.050  47.895  1.00  0.00     0.082 C 
HETATM   21  C19 UNL     1      29.817   6.363  48.006  1.00  0.00     0.040 C 
HETATM   22  C20 UNL     1      28.945   5.425  48.372  1.00  0.00     0.070 C 
HETATM   23  H9  UNL     1      25.048  10.511  50.043  1.00  0.00     0.068 HD
ENDROOT
BRANCH   1  24
HETATM   24  C2  UNL     1      27.186   4.141  48.957  1.00  0.00    -0.024 C 
HETATM   25  C1  UNL     1      25.969   3.824  49.735  1.00  0.00     0.036 C 
ENDBRANCH   1  24
BRANCH  20  26
HETATM   26  O5  UNL     1      31.491   4.732  48.208  1.00  0.00    -0.357 OA
HETATM   27  C18 UNL     1      31.733   3.776  47.182  1.00  0.00     0.209 C 
ENDBRANCH  20  26
BRANCH  19  28
HETATM   28  O4  UNL     1      33.614   6.000  47.583  1.00  0.00    -0.351 OA
HETATM   29  C16 UNL     1      34.691   6.252  48.428  1.00  0.00     0.210 C 
ENDBRANCH  19  28
TORSDOF 3
ENDMDL
MODEL 3
REMARK VINA RESULT:      -7.3      2.358      5.185
REMARK  3 active torsions:
REMARK  status: ('A' for Active; 'I' for Inactive)
REMARK    1  A    between atoms: C2_2  and  C3_3 
REMARK    2  A    between atoms: C15_21  and  O4_22 
REMARK    3  A    between atoms: C17_24  and  O5_25 
ROOT
HETATM    1  C3  UNL     1      26.061   1.319  52.355  1.00  0.00    -0.057 C 
HETATM    2  C4  UNL     1      25.400   0.181  53.007  1.00  0.00     0.003 C 
HETATM    3  C5  UNL     1      24.174  -0.283  53.005  1.00  0.00    -0.021 C 
HETATM    4  C6  UNL     1      22.965  -1.092  53.263  1.00  0.00     0.068 C 
HETATM    5  P1  UNL     1      21.724   0.058  54.036  1.00  0.00    -0.020 P 
HETATM    6  C7  UNL     1      20.419   0.540  52.893  1.00  0.00     0.280 C 
HETATM    7  O1  UNL     1      19.986   1.557  53.458  1.00  0.00    -0.260 OA
HETATM    8  O2  UNL     1      19.971  -0.002  51.723  1.00  0.00    -0.316 OA
HETATM    9  C8  UNL     1      18.940   0.488  50.948  1.00  0.00     0.205 C 
HETATM   10  C9  UNL     1      19.207   1.828  50.362  1.00  0.00     0.195 C 
HETATM   11  O3  UNL     1      19.430   2.793  51.304  1.00  0.00    -0.383 OA
HETATM   12  C10 UNL     1      19.613   4.059  50.765  1.00  0.00     0.226 C 
HETATM   13  C11 UNL     1      20.730   4.144  49.832  1.00  0.00     0.061 A 
HETATM   14  C12 UNL     1      21.983   4.575  50.189  1.00  0.00     0.064 A 
HETATM   15  C13 UNL     1      22.931   4.581  49.162  1.00  0.00     0.096 A 
HETATM   16  N1  UNL     1      22.699   4.206  47.891  1.00  0.00    -0.239 NA
HETATM   17  C14 UNL     1      21.452   3.792  47.590  1.00  0.00     0.234 A 
HETATM   18  N2  UNL     1      20.524   3.775  48.558  1.00  0.00    -0.244 NA
HETATM   19  C15 UNL     1      24.355   4.979  49.259  1.00  0.00     0.126 C 
HETATM   20  C17 UNL     1      24.994   4.137  50.037  1.00  0.00     0.082 C 
HETATM   21  C19 UNL     1      24.816   2.950  50.845  1.00  0.00     0.040 C 
HETATM   22  C20 UNL     1      25.849   2.421  51.500  1.00  0.00     0.070 C 
HETATM   23  H9  UNL     1      21.235  -0.416  55.310  1.00  0.00     0.068 HD
ENDROOT
BRANCH   1  24
HETATM   24  C2  UNL     1      27.316   1.246  52.745  1.00  0.00    -0.024 C 
HETATM   25  C1  UNL     1      28.048   2.315  53.458  1.00  0.00     0.036 C 
ENDBRANCH   1  24
BRANCH  20  26
HETATM   26  O5  UNL     1      26.297   4.591  50.059  1.00  0.00    -0.357 OA
HETATM   27  C18 UNL     1      27.168   4.358  48.958  1.00  0.00     0.209 C 
ENDBRANCH  20  26
BRANCH  19  28
HETATM   28  O4  UNL     1      24.810   6.064  48.602  1.00  0.00    -0.351 OA
HETATM   29  C16 UNL     1      24.346   7.374  48.680  1.00  0.00     0.210 C 
ENDBRANCH  19  28
TORSDOF 3
ENDMDL
MODEL 4
REMARK VINA RESULT:      -7.2      8.247     10.671
REMARK  3 active torsions:
REMARK  status: ('A' for Active; 'I' for Inactive)
REMARK    1  A    between atoms: C2_2  and  C3_3 
REMARK    2  A    between atoms: C15_21  and  O4_22 
REMARK    3  A    between atoms: C17_24  and  O5_25 
ROOT
HETATM    1  C3  UNL     1      28.493   5.808  48.193  1.00  0.00    -0.057 C 
HETATM    2  C4  UNL     1      27.551   6.935  48.175  1.00  0.00     0.003 C 
HETATM    3  C5  UNL     1      27.642   8.190  47.810  1.00  0.00    -0.021 C 
HETATM    4  C6  UNL     1      27.338   9.608  47.520  1.00  0.00     0.068 C 
HETATM    5  P1  UNL     1      28.504  10.612  48.565  1.00  0.00    -0.020 P 
HETATM    6  C7  UNL     1      29.845  11.335  47.607  1.00  0.00     0.280 C 
HETATM    7  O1  UNL     1      30.660  11.586  48.509  1.00  0.00    -0.260 OA
HETATM    8  O2  UNL     1      30.000  11.576  46.272  1.00  0.00    -0.316 OA
HETATM    9  C8  UNL     1      31.106  12.150  45.677  1.00  0.00     0.205 C 
HETATM   10  C9  UNL     1      32.347  11.340  45.796  1.00  0.00     0.195 C 
HETATM   11  O3  UNL     1      32.721  11.115  47.091  1.00  0.00    -0.383 OA
HETATM   12  C10 UNL     1      33.915  10.417  47.208  1.00  0.00     0.226 C 
HETATM   13  C11 UNL     1      33.897   9.110  46.562  1.00  0.00     0.061 A 
HETATM   14  C12 UNL     1      33.636   7.939  47.230  1.00  0.00     0.064 A 
HETATM   15  C13 UNL     1      33.652   6.783  46.444  1.00  0.00     0.096 A 
HETATM   16  N1  UNL     1      33.901   6.749  45.123  1.00  0.00    -0.239 NA
HETATM   17  C14 UNL     1      34.153   7.924  44.513  1.00  0.00     0.234 A 
HETATM   18  N2  UNL     1      34.142   9.048  45.243  1.00  0.00    -0.244 NA
HETATM   19  C15 UNL     1      33.393   5.394  46.889  1.00  0.00     0.126 C 
HETATM   20  C17 UNL     1      32.145   5.283  47.277  1.00  0.00     0.082 C 
HETATM   21  C19 UNL     1      30.915   6.028  47.435  1.00  0.00     0.040 C 
HETATM   22  C20 UNL     1      29.822   5.430  47.907  1.00  0.00     0.070 C 
HETATM   23  H9  UNL     1      27.821  11.560  49.417  1.00  0.00     0.068 HD
ENDROOT
BRANCH   1  24
HETATM   24  C2  UNL     1      27.795   4.796  48.664  1.00  0.00    -0.024 C 
HETATM   25  C1  UNL     1      26.401   4.878  49.150  1.00  0.00     0.036 C 
ENDBRANCH   1  24
BRANCH  20  26
HETATM   26  O5  UNL     1      32.009   3.966  47.666  1.00  0.00    -0.357 OA
HETATM   27  C18 UNL     1      31.694   2.956  46.714  1.00  0.00     0.209 C 
ENDBRANCH  20  26
BRANCH  19  28
HETATM   28  O4  UNL     1      34.373   4.470  46.853  1.00  0.00    -0.351 OA
HETATM   29  C16 UNL     1      34.987   3.910  45.736  1.00  0.00     0.210 C 
ENDBRANCH  19  28
TORSDOF 3
ENDMDL
MODEL 5
REMARK VINA RESULT:      -7.1      1.739      2.951
REMARK  3 active torsions:
REMARK  status: ('A' for Active; 'I' for Inactive)
REMARK    1  A    between atoms: C2_2  and  C3_3 
REMARK    2  A    between atoms: C15_21  and  O4_22 
REMARK    3  A    between atoms: C17_24  and  O5_25 
ROOT
HETATM    1  C3  UNL     1      18.931   0.266  51.435  1.00  0.00    -0.057 C 
HETATM    2  C4  UNL     1      18.132   1.016  50.458  1.00  0.00     0.003 C 
HETATM    3  C5  UNL     1      18.369   2.054  49.693  1.00  0.00    -0.021 C 
HETATM    4  C6  UNL     1      18.235   3.154  48.715  1.00  0.00     0.068 C 
HETATM    5  P1  UNL     1      18.538   4.728  49.659  1.00  0.00    -0.020 P 
HETATM    6  C7  UNL     1      20.158   5.438  49.321  1.00  0.00     0.280 C 
HETATM    7  O1  UNL     1      20.288   6.187  50.303  1.00  0.00    -0.260 OA
HETATM    8  O2  UNL     1      21.049   5.259  48.303  1.00  0.00    -0.316 OA
HETATM    9  C8  UNL     1      22.271   5.889  48.178  1.00  0.00     0.205 C 
HETATM   10  C9  UNL     1      23.243   5.541  49.249  1.00  0.00     0.195 C 
HETATM   11  O3  UNL     1      22.805   5.867  50.502  1.00  0.00    -0.383 OA
HETATM   12  C10 UNL     1      23.735   5.606  51.498  1.00  0.00     0.226 C 
HETATM   13  C11 UNL     1      24.146   4.209  51.567  1.00  0.00     0.061 A 
HETATM   14  C12 UNL     1      23.591   3.300  52.433  1.00  0.00     0.064 A 
HETATM   15  C13 UNL     1      24.105   2.003  52.351  1.00  0.00     0.096 A 
HETATM   16  N1  UNL     1      25.076   1.605  51.509  1.00  0.00    -0.239 NA
HETATM   17  C14 UNL     1      25.589   2.536  50.679  1.00  0.00     0.234 A 
HETATM   18  N2  UNL     1      25.113   3.788  50.736  1.00  0.00    -0.244 NA
HETATM   19  C15 UNL     1      23.690   0.823  53.146  1.00  0.00     0.126 C 
HETATM   20  C17 UNL     1      22.453   0.504  52.845  1.00  0.00     0.082 C 
HETATM   21  C19 UNL     1      21.332   0.887  52.014  1.00  0.00     0.040 C 
HETATM   22  C20 UNL     1      20.192   0.200  52.063  1.00  0.00     0.070 C 
HETATM   23  H9  UNL     1      17.452   5.674  49.539  1.00  0.00     0.068 HD
ENDROOT
BRANCH   1  24
HETATM   24  C2  UNL     1      18.128  -0.686  51.863  1.00  0.00    -0.024 C 
HETATM   25  C1  UNL     1      18.178  -1.300  53.208  1.00  0.00     0.036 C 
ENDBRANCH   1  24
BRANCH  20  26
HETATM   26  O5  UNL     1      22.167  -0.595  53.629  1.00  0.00    -0.357 OA
HETATM   27  C18 UNL     1      21.571  -0.438  54.911  1.00  0.00     0.209 C 
ENDBRANCH  20  26
BRANCH  19  28
HETATM   28  O4  UNL     1      24.543   0.248  54.016  1.00  0.00    -0.351 OA
HETATM   29  C16 UNL     1      25.511  -0.719  53.761  1.00  0.00     0.210 C 
ENDBRANCH  19  28
TORSDOF 3
ENDMDL
MODEL 6
REMARK VINA RESULT:      -7.1      2.591      5.655
REMARK  3 active torsions:
REMARK  status: ('A' for Active; 'I' for Inactive)
REMARK    1  A    between atoms: C2_2  and  C3_3 
REMARK    2  A    between atoms: C15_21  and  O4_22 
REMARK    3  A    between atoms: C17_24  and  O5_25 
ROOT
HETATM    1  C3  UNL     1      25.019   4.295  49.727  1.00  0.00    -0.057 C 
HETATM    2  C4  UNL     1      24.175   5.299  49.067  1.00  0.00     0.003 C 
HETATM    3  C5  UNL     1      22.881   5.502  49.007  1.00  0.00    -0.021 C 
HETATM    4  C6  UNL     1      21.546   6.057  48.699  1.00  0.00     0.068 C 
HETATM    5  P1  UNL     1      20.613   4.709  47.820  1.00  0.00    -0.020 P 
HETATM    6  C7  UNL     1      19.376   3.926  48.866  1.00  0.00     0.280 C 
HETATM    7  O1  UNL     1      19.193   2.865  48.248  1.00  0.00    -0.260 OA
HETATM    8  O2  UNL     1      18.763   4.317  50.021  1.00  0.00    -0.316 OA
HETATM    9  C8  UNL     1      17.815   3.596  50.718  1.00  0.00     0.205 C 
HETATM   10  C9  UNL     1      18.321   2.316  51.282  1.00  0.00     0.195 C 
HETATM   11  O3  UNL     1      18.789   1.455  50.328  1.00  0.00    -0.383 OA
HETATM   12  C10 UNL     1      19.200   0.233  50.841  1.00  0.00     0.226 C 
HETATM   13  C11 UNL     1      20.258   0.341  51.838  1.00  0.00     0.061 A 
HETATM   14  C12 UNL     1      21.591   0.190  51.546  1.00  0.00     0.064 A 
HETATM   15  C13 UNL     1      22.463   0.337  52.629  1.00  0.00     0.096 A 
HETATM   16  N1  UNL     1      22.090   0.605  53.893  1.00  0.00    -0.239 NA
HETATM   17  C14 UNL     1      20.770   0.743  54.129  1.00  0.00     0.234 A 
HETATM   18  N2  UNL     1      19.912   0.609  53.108  1.00  0.00    -0.244 NA
HETATM   19  C15 UNL     1      23.942   0.243  52.608  1.00  0.00     0.126 C 
HETATM   20  C17 UNL     1      24.434   1.228  51.895  1.00  0.00     0.082 C 
HETATM   21  C19 UNL     1      24.059   2.385  51.111  1.00  0.00     0.040 C 
HETATM   22  C20 UNL     1      24.994   3.140  50.535  1.00  0.00     0.070 C 
HETATM   23  H9  UNL     1      20.107   5.124  46.531  1.00  0.00     0.068 HD
ENDROOT
BRANCH   1  24
HETATM   24  C2  UNL     1      26.252   4.639  49.416  1.00  0.00    -0.024 C 
HETATM   25  C1  UNL     1      26.640   5.896  48.741  1.00  0.00     0.036 C 
ENDBRANCH   1  24
BRANCH  20  26
HETATM   26  O5  UNL     1      25.802   1.051  51.940  1.00  0.00    -0.357 OA
HETATM   27  C18 UNL     1      26.599   1.780  52.865  1.00  0.00     0.209 C 
ENDBRANCH  20  26
BRANCH  19  28
HETATM   28  O4  UNL     1      24.574  -0.752  53.261  1.00  0.00    -0.351 OA
HETATM   29  C16 UNL     1      24.851  -0.848  54.622  1.00  0.00     0.210 C 
ENDBRANCH  19  28
TORSDOF 3
ENDMDL
MODEL 7
REMARK VINA RESULT:      -7.0      7.820     11.129
REMARK  3 active torsions:
REMARK  status: ('A' for Active; 'I' for Inactive)
REMARK    1  A    between atoms: C2_2  and  C3_3 
REMARK    2  A    between atoms: C15_21  and  O4_22 
REMARK    3  A    between atoms: C17_24  and  O5_25 
ROOT
HETATM    1  C3  UNL     1      28.276   5.833  48.371  1.00  0.00    -0.057 C 
HETATM    2  C4  UNL     1      29.610   5.258  48.156  1.00  0.00     0.003 C 
HETATM    3  C5  UNL     1      30.788   5.767  47.888  1.00  0.00    -0.021 C 
HETATM    4  C6  UNL     1      32.227   5.931  47.595  1.00  0.00     0.068 C 
HETATM    5  P1  UNL     1      32.328   6.758  45.932  1.00  0.00    -0.020 P 
HETATM    6  C7  UNL     1      32.774   8.498  46.048  1.00  0.00     0.280 C 
HETATM    7  O1  UNL     1      32.394   8.905  44.938  1.00  0.00    -0.260 OA
HETATM    8  O2  UNL     1      33.361   9.236  47.034  1.00  0.00    -0.316 OA
HETATM    9  C8  UNL     1      33.647  10.585  46.974  1.00  0.00     0.205 C 
HETATM   10  C9  UNL     1      32.444  11.455  46.878  1.00  0.00     0.195 C 
HETATM   11  O3  UNL     1      31.686  11.204  45.768  1.00  0.00    -0.383 OA
HETATM   12  C10 UNL     1      30.599  12.057  45.638  1.00  0.00     0.226 C 
HETATM   13  C11 UNL     1      29.681  12.016  46.770  1.00  0.00     0.061 A 
HETATM   14  C12 UNL     1      28.541  11.251  46.791  1.00  0.00     0.064 A 
HETATM   15  C13 UNL     1      27.787  11.331  47.966  1.00  0.00     0.096 A 
HETATM   16  N1  UNL     1      28.097  12.085  49.035  1.00  0.00    -0.239 NA
HETATM   17  C14 UNL     1      29.225  12.819  48.965  1.00  0.00     0.234 A 
HETATM   18  N2  UNL     1      29.968  12.759  47.850  1.00  0.00    -0.244 NA
HETATM   19  C15 UNL     1      26.529  10.611  48.273  1.00  0.00     0.126 C 
HETATM   20  C17 UNL     1      26.768   9.322  48.345  1.00  0.00     0.082 C 
HETATM   21  C19 UNL     1      27.819   8.335  48.231  1.00  0.00     0.040 C 
HETATM   22  C20 UNL     1      27.549   7.042  48.404  1.00  0.00     0.070 C 
HETATM   23  H9  UNL     1      33.126   6.016  44.982  1.00  0.00     0.068 HD
ENDROOT
BRANCH   1  24
HETATM   24  C2  UNL     1      27.500   4.797  48.614  1.00  0.00    -0.024 C 
HETATM   25  C1  UNL     1      26.212   4.852  49.338  1.00  0.00     0.036 C 
ENDBRANCH   1  24
BRANCH  20  26
HETATM   26  O5  UNL     1      25.546   8.750  48.634  1.00  0.00    -0.357 OA
HETATM   27  C18 UNL     1      25.118   8.590  49.982  1.00  0.00     0.209 C 
ENDBRANCH  20  26
BRANCH  19  28
HETATM   28  O4  UNL     1      25.375  11.287  48.433  1.00  0.00    -0.351 OA
HETATM   29  C16 UNL     1      24.776  12.187  47.556  1.00  0.00     0.210 C 
ENDBRANCH  19  28
TORSDOF 3
ENDMDL
MODEL 8
REMARK VINA RESULT:      -7.0      3.580      6.579
REMARK  3 active torsions:
REMARK  status: ('A' for Active; 'I' for Inactive)
REMARK    1  A    between atoms: C2_2  and  C3_3 
REMARK    2  A    between atoms: C15_21  and  O4_22 
REMARK    3  A    between atoms: C17_24  and  O5_25 
ROOT
HETATM    1  C3  UNL     1      22.052  -0.174  53.231  1.00  0.00    -0.057 C 
HETATM    2  C4  UNL     1      23.262   0.652  53.343  1.00  0.00     0.003 C 
HETATM    3  C5  UNL     1      23.570   1.870  52.971  1.00  0.00    -0.021 C 
HETATM    4  C6  UNL     1      24.288   3.139  52.728  1.00  0.00     0.068 C 
HETATM    5  P1  UNL     1      24.309   3.379  50.883  1.00  0.00    -0.020 P 
HETATM    6  C7  UNL     1      23.144   4.637  50.335  1.00  0.00     0.280 C 
HETATM    7  O1  UNL     1      23.041   4.344  49.133  1.00  0.00    -0.260 OA
HETATM    8  O2  UNL     1      22.512   5.656  50.987  1.00  0.00    -0.316 OA
HETATM    9  C8  UNL     1      21.633   6.557  50.420  1.00  0.00     0.205 C 
HETATM   10  C9  UNL     1      20.377   5.942  49.915  1.00  0.00     0.195 C 
HETATM   11  O3  UNL     1      20.589   5.000  48.948  1.00  0.00    -0.383 OA
HETATM   12  C10 UNL     1      19.417   4.471  48.426  1.00  0.00     0.226 C 
HETATM   13  C11 UNL     1      18.563   3.838  49.423  1.00  0.00     0.061 A 
HETATM   14  C12 UNL     1      18.563   2.488  49.671  1.00  0.00     0.064 A 
HETATM   15  C13 UNL     1      17.684   2.061  50.671  1.00  0.00     0.096 A 
HETATM   16  N1  UNL     1      16.865   2.862  51.376  1.00  0.00    -0.239 NA
HETATM   17  C14 UNL     1      16.901   4.180  51.094  1.00  0.00     0.234 A 
HETATM   18  N2  UNL     1      17.737   4.616  50.141  1.00  0.00    -0.244 NA
HETATM   19  C15 UNL     1      17.484   0.676  51.157  1.00  0.00     0.126 C 
HETATM   20  C17 UNL     1      18.580   0.255  51.744  1.00  0.00     0.082 C 
HETATM   21  C19 UNL     1      19.928   0.650  52.093  1.00  0.00     0.040 C 
HETATM   22  C20 UNL     1      20.729  -0.194  52.741  1.00  0.00     0.070 C 
HETATM   23  H9  UNL     1      25.642   3.550  50.353  1.00  0.00     0.068 HD
ENDROOT
BRANCH   1  24
HETATM   24  C2  UNL     1      22.368  -1.312  53.812  1.00  0.00    -0.024 C 
HETATM   25  C1  UNL     1      22.808  -1.456  55.217  1.00  0.00     0.036 C 
ENDBRANCH   1  24
BRANCH  20  26
HETATM   26  O5  UNL     1      18.291  -1.030  52.157  1.00  0.00    -0.357 OA
HETATM   27  C18 UNL     1      17.644  -1.265  53.403  1.00  0.00     0.209 C 
ENDBRANCH  20  26
BRANCH  19  28
HETATM   28  O4  UNL     1      16.308   0.046  50.966  1.00  0.00    -0.351 OA
HETATM   29  C16 UNL     1      15.791  -0.469  49.781  1.00  0.00     0.210 C 
ENDBRANCH  19  28
TORSDOF 3
ENDMDL
MODEL 9
REMARK VINA RESULT:      -6.9      2.770      3.935
REMARK  3 active torsions:
REMARK  status: ('A' for Active; 'I' for Inactive)
REMARK    1  A    between atoms: C2_2  and  C3_3 
REMARK    2  A    between atoms: C15_21  and  O4_22 
REMARK    3  A    between atoms: C17_24  and  O5_25 
ROOT
HETATM    1  C3  UNL     1      20.474  -0.504  53.132  1.00  0.00    -0.057 C 
HETATM    2  C4  UNL     1      19.043  -0.823  53.048  1.00  0.00     0.003 C 
HETATM    3  C5  UNL     1      18.077  -0.464  52.238  1.00  0.00    -0.021 C 
HETATM    4  C6  UNL     1      16.762  -0.313  51.579  1.00  0.00     0.068 C 
HETATM    5  P1  UNL     1      16.343   1.497  51.665  1.00  0.00    -0.020 P 
HETATM    6  C7  UNL     1      16.551   2.332  50.083  1.00  0.00     0.280 C 
HETATM    7  O1  UNL     1      16.616   3.514  50.457  1.00  0.00    -0.260 OA
HETATM    8  O2  UNL     1      16.625   1.872  48.801  1.00  0.00    -0.316 OA
HETATM    9  C8  UNL     1      16.785   2.650  47.671  1.00  0.00     0.205 C 
HETATM   10  C9  UNL     1      18.084   3.372  47.612  1.00  0.00     0.195 C 
HETATM   11  O3  UNL     1      18.271   4.229  48.660  1.00  0.00    -0.383 OA
HETATM   12  C10 UNL     1      19.451   4.955  48.576  1.00  0.00     0.226 C 
HETATM   13  C11 UNL     1      20.648   4.126  48.516  1.00  0.00     0.061 A 
HETATM   14  C12 UNL     1      21.411   3.818  49.616  1.00  0.00     0.064 A 
HETATM   15  C13 UNL     1      22.518   3.002  49.369  1.00  0.00     0.096 A 
HETATM   16  N1  UNL     1      22.871   2.519  48.164  1.00  0.00    -0.239 NA
HETATM   17  C14 UNL     1      22.091   2.850  47.115  1.00  0.00     0.234 A 
HETATM   18  N2  UNL     1      21.021   3.631  47.326  1.00  0.00    -0.244 NA
HETATM   19  C15 UNL     1      23.501   2.501  50.358  1.00  0.00     0.126 C 
HETATM   20  C17 UNL     1      22.905   1.683  51.193  1.00  0.00     0.082 C 
HETATM   21  C19 UNL     1      21.626   1.084  51.507  1.00  0.00     0.040 C 
HETATM   22  C20 UNL     1      21.510   0.245  52.536  1.00  0.00     0.070 C 
HETATM   23  H9  UNL     1      15.066   1.749  52.292  1.00  0.00     0.068 HD
ENDROOT
BRANCH   1  24
HETATM   24  C2  UNL     1      20.910  -1.191  54.167  1.00  0.00    -0.024 C 
HETATM   25  C1  UNL     1      22.208  -0.978  54.844  1.00  0.00     0.036 C 
ENDBRANCH   1  24
BRANCH  20  26
HETATM   26  O5  UNL     1      23.897   1.277  52.063  1.00  0.00    -0.357 OA
HETATM   27  C18 UNL     1      24.253   2.077  53.185  1.00  0.00     0.209 C 
ENDBRANCH  20  26
BRANCH  19  28
HETATM   28  O4  UNL     1      24.787   2.899  50.307  1.00  0.00    -0.351 OA
HETATM   29  C16 UNL     1      25.285   4.198  50.258  1.00  0.00     0.210 C 
ENDBRANCH  19  28
TORSDOF 3
ENDMDL
