MODEL 1
REMARK VINA RESULT:      -7.1      0.000      0.000
REMARK  4 active torsions:
REMARK  status: ('A' for Active; 'I' for Inactive)
REMARK    1  A    between atoms: C2_2  and  N1_3 
REMARK    2  A    between atoms: C5_7  and  N3_9 
REMARK    3  A    between atoms: N3_9  and  C7_10 
REMARK    4  A    between atoms: C7_10  and  C8_11 
ROOT
HETATM    1  C7  UNL     1      24.703   2.523  51.788  1.00  0.00     0.175 C 
HETATM    2  C9  UNL     1      26.089   2.460  51.120  1.00  0.00     0.195 C 
HETATM    3  O2  UNL     1      26.156   3.298  50.144  1.00  0.00    -0.289 OA
HETATM    4  C10 UNL     1      26.629   1.385  52.038  1.00  0.00    -0.005 C 
HETATM    5  C11 UNL     1      26.676   0.001  51.807  1.00  0.00     0.012 C 
HETATM    6  C12 UNL     1      25.407  -0.411  52.591  1.00  0.00     0.008 C 
HETATM    7  C13 UNL     1      24.453   0.295  53.356  1.00  0.00    -0.053 C 
HETATM    8  C14 UNL     1      23.441  -0.577  54.075  1.00  0.00     0.049 C 
HETATM    9  C15 UNL     1      24.899   1.741  53.113  1.00  0.00    -0.013 C 
HETATM   10  C16 UNL     1      25.651   2.406  54.044  1.00  0.00    -0.011 C 
HETATM   11  C17 UNL     1      26.999   2.039  53.387  1.00  0.00     0.070 C 
ENDROOT
BRANCH   1  12
HETATM   12  N3  UNL     1      23.788   1.942  50.946  1.00  0.00    -0.364 N 
HETATM   13  H14 UNL     1      24.191   1.264  50.230  1.00  0.00     0.157 HD
BRANCH  12  14
HETATM   14  C5  UNL     1      22.422   2.112  50.878  1.00  0.00     0.225 C 
HETATM   15  N2  UNL     1      21.762   2.377  52.128  1.00  0.00     0.113 NA
HETATM   16  C4  UNL     1      20.449   2.877  52.105  1.00  0.00     0.303 C 
HETATM   17  H10 UNL     1      21.793   1.567  52.749  1.00  0.00     0.319 HD
HETATM   18  C3  UNL     1      19.428   2.086  51.349  1.00  0.00     0.302 C 
HETATM   19  N1  UNL     1      19.570   0.693  51.378  1.00  0.00     0.089 NA
HETATM   20  C19 UNL     1      20.865   0.119  51.260  1.00  0.00     0.277 C 
HETATM   21  C18 UNL     1      21.848   0.779  50.384  1.00  0.00     0.093 C 
HETATM   22  C6  UNL     1      22.084   3.140  49.821  1.00  0.00     0.073 C 
BRANCH  19  23
HETATM   23  C2  UNL     1      18.876   0.029  52.441  1.00  0.00     0.268 C 
HETATM   24  C1  UNL     1      19.792  -0.591  53.462  1.00  0.00     0.037 C 
ENDBRANCH  19  23
ENDBRANCH  12  14
ENDBRANCH   1  12
BRANCH   1  25
HETATM   25  C8  UNL     1      24.407   3.930  51.964  1.00  0.00     0.275 C 
HETATM   26  O1  UNL     1      23.657   4.536  52.744  1.00  0.00    -0.303 OA
ENDBRANCH   1  25
TORSDOF 4
ENDMDL
MODEL 2
REMARK VINA RESULT:      -6.4      2.321      4.224
REMARK  4 active torsions:
REMARK  status: ('A' for Active; 'I' for Inactive)
REMARK    1  A    between atoms: C2_2  and  N1_3 
REMARK    2  A    between atoms: C5_7  and  N3_9 
REMARK    3  A    between atoms: N3_9  and  C7_10 
REMARK    4  A    between atoms: C7_10  and  C8_11 
ROOT
HETATM    1  C7  UNL     1      21.230   3.110  50.895  1.00  0.00     0.175 C 
HETATM    2  C9  UNL     1      21.356   3.630  49.452  1.00  0.00     0.195 C 
HETATM    3  O2  UNL     1      20.302   3.333  48.773  1.00  0.00    -0.289 OA
HETATM    4  C10 UNL     1      22.730   4.235  49.647  1.00  0.00    -0.005 C 
HETATM    5  C11 UNL     1      23.973   3.664  49.338  1.00  0.00     0.012 C 
HETATM    6  C12 UNL     1      24.349   3.143  50.745  1.00  0.00     0.008 C 
HETATM    7  C13 UNL     1      23.728   3.198  52.012  1.00  0.00    -0.053 C 
HETATM    8  C14 UNL     1      24.565   2.663  53.157  1.00  0.00     0.049 C 
HETATM    9  C15 UNL     1      22.381   3.832  51.645  1.00  0.00    -0.013 C 
HETATM   10  C16 UNL     1      22.161   5.169  51.844  1.00  0.00    -0.011 C 
HETATM   11  C17 UNL     1      22.568   5.568  50.410  1.00  0.00     0.070 C 
ENDROOT
BRANCH   1  12
HETATM   12  N3  UNL     1      21.368   1.745  50.880  1.00  0.00    -0.364 N 
HETATM   13  H14 UNL     1      21.807   1.340  49.998  1.00  0.00     0.157 HD
BRANCH  12  14
HETATM   14  C5  UNL     1      21.010   0.814  51.830  1.00  0.00     0.225 C 
HETATM   15  N2  UNL     1      21.063   1.262  53.195  1.00  0.00     0.113 NA
HETATM   16  C4  UNL     1      20.416   0.499  54.182  1.00  0.00     0.303 C 
HETATM   17  H10 UNL     1      22.024   1.439  53.496  1.00  0.00     0.319 HD
HETATM   18  C3  UNL     1      20.795  -0.946  54.289  1.00  0.00     0.302 C 
HETATM   19  N1  UNL     1      22.135  -1.261  54.028  1.00  0.00     0.089 NA
HETATM   20  C19 UNL     1      22.806  -0.626  52.948  1.00  0.00     0.277 C 
HETATM   21  C18 UNL     1      22.039  -0.319  51.728  1.00  0.00     0.093 C 
HETATM   22  C6  UNL     1      19.671   0.206  51.477  1.00  0.00     0.073 C 
BRANCH  19  23
HETATM   23  C2  UNL     1      23.000  -1.247  55.169  1.00  0.00     0.268 C 
HETATM   24  C1  UNL     1      24.423  -0.882  54.839  1.00  0.00     0.037 C 
ENDBRANCH  19  23
ENDBRANCH  12  14
ENDBRANCH   1  12
BRANCH   1  25
HETATM   25  C8  UNL     1      19.904   3.481  51.340  1.00  0.00     0.275 C 
HETATM   26  O1  UNL     1      19.385   3.543  52.465  1.00  0.00    -0.303 OA
ENDBRANCH   1  25
TORSDOF 4
ENDMDL
MODEL 3
REMARK VINA RESULT:      -6.3      3.334      6.129
REMARK  4 active torsions:
REMARK  status: ('A' for Active; 'I' for Inactive)
REMARK    1  A    between atoms: C2_2  and  N1_3 
REMARK    2  A    between atoms: C5_7  and  N3_9 
REMARK    3  A    between atoms: N3_9  and  C7_10 
REMARK    4  A    between atoms: C7_10  and  C8_11 
ROOT
HETATM    1  C7  UNL     1      21.925   3.809  50.890  1.00  0.00     0.175 C 
HETATM    2  C9  UNL     1      21.381   3.077  52.130  1.00  0.00     0.195 C 
HETATM    3  O2  UNL     1      20.331   3.675  52.581  1.00  0.00    -0.289 OA
HETATM    4  C10 UNL     1      22.446   2.002  52.128  1.00  0.00    -0.005 C 
HETATM    5  C11 UNL     1      23.634   1.967  52.875  1.00  0.00     0.012 C 
HETATM    6  C12 UNL     1      24.607   2.490  51.793  1.00  0.00     0.008 C 
HETATM    7  C13 UNL     1      24.460   2.879  50.443  1.00  0.00    -0.053 C 
HETATM    8  C14 UNL     1      25.758   3.190  49.723  1.00  0.00     0.049 C 
HETATM    9  C15 UNL     1      22.937   2.801  50.285  1.00  0.00    -0.013 C 
HETATM   10  C16 UNL     1      22.351   1.715  49.693  1.00  0.00    -0.011 C 
HETATM   11  C17 UNL     1      22.099   0.978  51.026  1.00  0.00     0.070 C 
ENDROOT
BRANCH   1  12
HETATM   12  N3  UNL     1      22.508   4.983  51.298  1.00  0.00    -0.364 N 
HETATM   13  H14 UNL     1      22.760   5.032  52.332  1.00  0.00     0.157 HD
BRANCH  12  14
HETATM   14  C5  UNL     1      22.806   6.116  50.573  1.00  0.00     0.225 C 
HETATM   15  N2  UNL     1      23.046   5.915  49.170  1.00  0.00     0.113 NA
HETATM   16  C4  UNL     1      23.034   7.031  48.316  1.00  0.00     0.303 C 
HETATM   17  H10 UNL     1      23.906   5.388  49.006  1.00  0.00     0.319 HD
HETATM   18  C3  UNL     1      23.954   8.162  48.654  1.00  0.00     0.302 C 
HETATM   19  N1  UNL     1      25.188   7.816  49.219  1.00  0.00     0.089 NA
HETATM   20  C19 UNL     1      25.246   6.788  50.198  1.00  0.00     0.277 C 
HETATM   21  C18 UNL     1      24.124   6.654  51.143  1.00  0.00     0.093 C 
HETATM   22  C6  UNL     1      21.764   7.181  50.830  1.00  0.00     0.073 C 
BRANCH  19  23
HETATM   23  C2  UNL     1      26.253   7.610  48.283  1.00  0.00     0.268 C 
HETATM   24  C1  UNL     1      27.057   6.366  48.552  1.00  0.00     0.037 C 
ENDBRANCH  19  23
ENDBRANCH  12  14
ENDBRANCH   1  12
BRANCH   1  25
HETATM   25  C8  UNL     1      20.777   4.080  50.049  1.00  0.00     0.275 C 
HETATM   26  O1  UNL     1      20.665   4.315  48.836  1.00  0.00    -0.303 OA
ENDBRANCH   1  25
TORSDOF 4
ENDMDL
MODEL 4
REMARK VINA RESULT:      -6.2      2.254      5.844
REMARK  4 active torsions:
REMARK  status: ('A' for Active; 'I' for Inactive)
REMARK    1  A    between atoms: C2_2  and  N1_3 
REMARK    2  A    between atoms: C5_7  and  N3_9 
REMARK    3  A    between atoms: N3_9  and  C7_10 
REMARK    4  A    between atoms: C7_10  and  C8_11 
ROOT
HETATM    1  C7  UNL     1      22.052   1.949  51.297  1.00  0.00     0.175 C 
HETATM    2  C9  UNL     1      21.052   1.097  50.495  1.00  0.00     0.195 C 
HETATM    3  O2  UNL     1      20.607   0.126  51.218  1.00  0.00    -0.289 OA
HETATM    4  C10 UNL     1      21.156   1.923  49.231  1.00  0.00    -0.005 C 
HETATM    5  C11 UNL     1      21.960   1.677  48.107  1.00  0.00     0.012 C 
HETATM    6  C12 UNL     1      23.134   2.625  48.447  1.00  0.00     0.008 C 
HETATM    7  C13 UNL     1      23.400   3.520  49.506  1.00  0.00    -0.053 C 
HETATM    8  C14 UNL     1      24.647   4.365  49.330  1.00  0.00     0.049 C 
HETATM    9  C15 UNL     1      22.216   3.229  50.435  1.00  0.00    -0.013 C 
HETATM   10  C16 UNL     1      21.122   4.052  50.451  1.00  0.00    -0.011 C 
HETATM   11  C17 UNL     1      20.330   3.213  49.425  1.00  0.00     0.070 C 
ENDROOT
BRANCH   1  12
HETATM   12  N3  UNL     1      23.218   1.237  51.435  1.00  0.00    -0.364 N 
HETATM   13  H14 UNL     1      23.268   0.330  50.880  1.00  0.00     0.157 HD
BRANCH  12  14
HETATM   14  C5  UNL     1      24.332   1.513  52.197  1.00  0.00     0.225 C 
HETATM   15  N2  UNL     1      25.582   1.544  51.487  1.00  0.00     0.113 NA
HETATM   16  C4  UNL     1      26.699   2.127  52.111  1.00  0.00     0.303 C 
HETATM   17  H10 UNL     1      25.845   0.617  51.146  1.00  0.00     0.319 HD
HETATM   18  C3  UNL     1      27.089   1.593  53.454  1.00  0.00     0.302 C 
HETATM   19  N1  UNL     1      26.899   0.220  53.659  1.00  0.00     0.089 NA
HETATM   20  C19 UNL     1      25.716  -0.402  53.176  1.00  0.00     0.277 C 
HETATM   21  C18 UNL     1      24.458   0.363  53.203  1.00  0.00     0.093 C 
HETATM   22  C6  UNL     1      24.103   2.768  53.010  1.00  0.00     0.073 C 
BRANCH  19  23
HETATM   23  C2  UNL     1      28.017  -0.610  53.325  1.00  0.00     0.268 C 
HETATM   24  C1  UNL     1      29.344  -0.013  53.710  1.00  0.00     0.037 C 
ENDBRANCH  19  23
ENDBRANCH  12  14
ENDBRANCH   1  12
BRANCH   1  25
HETATM   25  C8  UNL     1      21.441   2.175  52.590  1.00  0.00     0.275 C 
HETATM   26  O1  UNL     1      20.322   2.592  52.925  1.00  0.00    -0.303 OA
ENDBRANCH   1  25
TORSDOF 4
ENDMDL
MODEL 5
REMARK VINA RESULT:      -6.0     11.168     13.274
REMARK  4 active torsions:
REMARK  status: ('A' for Active; 'I' for Inactive)
REMARK    1  A    between atoms: C2_2  and  N1_3 
REMARK    2  A    between atoms: C5_7  and  N3_9 
REMARK    3  A    between atoms: N3_9  and  C7_10 
REMARK    4  A    between atoms: C7_10  and  C8_11 
ROOT
HETATM    1  C7  UNL     1      33.733   5.471  47.378  1.00  0.00     0.175 C 
HETATM    2  C9  UNL     1      34.719   4.387  47.853  1.00  0.00     0.195 C 
HETATM    3  O2  UNL     1      35.209   4.698  49.004  1.00  0.00    -0.289 OA
HETATM    4  C10 UNL     1      34.552   3.510  46.631  1.00  0.00    -0.005 C 
HETATM    5  C11 UNL     1      35.364   3.465  45.488  1.00  0.00     0.012 C 
HETATM    6  C12 UNL     1      34.519   4.372  44.563  1.00  0.00     0.008 C 
HETATM    7  C13 UNL     1      33.291   5.054  44.710  1.00  0.00    -0.053 C 
HETATM    8  C14 UNL     1      32.773   5.715  43.447  1.00  0.00     0.049 C 
HETATM    9  C15 UNL     1      32.994   4.798  46.192  1.00  0.00    -0.013 C 
HETATM   10  C16 UNL     1      32.118   3.816  46.569  1.00  0.00    -0.011 C 
HETATM   11  C17 UNL     1      33.215   2.747  46.760  1.00  0.00     0.070 C 
ENDROOT
BRANCH   1  12
HETATM   12  N3  UNL     1      34.452   6.580  47.009  1.00  0.00    -0.364 N 
HETATM   13  H14 UNL     1      35.443   6.390  46.667  1.00  0.00     0.157 HD
BRANCH  12  14
HETATM   14  C5  UNL     1      34.089   7.909  47.026  1.00  0.00     0.225 C 
HETATM   15  N2  UNL     1      32.685   8.171  47.185  1.00  0.00     0.113 NA
HETATM   16  C4  UNL     1      32.276   9.470  47.535  1.00  0.00     0.303 C 
HETATM   17  H10 UNL     1      32.150   7.869  46.369  1.00  0.00     0.319 HD
HETATM   18  C3  UNL     1      32.727  10.591  46.651  1.00  0.00     0.302 C 
HETATM   19  N1  UNL     1      32.822  10.308  45.282  1.00  0.00     0.089 NA
HETATM   20  C19 UNL     1      33.363   9.063  44.861  1.00  0.00     0.277 C 
HETATM   21  C18 UNL     1      34.459   8.471  45.648  1.00  0.00     0.093 C 
HETATM   22  C6  UNL     1      34.931   8.660  48.033  1.00  0.00     0.073 C 
BRANCH  19  23
HETATM   23  C2  UNL     1      31.638  10.568  44.520  1.00  0.00     0.268 C 
HETATM   24  C1  UNL     1      30.980   9.323  43.989  1.00  0.00     0.037 C 
ENDBRANCH  19  23
ENDBRANCH  12  14
ENDBRANCH   1  12
BRANCH   1  25
HETATM   25  C8  UNL     1      32.888   5.770  48.515  1.00  0.00     0.275 C 
HETATM   26  O1  UNL     1      31.973   5.140  49.067  1.00  0.00    -0.303 OA
ENDBRANCH   1  25
TORSDOF 4
ENDMDL
MODEL 6
REMARK VINA RESULT:      -5.9      2.117      5.744
REMARK  4 active torsions:
REMARK  status: ('A' for Active; 'I' for Inactive)
REMARK    1  A    between atoms: C2_2  and  N1_3 
REMARK    2  A    between atoms: C5_7  and  N3_9 
REMARK    3  A    between atoms: N3_9  and  C7_10 
REMARK    4  A    between atoms: C7_10  and  C8_11 
ROOT
HETATM    1  C7  UNL     1      24.105   3.379  50.882  1.00  0.00     0.175 C 
HETATM    2  C9  UNL     1      23.308   4.282  51.842  1.00  0.00     0.195 C 
HETATM    3  O2  UNL     1      23.954   4.445  52.945  1.00  0.00    -0.289 OA
HETATM    4  C10 UNL     1      22.143   4.485  50.898  1.00  0.00    -0.005 C 
HETATM    5  C11 UNL     1      20.928   3.783  50.869  1.00  0.00     0.012 C 
HETATM    6  C12 UNL     1      21.261   2.783  49.737  1.00  0.00     0.008 C 
HETATM    7  C13 UNL     1      22.386   2.575  48.909  1.00  0.00    -0.053 C 
HETATM    8  C14 UNL     1      22.191   1.543  47.815  1.00  0.00     0.049 C 
HETATM    9  C15 UNL     1      23.382   3.566  49.521  1.00  0.00    -0.013 C 
HETATM   10  C16 UNL     1      23.595   4.789  48.944  1.00  0.00    -0.011 C 
HETATM   11  C17 UNL     1      22.560   5.517  49.828  1.00  0.00     0.070 C 
ENDROOT
BRANCH   1  12
HETATM   12  N3  UNL     1      24.050   2.091  51.350  1.00  0.00    -0.364 N 
HETATM   13  H14 UNL     1      23.418   1.431  50.802  1.00  0.00     0.157 HD
BRANCH  12  14
HETATM   14  C5  UNL     1      24.681   1.521  52.435  1.00  0.00     0.225 C 
HETATM   15  N2  UNL     1      25.708   2.318  53.050  1.00  0.00     0.113 NA
HETATM   16  C4  UNL     1      26.164   1.960  54.330  1.00  0.00     0.303 C 
HETATM   17  H10 UNL     1      26.516   2.433  52.435  1.00  0.00     0.319 HD
HETATM   18  C3  UNL     1      26.673   0.564  54.510  1.00  0.00     0.302 C 
HETATM   19  N1  UNL     1      27.348  -0.000  53.420  1.00  0.00     0.089 NA
HETATM   20  C19 UNL     1      26.852   0.207  52.105  1.00  0.00     0.277 C 
HETATM   21  C18 UNL     1      25.393   0.270  51.907  1.00  0.00     0.093 C 
HETATM   22  C6  UNL     1      23.654   1.038  53.433  1.00  0.00     0.073 C 
BRANCH  19  23
HETATM   23  C2  UNL     1      28.766   0.205  53.406  1.00  0.00     0.268 C 
HETATM   24  C1  UNL     1      29.559  -1.067  53.539  1.00  0.00     0.037 C 
ENDBRANCH  19  23
ENDBRANCH  12  14
ENDBRANCH   1  12
BRANCH   1  25
HETATM   25  C8  UNL     1      25.466   3.871  50.907  1.00  0.00     0.275 C 
HETATM   26  O1  UNL     1      26.508   3.479  50.358  1.00  0.00    -0.303 OA
ENDBRANCH   1  25
TORSDOF 4
ENDMDL
MODEL 7
REMARK VINA RESULT:      -5.6      9.854     12.674
REMARK  4 active torsions:
REMARK  status: ('A' for Active; 'I' for Inactive)
REMARK    1  A    between atoms: C2_2  and  N1_3 
REMARK    2  A    between atoms: C5_7  and  N3_9 
REMARK    3  A    between atoms: N3_9  and  C7_10 
REMARK    4  A    between atoms: C7_10  and  C8_11 
ROOT
HETATM    1  C7  UNL     1      29.768  10.080  48.095  1.00  0.00     0.175 C 
HETATM    2  C9  UNL     1      28.643  10.896  47.432  1.00  0.00     0.195 C 
HETATM    3  O2  UNL     1      27.514  10.287  47.552  1.00  0.00    -0.289 OA
HETATM    4  C10 UNL     1      29.544  12.025  46.981  1.00  0.00    -0.005 C 
HETATM    5  C11 UNL     1      30.140  12.200  45.723  1.00  0.00     0.012 C 
HETATM    6  C12 UNL     1      31.542  11.631  46.046  1.00  0.00     0.008 C 
HETATM    7  C13 UNL     1      32.146  11.106  47.210  1.00  0.00    -0.053 C 
HETATM    8  C14 UNL     1      33.626  10.802  47.079  1.00  0.00     0.049 C 
HETATM    9  C15 UNL     1      30.950  11.082  48.169  1.00  0.00    -0.013 C 
HETATM   10  C16 UNL     1      30.782  12.071  49.100  1.00  0.00    -0.011 C 
HETATM   11  C17 UNL     1      29.852  12.917  48.204  1.00  0.00     0.070 C 
ENDROOT
BRANCH   1  12
HETATM   12  N3  UNL     1      30.033   8.987  47.309  1.00  0.00    -0.364 N 
HETATM   13  H14 UNL     1      29.758   9.083  46.284  1.00  0.00     0.157 HD
BRANCH  12  14
HETATM   14  C5  UNL     1      30.591   7.774  47.648  1.00  0.00     0.225 C 
HETATM   15  N2  UNL     1      31.309   7.743  48.893  1.00  0.00     0.113 NA
HETATM   16  C4  UNL     1      31.622   6.497  49.462  1.00  0.00     0.303 C 
HETATM   17  H10 UNL     1      32.160   8.307  48.852  1.00  0.00     0.319 HD
HETATM   18  C3  UNL     1      32.385   5.529  48.612  1.00  0.00     0.302 C 
HETATM   19  N1  UNL     1      33.332   6.077  47.738  1.00  0.00     0.089 NA
HETATM   20  C19 UNL     1      33.019   7.264  47.021  1.00  0.00     0.277 C 
HETATM   21  C18 UNL     1      31.632   7.464  46.566  1.00  0.00     0.093 C 
HETATM   22  C6  UNL     1      29.547   6.684  47.561  1.00  0.00     0.073 C 
BRANCH  19  23
HETATM   23  C2  UNL     1      34.655   6.207  48.271  1.00  0.00     0.268 C 
HETATM   24  C1  UNL     1      35.145   7.629  48.322  1.00  0.00     0.037 C 
ENDBRANCH  19  23
ENDBRANCH  12  14
ENDBRANCH   1  12
BRANCH   1  25
HETATM   25  C8  UNL     1      29.256   9.665  49.384  1.00  0.00     0.275 C 
HETATM   26  O1  UNL     1      28.335   8.902  49.712  1.00  0.00    -0.303 OA
ENDBRANCH   1  25
TORSDOF 4
ENDMDL
MODEL 8
REMARK VINA RESULT:      -5.6      8.112     10.150
REMARK  4 active torsions:
REMARK  status: ('A' for Active; 'I' for Inactive)
REMARK    1  A    between atoms: C2_2  and  N1_3 
REMARK    2  A    between atoms: C5_7  and  N3_9 
REMARK    3  A    between atoms: N3_9  and  C7_10 
REMARK    4  A    between atoms: C7_10  and  C8_11 
ROOT
HETATM    1  C7  UNL     1      30.847   9.434  47.806  1.00  0.00     0.175 C 
HETATM    2  C9  UNL     1      31.765   9.980  46.697  1.00  0.00     0.195 C 
HETATM    3  O2  UNL     1      31.548  11.237  46.512  1.00  0.00    -0.289 OA
HETATM    4  C10 UNL     1      32.449   8.657  46.427  1.00  0.00    -0.005 C 
HETATM    5  C11 UNL     1      32.140   7.717  45.432  1.00  0.00     0.012 C 
HETATM    6  C12 UNL     1      31.291   6.744  46.285  1.00  0.00     0.008 C 
HETATM    7  C13 UNL     1      30.913   6.703  47.644  1.00  0.00    -0.053 C 
HETATM    8  C14 UNL     1      30.179   5.443  48.065  1.00  0.00     0.049 C 
HETATM    9  C15 UNL     1      31.459   8.047  48.137  1.00  0.00    -0.013 C 
HETATM   10  C16 UNL     1      32.649   8.113  48.811  1.00  0.00    -0.011 C 
HETATM   11  C17 UNL     1      33.483   8.409  47.546  1.00  0.00     0.070 C 
ENDROOT
BRANCH   1  12
HETATM   12  N3  UNL     1      29.568   9.357  47.315  1.00  0.00    -0.364 N 
HETATM   13  H14 UNL     1      29.486   9.356  46.253  1.00  0.00     0.157 HD
BRANCH  12  14
HETATM   14  C5  UNL     1      28.369   9.296  47.990  1.00  0.00     0.225 C 
HETATM   15  N2  UNL     1      28.427   8.753  49.319  1.00  0.00     0.113 NA
HETATM   16  C4  UNL     1      27.333   8.952  50.179  1.00  0.00     0.303 C 
HETATM   17  H10 UNL     1      28.659   7.758  49.311  1.00  0.00     0.319 HD
HETATM   18  C3  UNL     1      25.990   8.503  49.693  1.00  0.00     0.302 C 
HETATM   19  N1  UNL     1      25.966   7.347  48.902  1.00  0.00     0.089 NA
HETATM   20  C19 UNL     1      26.968   7.156  47.913  1.00  0.00     0.277 C 
HETATM   21  C18 UNL     1      27.478   8.335  47.192  1.00  0.00     0.093 C 
HETATM   22  C6  UNL     1      27.685  10.644  47.949  1.00  0.00     0.073 C 
BRANCH  19  23
HETATM   23  C2  UNL     1      25.797   6.119  49.619  1.00  0.00     0.268 C 
HETATM   24  C1  UNL     1      26.585   4.973  49.041  1.00  0.00     0.037 C 
ENDBRANCH  19  23
ENDBRANCH  12  14
ENDBRANCH   1  12
BRANCH   1  25
HETATM   25  C8  UNL     1      30.917  10.391  48.891  1.00  0.00     0.275 C 
HETATM   26  O1  UNL     1      30.735  10.285  50.113  1.00  0.00    -0.303 OA
ENDBRANCH   1  25
TORSDOF 4
ENDMDL
MODEL 9
REMARK VINA RESULT:      -5.4      3.030      5.740
REMARK  4 active torsions:
REMARK  status: ('A' for Active; 'I' for Inactive)
REMARK    1  A    between atoms: C2_2  and  N1_3 
REMARK    2  A    between atoms: C5_7  and  N3_9 
REMARK    3  A    between atoms: N3_9  and  C7_10 
REMARK    4  A    between atoms: C7_10  and  C8_11 
ROOT
HETATM    1  C7  UNL     1      23.224   3.123  51.247  1.00  0.00     0.175 C 
HETATM    2  C9  UNL     1      23.490   1.607  51.230  1.00  0.00     0.195 C 
HETATM    3  O2  UNL     1      24.728   1.364  51.493  1.00  0.00    -0.289 OA
HETATM    4  C10 UNL     1      22.064   1.226  50.894  1.00  0.00    -0.005 C 
HETATM    5  C11 UNL     1      21.525   0.943  49.630  1.00  0.00     0.012 C 
HETATM    6  C12 UNL     1      20.892   2.323  49.331  1.00  0.00     0.008 C 
HETATM    7  C13 UNL     1      20.801   3.538  50.045  1.00  0.00    -0.053 C 
HETATM    8  C14 UNL     1      19.934   4.598  49.392  1.00  0.00     0.049 C 
HETATM    9  C15 UNL     1      21.676   3.223  51.263  1.00  0.00    -0.013 C 
HETATM   10  C16 UNL     1      21.109   2.860  52.456  1.00  0.00    -0.011 C 
HETATM   11  C17 UNL     1      21.214   1.345  52.178  1.00  0.00     0.070 C 
ENDROOT
BRANCH   1  12
HETATM   12  N3  UNL     1      23.790   3.677  50.126  1.00  0.00    -0.364 N 
HETATM   13  H14 UNL     1      23.931   3.009  49.308  1.00  0.00     0.157 HD
BRANCH  12  14
HETATM   14  C5  UNL     1      24.218   4.967  49.902  1.00  0.00     0.225 C 
HETATM   15  N2  UNL     1      23.669   5.968  50.775  1.00  0.00     0.113 NA
HETATM   16  C4  UNL     1      24.286   7.230  50.828  1.00  0.00     0.303 C 
HETATM   17  H10 UNL     1      22.668   6.100  50.614  1.00  0.00     0.319 HD
HETATM   18  C3  UNL     1      24.450   7.967  49.536  1.00  0.00     0.302 C 
HETATM   19  N1  UNL     1      23.429   7.805  48.590  1.00  0.00     0.089 NA
HETATM   20  C19 UNL     1      22.861   6.518  48.386  1.00  0.00     0.277 C 
HETATM   21  C18 UNL     1      23.737   5.339  48.494  1.00  0.00     0.093 C 
HETATM   22  C6  UNL     1      25.730   5.008  49.861  1.00  0.00     0.073 C 
BRANCH  19  23
HETATM   23  C2  UNL     1      22.366   8.762  48.667  1.00  0.00     0.268 C 
HETATM   24  C1  UNL     1      20.996   8.148  48.562  1.00  0.00     0.037 C 
ENDBRANCH  19  23
ENDBRANCH  12  14
ENDBRANCH   1  12
BRANCH   1  25
HETATM   25  C8  UNL     1      23.867   3.630  52.442  1.00  0.00     0.275 C 
HETATM   26  O1  UNL     1      23.597   4.572  53.202  1.00  0.00    -0.303 OA
ENDBRANCH   1  25
TORSDOF 4
ENDMDL
