MODEL 1
REMARK VINA RESULT:      -7.0      0.000      0.000
REMARK  6 active torsions:
REMARK  status: ('A' for Active; 'I' for Inactive)
REMARK    1  A    between atoms: C2_3  and  C3_4 
REMARK    2  A    between atoms: C7_8  and  C8_9 
REMARK    3  A    between atoms: C9_10  and  N2_11 
REMARK    4  A    between atoms: C10_12  and  N3_13 
REMARK    5  A    between atoms: N3_13  and  C11_14 
REMARK    6  A    between atoms: C11_14  and  C12_16 
ROOT
HETATM    1  N1  UNL     1      21.797  -0.950  54.567  1.00  0.00    -0.197 NA
HETATM    2  C1  UNL     1      22.132  -0.072  53.876  1.00  0.00     0.063 C 
HETATM    3  C2  UNL     1      22.572   1.044  53.005  1.00  0.00     0.162 C 
ENDROOT
BRANCH   3   4
HETATM    4  C3  UNL     1      24.017   0.875  52.683  1.00  0.00    -0.044 A 
HETATM    5  C4  UNL     1      24.717  -0.259  53.066  1.00  0.00     0.008 A 
HETATM    6  C5  UNL     1      26.073  -0.404  52.756  1.00  0.00     0.001 A 
HETATM    7  C6  UNL     1      26.715   0.606  52.057  1.00  0.00     0.011 A 
HETATM    8  C7  UNL     1      26.037   1.739  51.669  1.00  0.00    -0.034 A 
HETATM    9  C15 UNL     1      24.707   1.844  51.991  1.00  0.00     0.019 A 
BRANCH   8  10
HETATM   10  C8  UNL     1      26.695   2.812  50.932  1.00  0.00     0.030 C 
HETATM   11  C9  UNL     1      26.274   3.211  49.755  1.00  0.00     0.118 C 
BRANCH  11  12
HETATM   12  N2  UNL     1      26.873   4.235  49.012  1.00  0.00    -0.256 NA
HETATM   13  C10 UNL     1      26.453   5.473  49.061  1.00  0.00     0.208 C 
BRANCH  13  14
HETATM   14  N3  UNL     1      27.080   6.513  48.289  1.00  0.00    -0.338 N 
HETATM   15  H9  UNL     1      26.603   7.091  47.555  1.00  0.00     0.168 HD
BRANCH  14  16
HETATM   16  C11 UNL     1      28.457   6.759  48.561  1.00  0.00     0.129 C 
HETATM   17  N4  UNL     1      29.233   5.792  48.843  1.00  0.00    -0.286 NA
HETATM   18  H10 UNL     1      28.926   4.811  48.894  1.00  0.00     0.188 HD
BRANCH  16  19
HETATM   19  C12 UNL     1      29.002   8.159  48.530  1.00  0.00     0.268 C 
HETATM   20  C13 UNL     1      28.196   9.002  49.412  1.00  0.00     0.086 C 
HETATM   21  N5  UNL     1      27.545   9.680  50.105  1.00  0.00    -0.195 NA
HETATM   22  C14 UNL     1      30.405   8.190  48.987  1.00  0.00     0.086 C 
HETATM   23  N6  UNL     1      31.511   8.222  49.340  1.00  0.00    -0.195 NA
ENDBRANCH  16  19
ENDBRANCH  14  16
ENDBRANCH  13  14
ENDBRANCH  11  12
ENDBRANCH   8  10
ENDBRANCH   3   4
TORSDOF 6
ENDMDL
MODEL 2
REMARK VINA RESULT:      -7.0      4.898      7.006
REMARK  6 active torsions:
REMARK  status: ('A' for Active; 'I' for Inactive)
REMARK    1  A    between atoms: C2_3  and  C3_4 
REMARK    2  A    between atoms: C7_8  and  C8_9 
REMARK    3  A    between atoms: C9_10  and  N2_11 
REMARK    4  A    between atoms: C10_12  and  N3_13 
REMARK    5  A    between atoms: N3_13  and  C11_14 
REMARK    6  A    between atoms: C11_14  and  C12_16 
ROOT
HETATM    1  N1  UNL     1      21.175   2.620  50.600  1.00  0.00    -0.197 NA
HETATM    2  C1  UNL     1      20.283   1.959  50.955  1.00  0.00     0.063 C 
HETATM    3  C2  UNL     1      19.160   1.104  51.408  1.00  0.00     0.162 C 
ENDROOT
BRANCH   3   4
HETATM    4  C3  UNL     1      19.662   0.120  52.408  1.00  0.00    -0.044 A 
HETATM    5  C4  UNL     1      18.826  -0.835  52.967  1.00  0.00     0.008 A 
HETATM    6  C5  UNL     1      19.311  -1.752  53.905  1.00  0.00     0.001 A 
HETATM    7  C6  UNL     1      20.647  -1.697  54.271  1.00  0.00     0.011 A 
HETATM    8  C7  UNL     1      21.491  -0.756  53.727  1.00  0.00    -0.034 A 
HETATM    9  C15 UNL     1      20.978   0.127  52.810  1.00  0.00     0.019 A 
BRANCH   8  10
HETATM   10  C8  UNL     1      22.899  -0.682  54.100  1.00  0.00     0.030 C 
HETATM   11  C9  UNL     1      23.856  -0.595  53.206  1.00  0.00     0.118 C 
BRANCH  11  12
HETATM   12  N2  UNL     1      25.218  -0.522  53.516  1.00  0.00    -0.256 NA
HETATM   13  C10 UNL     1      25.647  -0.229  54.717  1.00  0.00     0.208 C 
BRANCH  13  14
HETATM   14  N3  UNL     1      27.052  -0.158  55.019  1.00  0.00    -0.338 N 
HETATM   15  H9  UNL     1      27.457   0.022  55.970  1.00  0.00     0.168 HD
BRANCH  14  16
HETATM   16  C11 UNL     1      27.945  -0.350  53.924  1.00  0.00     0.129 C 
HETATM   17  N4  UNL     1      28.092  -1.508  53.420  1.00  0.00    -0.286 NA
HETATM   18  H10 UNL     1      27.598  -2.344  53.758  1.00  0.00     0.188 HD
BRANCH  16  19
HETATM   19  C12 UNL     1      28.727   0.805  53.366  1.00  0.00     0.268 C 
HETATM   20  C13 UNL     1      27.837   1.631  52.551  1.00  0.00     0.086 C 
HETATM   21  N5  UNL     1      27.132   2.284  51.888  1.00  0.00    -0.195 NA
HETATM   22  C14 UNL     1      29.291   1.633  54.449  1.00  0.00     0.086 C 
HETATM   23  N6  UNL     1      29.744   2.286  55.296  1.00  0.00    -0.195 NA
ENDBRANCH  16  19
ENDBRANCH  14  16
ENDBRANCH  13  14
ENDBRANCH  11  12
ENDBRANCH   8  10
ENDBRANCH   3   4
TORSDOF 6
ENDMDL
MODEL 3
REMARK VINA RESULT:      -6.9      1.641      2.435
REMARK  6 active torsions:
REMARK  status: ('A' for Active; 'I' for Inactive)
REMARK    1  A    between atoms: C2_3  and  C3_4 
REMARK    2  A    between atoms: C7_8  and  C8_9 
REMARK    3  A    between atoms: C9_10  and  N2_11 
REMARK    4  A    between atoms: C10_12  and  N3_13 
REMARK    5  A    between atoms: N3_13  and  C11_14 
REMARK    6  A    between atoms: C11_14  and  C12_16 
ROOT
HETATM    1  N1  UNL     1      27.999   1.230  54.447  1.00  0.00    -0.197 NA
HETATM    2  C1  UNL     1      27.137   0.478  54.228  1.00  0.00     0.063 C 
HETATM    3  C2  UNL     1      26.028  -0.468  53.952  1.00  0.00     0.162 C 
ENDROOT
BRANCH   3   4
HETATM    4  C3  UNL     1      24.965   0.233  53.179  1.00  0.00    -0.044 A 
HETATM    5  C4  UNL     1      23.621  -0.045  53.380  1.00  0.00     0.008 A 
HETATM    6  C5  UNL     1      22.633   0.621  52.648  1.00  0.00     0.001 A 
HETATM    7  C6  UNL     1      23.015   1.570  51.712  1.00  0.00     0.011 A 
HETATM    8  C7  UNL     1      24.343   1.859  51.498  1.00  0.00    -0.034 A 
HETATM    9  C15 UNL     1      25.283   1.185  52.237  1.00  0.00     0.019 A 
BRANCH   8  10
HETATM   10  C8  UNL     1      24.764   2.854  50.519  1.00  0.00     0.030 C 
HETATM   11  C9  UNL     1      26.029   3.085  50.256  1.00  0.00     0.118 C 
BRANCH  11  12
HETATM   12  N2  UNL     1      26.479   4.028  49.325  1.00  0.00    -0.256 NA
HETATM   13  C10 UNL     1      26.262   5.311  49.469  1.00  0.00     0.208 C 
BRANCH  13  14
HETATM   14  N3  UNL     1      26.731   6.268  48.502  1.00  0.00    -0.338 N 
HETATM   15  H9  UNL     1      26.142   6.709  47.755  1.00  0.00     0.168 HD
BRANCH  14  16
HETATM   16  C11 UNL     1      28.107   6.628  48.585  1.00  0.00     0.129 C 
HETATM   17  N4  UNL     1      28.993   5.728  48.736  1.00  0.00    -0.286 NA
HETATM   18  H10 UNL     1      28.779   4.724  48.807  1.00  0.00     0.188 HD
BRANCH  16  19
HETATM   19  C12 UNL     1      28.524   8.069  48.509  1.00  0.00     0.268 C 
HETATM   20  C13 UNL     1      27.786   8.831  49.516  1.00  0.00     0.086 C 
HETATM   21  N5  UNL     1      27.187   9.443  50.310  1.00  0.00    -0.195 NA
HETATM   22  C14 UNL     1      29.970   8.215  48.763  1.00  0.00     0.086 C 
HETATM   23  N6  UNL     1      31.109   8.338  48.956  1.00  0.00    -0.195 NA
ENDBRANCH  16  19
ENDBRANCH  14  16
ENDBRANCH  13  14
ENDBRANCH  11  12
ENDBRANCH   8  10
ENDBRANCH   3   4
TORSDOF 6
ENDMDL
MODEL 4
REMARK VINA RESULT:      -6.9      2.096      3.223
REMARK  6 active torsions:
REMARK  status: ('A' for Active; 'I' for Inactive)
REMARK    1  A    between atoms: C2_3  and  C3_4 
REMARK    2  A    between atoms: C7_8  and  C8_9 
REMARK    3  A    between atoms: C9_10  and  N2_11 
REMARK    4  A    between atoms: C10_12  and  N3_13 
REMARK    5  A    between atoms: N3_13  and  C11_14 
REMARK    6  A    between atoms: C11_14  and  C12_16 
ROOT
HETATM    1  N1  UNL     1      27.570  -0.450  53.009  1.00  0.00    -0.197 NA
HETATM    2  C1  UNL     1      26.531  -0.610  53.512  1.00  0.00     0.063 C 
HETATM    3  C2  UNL     1      25.205  -0.799  54.147  1.00  0.00     0.162 C 
ENDROOT
BRANCH   3   4
HETATM    4  C3  UNL     1      24.155  -0.191  53.282  1.00  0.00    -0.044 A 
HETATM    5  C4  UNL     1      22.880  -0.732  53.202  1.00  0.00     0.008 A 
HETATM    6  C5  UNL     1      21.904  -0.151  52.386  1.00  0.00     0.001 A 
HETATM    7  C6  UNL     1      22.227   0.980  51.652  1.00  0.00     0.011 A 
HETATM    8  C7  UNL     1      23.487   1.531  51.719  1.00  0.00    -0.034 A 
HETATM    9  C15 UNL     1      24.417   0.932  52.531  1.00  0.00     0.019 A 
BRANCH   8  10
HETATM   10  C8  UNL     1      23.845   2.720  50.955  1.00  0.00     0.030 C 
HETATM   11  C9  UNL     1      24.707   3.604  51.401  1.00  0.00     0.118 C 
BRANCH  11  12
HETATM   12  N2  UNL     1      25.080   4.759  50.705  1.00  0.00    -0.256 NA
HETATM   13  C10 UNL     1      24.249   5.408  49.930  1.00  0.00     0.208 C 
BRANCH  13  14
HETATM   14  N3  UNL     1      24.650   6.594  49.221  1.00  0.00    -0.338 N 
HETATM   15  H9  UNL     1      24.066   7.098  48.509  1.00  0.00     0.168 HD
BRANCH  14  16
HETATM   16  C11 UNL     1      25.945   7.106  49.525  1.00  0.00     0.129 C 
HETATM   17  N4  UNL     1      26.188   7.576  50.680  1.00  0.00    -0.286 NA
HETATM   18  H10 UNL     1      25.492   7.617  51.437  1.00  0.00     0.188 HD
BRANCH  16  19
HETATM   19  C12 UNL     1      27.028   7.106  48.483  1.00  0.00     0.268 C 
HETATM   20  C13 UNL     1      27.970   8.185  48.779  1.00  0.00     0.086 C 
HETATM   21  N5  UNL     1      28.715   9.056  49.005  1.00  0.00    -0.195 NA
HETATM   22  C14 UNL     1      27.756   5.823  48.478  1.00  0.00     0.086 C 
HETATM   23  N6  UNL     1      28.330   4.813  48.464  1.00  0.00    -0.195 NA
ENDBRANCH  16  19
ENDBRANCH  14  16
ENDBRANCH  13  14
ENDBRANCH  11  12
ENDBRANCH   8  10
ENDBRANCH   3   4
TORSDOF 6
ENDMDL
MODEL 5
REMARK VINA RESULT:      -6.9      1.858      2.560
REMARK  6 active torsions:
REMARK  status: ('A' for Active; 'I' for Inactive)
REMARK    1  A    between atoms: C2_3  and  C3_4 
REMARK    2  A    between atoms: C7_8  and  C8_9 
REMARK    3  A    between atoms: C9_10  and  N2_11 
REMARK    4  A    between atoms: C10_12  and  N3_13 
REMARK    5  A    between atoms: N3_13  and  C11_14 
REMARK    6  A    between atoms: C11_14  and  C12_16 
ROOT
HETATM    1  N1  UNL     1      22.789  -1.489  55.563  1.00  0.00    -0.197 NA
HETATM    2  C1  UNL     1      22.858  -0.896  54.562  1.00  0.00     0.063 C 
HETATM    3  C2  UNL     1      22.958  -0.133  53.295  1.00  0.00     0.162 C 
ENDROOT
BRANCH   3   4
HETATM    4  C3  UNL     1      24.395   0.075  52.958  1.00  0.00    -0.044 A 
HETATM    5  C4  UNL     1      25.361  -0.859  53.302  1.00  0.00     0.008 A 
HETATM    6  C5  UNL     1      26.706  -0.651  52.980  1.00  0.00     0.001 A 
HETATM    7  C6  UNL     1      27.065   0.507  52.307  1.00  0.00     0.011 A 
HETATM    8  C7  UNL     1      26.120   1.445  51.959  1.00  0.00    -0.034 A 
HETATM    9  C15 UNL     1      24.811   1.205  52.292  1.00  0.00     0.019 A 
BRANCH   8  10
HETATM   10  C8  UNL     1      26.479   2.668  51.252  1.00  0.00     0.030 C 
HETATM   11  C9  UNL     1      25.804   3.098  50.211  1.00  0.00     0.118 C 
BRANCH  11  12
HETATM   12  N2  UNL     1      26.111   4.265  49.502  1.00  0.00    -0.256 NA
HETATM   13  C10 UNL     1      27.296   4.480  48.989  1.00  0.00     0.208 C 
BRANCH  13  14
HETATM   14  N3  UNL     1      27.595   5.686  48.263  1.00  0.00    -0.338 N 
HETATM   15  H9  UNL     1      28.292   5.763  47.483  1.00  0.00     0.168 HD
BRANCH  14  16
HETATM   16  C11 UNL     1      26.875   6.853  48.651  1.00  0.00     0.129 C 
HETATM   17  N4  UNL     1      26.966   7.289  49.842  1.00  0.00    -0.286 NA
HETATM   18  H10 UNL     1      27.540   6.843  50.570  1.00  0.00     0.188 HD
BRANCH  16  19
HETATM   19  C12 UNL     1      25.996   7.570  47.666  1.00  0.00     0.268 C 
HETATM   20  C13 UNL     1      24.617   7.119  47.845  1.00  0.00     0.086 C 
HETATM   21  N5  UNL     1      23.517   6.749  47.976  1.00  0.00    -0.195 NA
HETATM   22  C14 UNL     1      26.053   9.030  47.873  1.00  0.00     0.086 C 
HETATM   23  N6  UNL     1      26.097  10.181  48.025  1.00  0.00    -0.195 NA
ENDBRANCH  16  19
ENDBRANCH  14  16
ENDBRANCH  13  14
ENDBRANCH  11  12
ENDBRANCH   8  10
ENDBRANCH   3   4
TORSDOF 6
ENDMDL
MODEL 6
REMARK VINA RESULT:      -6.9      5.418      7.952
REMARK  6 active torsions:
REMARK  status: ('A' for Active; 'I' for Inactive)
REMARK    1  A    between atoms: C2_3  and  C3_4 
REMARK    2  A    between atoms: C7_8  and  C8_9 
REMARK    3  A    between atoms: C9_10  and  N2_11 
REMARK    4  A    between atoms: C10_12  and  N3_13 
REMARK    5  A    between atoms: N3_13  and  C11_14 
REMARK    6  A    between atoms: C11_14  and  C12_16 
ROOT
HETATM    1  N1  UNL     1      25.421   8.638  45.178  1.00  0.00    -0.197 NA
HETATM    2  C1  UNL     1      25.830   8.668  46.269  1.00  0.00     0.063 C 
HETATM    3  C2  UNL     1      26.345   8.691  47.659  1.00  0.00     0.162 C 
ENDROOT
BRANCH   3   4
HETATM    4  C3  UNL     1      26.762   7.315  48.052  1.00  0.00    -0.044 A 
HETATM    5  C4  UNL     1      25.856   6.406  48.577  1.00  0.00     0.008 A 
HETATM    6  C5  UNL     1      26.261   5.118  48.941  1.00  0.00     0.001 A 
HETATM    7  C6  UNL     1      27.589   4.758  48.771  1.00  0.00     0.011 A 
HETATM    8  C7  UNL     1      28.502   5.646  48.252  1.00  0.00    -0.034 A 
HETATM    9  C15 UNL     1      28.066   6.901  47.906  1.00  0.00     0.019 A 
BRANCH   8  10
HETATM   10  C8  UNL     1      29.902   5.285  48.066  1.00  0.00     0.030 C 
HETATM   11  C9  UNL     1      30.880   5.972  48.608  1.00  0.00     0.118 C 
BRANCH  11  12
HETATM   12  N2  UNL     1      32.237   5.664  48.457  1.00  0.00    -0.256 NA
HETATM   13  C10 UNL     1      33.041   6.388  47.721  1.00  0.00     0.208 C 
BRANCH  13  14
HETATM   14  N3  UNL     1      34.433   6.056  47.576  1.00  0.00    -0.338 N 
HETATM   15  H9  UNL     1      35.149   6.653  47.094  1.00  0.00     0.168 HD
BRANCH  14  16
HETATM   16  C11 UNL     1      34.850   4.815  48.138  1.00  0.00     0.129 C 
HETATM   17  N4  UNL     1      35.170   4.748  49.366  1.00  0.00    -0.286 NA
HETATM   18  H10 UNL     1      35.151   5.554  50.005  1.00  0.00     0.188 HD
BRANCH  16  19
HETATM   19  C12 UNL     1      34.927   3.580  47.285  1.00  0.00     0.268 C 
HETATM   20  C13 UNL     1      33.750   2.751  47.544  1.00  0.00     0.086 C 
HETATM   21  N5  UNL     1      32.819   2.080  47.759  1.00  0.00    -0.195 NA
HETATM   22  C14 UNL     1      34.962   3.929  45.852  1.00  0.00     0.086 C 
HETATM   23  N6  UNL     1      34.996   4.195  44.722  1.00  0.00    -0.195 NA
ENDBRANCH  16  19
ENDBRANCH  14  16
ENDBRANCH  13  14
ENDBRANCH  11  12
ENDBRANCH   8  10
ENDBRANCH   3   4
TORSDOF 6
ENDMDL
MODEL 7
REMARK VINA RESULT:      -6.8      2.800      9.387
REMARK  6 active torsions:
REMARK  status: ('A' for Active; 'I' for Inactive)
REMARK    1  A    between atoms: C2_3  and  C3_4 
REMARK    2  A    between atoms: C7_8  and  C8_9 
REMARK    3  A    between atoms: C9_10  and  N2_11 
REMARK    4  A    between atoms: C10_12  and  N3_13 
REMARK    5  A    between atoms: N3_13  and  C11_14 
REMARK    6  A    between atoms: C11_14  and  C12_16 
ROOT
HETATM    1  N1  UNL     1      27.379   9.946  49.971  1.00  0.00    -0.197 NA
HETATM    2  C1  UNL     1      26.739   9.233  49.307  1.00  0.00     0.063 C 
HETATM    3  C2  UNL     1      25.937   8.317  48.460  1.00  0.00     0.162 C 
ENDROOT
BRANCH   3   4
HETATM    4  C3  UNL     1      26.338   6.910  48.741  1.00  0.00    -0.044 A 
HETATM    5  C4  UNL     1      27.557   6.405  48.314  1.00  0.00     0.008 A 
HETATM    6  C5  UNL     1      27.921   5.083  48.585  1.00  0.00     0.001 A 
HETATM    7  C6  UNL     1      27.043   4.276  49.292  1.00  0.00     0.011 A 
HETATM    8  C7  UNL     1      25.829   4.759  49.724  1.00  0.00    -0.034 A 
HETATM    9  C15 UNL     1      25.508   6.063  49.438  1.00  0.00     0.019 A 
BRANCH   8  10
HETATM   10  C8  UNL     1      24.893   3.925  50.469  1.00  0.00     0.030 C 
HETATM   11  C9  UNL     1      24.343   2.853  49.947  1.00  0.00     0.118 C 
BRANCH  11  12
HETATM   12  N2  UNL     1      23.441   2.025  50.622  1.00  0.00    -0.256 NA
HETATM   13  C10 UNL     1      22.503   2.500  51.402  1.00  0.00     0.208 C 
BRANCH  13  14
HETATM   14  N3  UNL     1      21.583   1.633  52.089  1.00  0.00    -0.338 N 
HETATM   15  H9  UNL     1      20.570   1.511  51.844  1.00  0.00     0.168 HD
BRANCH  14  16
HETATM   16  C11 UNL     1      22.112   0.892  53.186  1.00  0.00     0.129 C 
HETATM   17  N4  UNL     1      23.370   0.775  53.327  1.00  0.00    -0.286 NA
HETATM   18  H10 UNL     1      24.057   1.190  52.683  1.00  0.00     0.188 HD
BRANCH  16  19
HETATM   19  C12 UNL     1      21.192   0.234  54.176  1.00  0.00     0.268 C 
HETATM   20  C13 UNL     1      19.988  -0.214  53.478  1.00  0.00     0.086 C 
HETATM   21  N5  UNL     1      19.018  -0.560  52.926  1.00  0.00    -0.195 NA
HETATM   22  C14 UNL     1      21.842  -0.931  54.806  1.00  0.00     0.086 C 
HETATM   23  N6  UNL     1      22.349  -1.846  55.312  1.00  0.00    -0.195 NA
ENDBRANCH  16  19
ENDBRANCH  14  16
ENDBRANCH  13  14
ENDBRANCH  11  12
ENDBRANCH   8  10
ENDBRANCH   3   4
TORSDOF 6
ENDMDL
MODEL 8
REMARK VINA RESULT:      -6.7      2.694      3.732
REMARK  6 active torsions:
REMARK  status: ('A' for Active; 'I' for Inactive)
REMARK    1  A    between atoms: C2_3  and  C3_4 
REMARK    2  A    between atoms: C7_8  and  C8_9 
REMARK    3  A    between atoms: C9_10  and  N2_11 
REMARK    4  A    between atoms: C10_12  and  N3_13 
REMARK    5  A    between atoms: N3_13  and  C11_14 
REMARK    6  A    between atoms: C11_14  and  C12_16 
ROOT
HETATM    1  N1  UNL     1      29.434   2.073  54.896  1.00  0.00    -0.197 NA
HETATM    2  C1  UNL     1      28.976   1.086  54.478  1.00  0.00     0.063 C 
HETATM    3  C2  UNL     1      28.379  -0.165  53.951  1.00  0.00     0.162 C 
ENDROOT
BRANCH   3   4
HETATM    4  C3  UNL     1      27.024   0.129  53.407  1.00  0.00    -0.044 A 
HETATM    5  C4  UNL     1      25.895  -0.518  53.887  1.00  0.00     0.008 A 
HETATM    6  C5  UNL     1      24.629  -0.233  53.366  1.00  0.00     0.001 A 
HETATM    7  C6  UNL     1      24.514   0.711  52.357  1.00  0.00     0.011 A 
HETATM    8  C7  UNL     1      25.622   1.363  51.868  1.00  0.00    -0.034 A 
HETATM    9  C15 UNL     1      26.848   1.056  52.405  1.00  0.00     0.019 A 
BRANCH   8  10
HETATM   10  C8  UNL     1      25.521   2.359  50.808  1.00  0.00     0.030 C 
HETATM   11  C9  UNL     1      26.474   3.230  50.573  1.00  0.00     0.118 C 
BRANCH  11  12
HETATM   12  N2  UNL     1      26.421   4.203  49.569  1.00  0.00    -0.256 NA
HETATM   13  C10 UNL     1      25.645   5.253  49.653  1.00  0.00     0.208 C 
BRANCH  13  14
HETATM   14  N3  UNL     1      25.602   6.244  48.611  1.00  0.00    -0.338 N 
HETATM   15  H9  UNL     1      25.153   6.112  47.671  1.00  0.00     0.168 HD
BRANCH  14  16
HETATM   16  C11 UNL     1      26.223   7.493  48.899  1.00  0.00     0.129 C 
HETATM   17  N4  UNL     1      27.231   7.539  49.672  1.00  0.00    -0.286 NA
HETATM   18  H10 UNL     1      27.644   6.710  50.121  1.00  0.00     0.188 HD
BRANCH  16  19
HETATM   19  C12 UNL     1      25.687   8.766  48.306  1.00  0.00     0.268 C 
HETATM   20  C13 UNL     1      24.271   8.890  48.650  1.00  0.00     0.086 C 
HETATM   21  N5  UNL     1      23.137   8.985  48.911  1.00  0.00    -0.195 NA
HETATM   22  C14 UNL     1      26.412   9.939  48.831  1.00  0.00     0.086 C 
HETATM   23  N6  UNL     1      26.983  10.867  49.234  1.00  0.00    -0.195 NA
ENDBRANCH  16  19
ENDBRANCH  14  16
ENDBRANCH  13  14
ENDBRANCH  11  12
ENDBRANCH   8  10
ENDBRANCH   3   4
TORSDOF 6
ENDMDL
MODEL 9
REMARK VINA RESULT:      -6.7      2.330      9.343
REMARK  6 active torsions:
REMARK  status: ('A' for Active; 'I' for Inactive)
REMARK    1  A    between atoms: C2_3  and  C3_4 
REMARK    2  A    between atoms: C7_8  and  C8_9 
REMARK    3  A    between atoms: C9_10  and  N2_11 
REMARK    4  A    between atoms: C10_12  and  N3_13 
REMARK    5  A    between atoms: N3_13  and  C11_14 
REMARK    6  A    between atoms: C11_14  and  C12_16 
ROOT
HETATM    1  N1  UNL     1      31.859   6.571  49.403  1.00  0.00    -0.197 NA
HETATM    2  C1  UNL     1      31.149   6.014  48.665  1.00  0.00     0.063 C 
HETATM    3  C2  UNL     1      30.235   5.303  47.739  1.00  0.00     0.162 C 
ENDROOT
BRANCH   3   4
HETATM    4  C3  UNL     1      28.825   5.559  48.146  1.00  0.00    -0.044 A 
HETATM    5  C4  UNL     1      28.253   6.817  48.022  1.00  0.00     0.008 A 
HETATM    6  C5  UNL     1      26.928   7.043  48.407  1.00  0.00     0.001 A 
HETATM    7  C6  UNL     1      26.187   5.988  48.918  1.00  0.00     0.011 A 
HETATM    8  C7  UNL     1      26.737   4.734  49.049  1.00  0.00    -0.034 A 
HETATM    9  C15 UNL     1      28.041   4.552  48.659  1.00  0.00     0.019 A 
BRANCH   8  10
HETATM   10  C8  UNL     1      25.973   3.613  49.584  1.00  0.00     0.030 C 
HETATM   11  C9  UNL     1      26.296   3.021  50.710  1.00  0.00     0.118 C 
BRANCH  11  12
HETATM   12  N2  UNL     1      25.594   1.944  51.261  1.00  0.00    -0.256 NA
HETATM   13  C10 UNL     1      24.926   2.044  52.382  1.00  0.00     0.208 C 
BRANCH  13  14
HETATM   14  N3  UNL     1      24.210   0.925  52.935  1.00  0.00    -0.338 N 
HETATM   15  H9  UNL     1      24.625   0.192  53.561  1.00  0.00     0.168 HD
BRANCH  14  16
HETATM   16  C11 UNL     1      22.831   0.824  52.590  1.00  0.00     0.129 C 
HETATM   17  N4  UNL     1      22.476   0.849  51.370  1.00  0.00    -0.286 NA
HETATM   18  H10 UNL     1      23.136   0.942  50.586  1.00  0.00     0.188 HD
BRANCH  16  19
HETATM   19  C12 UNL     1      21.784   0.700  53.662  1.00  0.00     0.268 C 
HETATM   20  C13 UNL     1      20.469   0.602  53.031  1.00  0.00     0.086 C 
HETATM   21  N5  UNL     1      19.416   0.538  52.530  1.00  0.00    -0.195 NA
HETATM   22  C14 UNL     1      22.012  -0.503  54.485  1.00  0.00     0.086 C 
HETATM   23  N6  UNL     1      22.188  -1.445  55.142  1.00  0.00    -0.195 NA
ENDBRANCH  16  19
ENDBRANCH  14  16
ENDBRANCH  13  14
ENDBRANCH  11  12
ENDBRANCH   8  10
ENDBRANCH   3   4
TORSDOF 6
ENDMDL
