MODEL 1
REMARK VINA RESULT:      -7.0      0.000      0.000
REMARK  3 active torsions:
REMARK  status: ('A' for Active; 'I' for Inactive)
REMARK    1  A    between atoms: C2_2  and  C3_3 
REMARK    2  A    between atoms: C3_3  and  N1_4 
REMARK    3  A    between atoms: N1_4  and  C4_5 
ROOT
HETATM    1  C4  UNL     1      22.970   1.374  52.952  1.00  0.00     0.041 C 
HETATM    2  C5  UNL     1      24.217   1.598  52.871  1.00  0.00     0.101 C 
HETATM    3  C6  UNL     1      25.258   0.690  52.266  1.00  0.00     0.037 C 
HETATM    4  C7  UNL     1      26.379   1.161  51.643  1.00  0.00    -0.004 C 
HETATM    5  C8  UNL     1      26.736   2.581  51.350  1.00  0.00     0.159 C 
HETATM    6  N2  UNL     1      25.723   3.346  50.932  1.00  0.00    -0.318 N 
HETATM    7  C9  UNL     1      25.464   3.932  49.669  1.00  0.00     0.104 C 
HETATM    8  C10 UNL     1      24.421   4.356  50.333  1.00  0.00    -0.014 C 
HETATM    9  C11 UNL     1      23.572   5.225  51.256  1.00  0.00     0.193 C 
HETATM   10  N3  UNL     1      23.790   4.219  52.475  1.00  0.00    -0.246 NA
HETATM   11  C12 UNL     1      24.823   3.610  52.021  1.00  0.00     0.249 C 
HETATM   12  O1  UNL     1      24.795   2.961  53.385  1.00  0.00    -0.276 OA
HETATM   13  C13 UNL     1      23.264   3.270  50.141  1.00  0.00    -0.019 C 
HETATM   14  C14 UNL     1      23.218   2.973  48.800  1.00  0.00     0.059 C 
HETATM   15  S1  UNL     1      22.247   1.884  47.687  1.00  0.00    -0.113 SA
HETATM   16  C15 UNL     1      20.661   1.874  48.603  1.00  0.00     0.047 C 
HETATM   17  C16 UNL     1      21.080   2.135  49.854  1.00  0.00     0.007 C 
HETATM   18  C17 UNL     1      22.169   2.418  50.809  1.00  0.00     0.070 C 
HETATM   19 BR1  UNL     1      21.284   3.482  52.203  1.00  0.00    -0.075 Br
HETATM   20  C18 UNL     1      22.849   1.200  51.417  1.00  0.00     0.090 C 
ENDROOT
BRANCH   1  21
HETATM   21  N1  UNL     1      21.631   1.025  52.980  1.00  0.00    -0.387 N 
HETATM   22  H6  UNL     1      21.651   2.042  52.625  1.00  0.00     0.159 HD
BRANCH  21  23
HETATM   23  C3  UNL     1      20.288   0.674  53.009  1.00  0.00     0.146 C 
BRANCH  23  24
HETATM   24  C2  UNL     1      20.063  -0.669  53.658  1.00  0.00    -0.018 C 
HETATM   25  C1  UNL     1      20.653  -1.700  54.234  1.00  0.00     0.008 C 
ENDBRANCH  23  24
ENDBRANCH  21  23
ENDBRANCH   1  21
TORSDOF 3
ENDMDL
MODEL 2
REMARK VINA RESULT:      -6.6      2.488      5.776
REMARK  3 active torsions:
REMARK  status: ('A' for Active; 'I' for Inactive)
REMARK    1  A    between atoms: C2_2  and  C3_3 
REMARK    2  A    between atoms: C3_3  and  N1_4 
REMARK    3  A    between atoms: N1_4  and  C4_5 
ROOT
HETATM    1  C4  UNL     1      23.576   4.317  48.930  1.00  0.00     0.041 C 
HETATM    2  C5  UNL     1      22.555   3.626  48.626  1.00  0.00     0.101 C 
HETATM    3  C6  UNL     1      22.539   2.336  47.846  1.00  0.00     0.037 C 
HETATM    4  C7  UNL     1      21.620   1.349  48.065  1.00  0.00    -0.004 C 
HETATM    5  C8  UNL     1      20.571   1.294  49.127  1.00  0.00     0.159 C 
HETATM    6  N2  UNL     1      20.963   1.720  50.333  1.00  0.00    -0.318 N 
HETATM    7  C9  UNL     1      21.167   1.015  51.544  1.00  0.00     0.104 C 
HETATM    8  C10 UNL     1      21.465   2.226  51.935  1.00  0.00    -0.014 C 
HETATM    9  C11 UNL     1      21.270   3.653  52.438  1.00  0.00     0.193 C 
HETATM   10  N3  UNL     1      21.367   4.235  50.956  1.00  0.00    -0.246 NA
HETATM   11  C12 UNL     1      21.127   3.148  50.320  1.00  0.00     0.249 C 
HETATM   12  O1  UNL     1      21.139   4.074  49.128  1.00  0.00    -0.276 OA
HETATM   13  C13 UNL     1      23.035   2.424  51.706  1.00  0.00    -0.019 C 
HETATM   14  C14 UNL     1      23.653   1.308  52.216  1.00  0.00     0.059 C 
HETATM   15  S1  UNL     1      25.366   0.674  52.397  1.00  0.00    -0.113 SA
HETATM   16  C15 UNL     1      26.251   2.269  52.555  1.00  0.00     0.047 C 
HETATM   17  C16 UNL     1      25.410   3.099  51.913  1.00  0.00     0.007 C 
HETATM   18  C17 UNL     1      24.157   3.333  51.169  1.00  0.00     0.070 C 
HETATM   19 BR1  UNL     1      23.726   5.204  51.582  1.00  0.00    -0.075 Br
HETATM   20  C18 UNL     1      24.231   3.121  49.664  1.00  0.00     0.090 C 
ENDROOT
BRANCH   1  21
HETATM   21  N1  UNL     1      24.757   4.984  49.206  1.00  0.00    -0.387 N 
HETATM   22  H6  UNL     1      24.367   4.689  50.166  1.00  0.00     0.159 HD
BRANCH  21  23
HETATM   23  C3  UNL     1      25.942   5.653  49.481  1.00  0.00     0.146 C 
BRANCH  23  24
HETATM   24  C2  UNL     1      27.124   5.035  48.777  1.00  0.00    -0.018 C 
HETATM   25  C1  UNL     1      28.370   5.230  48.390  1.00  0.00     0.008 C 
ENDBRANCH  23  24
ENDBRANCH  21  23
ENDBRANCH   1  21
TORSDOF 3
ENDMDL
MODEL 3
REMARK VINA RESULT:      -6.5      2.301      4.613
REMARK  3 active torsions:
REMARK  status: ('A' for Active; 'I' for Inactive)
REMARK    1  A    between atoms: C2_2  and  C3_3 
REMARK    2  A    between atoms: C3_3  and  N1_4 
REMARK    3  A    between atoms: N1_4  and  C4_5 
ROOT
HETATM    1  C4  UNL     1      24.624   2.883  50.346  1.00  0.00     0.041 C 
HETATM    2  C5  UNL     1      23.778   3.324  49.508  1.00  0.00     0.101 C 
HETATM    3  C6  UNL     1      23.115   2.544  48.401  1.00  0.00     0.037 C 
HETATM    4  C7  UNL     1      21.847   2.808  47.966  1.00  0.00    -0.004 C 
HETATM    5  C8  UNL     1      20.871   3.787  48.530  1.00  0.00     0.159 C 
HETATM    6  N2  UNL     1      20.831   3.843  49.865  1.00  0.00    -0.318 N 
HETATM    7  C9  UNL     1      19.826   3.447  50.780  1.00  0.00     0.104 C 
HETATM    8  C10 UNL     1      20.724   3.899  51.615  1.00  0.00    -0.014 C 
HETATM    9  C11 UNL     1      21.526   4.892  52.450  1.00  0.00     0.193 C 
HETATM   10  N3  UNL     1      22.689   4.937  51.358  1.00  0.00    -0.246 NA
HETATM   11  C12 UNL     1      22.022   4.472  50.367  1.00  0.00     0.249 C 
HETATM   12  O1  UNL     1      23.287   4.808  49.613  1.00  0.00    -0.276 OA
HETATM   13  C13 UNL     1      21.664   2.668  52.010  1.00  0.00    -0.019 C 
HETATM   14  C14 UNL     1      20.833   1.617  52.315  1.00  0.00     0.059 C 
HETATM   15  S1  UNL     1      21.001  -0.129  52.856  1.00  0.00    -0.113 SA
HETATM   16  C15 UNL     1      22.559   0.011  53.807  1.00  0.00     0.047 C 
HETATM   17  C16 UNL     1      23.130   1.077  53.219  1.00  0.00     0.007 C 
HETATM   18  C17 UNL     1      23.102   2.153  52.209  1.00  0.00     0.070 C 
HETATM   19 BR1  UNL     1      24.189   3.570  53.026  1.00  0.00    -0.075 Br
HETATM   20  C18 UNL     1      23.646   1.786  50.835  1.00  0.00     0.090 C 
ENDROOT
BRANCH   1  21
HETATM   21  N1  UNL     1      25.534   2.291  51.206  1.00  0.00    -0.387 N 
HETATM   22  H6  UNL     1      24.903   1.488  50.865  1.00  0.00     0.159 HD
BRANCH  21  23
HETATM   23  C3  UNL     1      26.447   1.700  52.068  1.00  0.00     0.146 C 
BRANCH  23  24
HETATM   24  C2  UNL     1      26.535   0.207  51.871  1.00  0.00    -0.018 C 
HETATM   25  C1  UNL     1      26.554  -0.962  52.484  1.00  0.00     0.008 C 
ENDBRANCH  23  24
ENDBRANCH  21  23
ENDBRANCH   1  21
TORSDOF 3
ENDMDL
MODEL 4
REMARK VINA RESULT:      -6.4      7.456      9.619
REMARK  3 active torsions:
REMARK  status: ('A' for Active; 'I' for Inactive)
REMARK    1  A    between atoms: C2_2  and  C3_3 
REMARK    2  A    between atoms: C3_3  and  N1_4 
REMARK    3  A    between atoms: N1_4  and  C4_5 
ROOT
HETATM    1  C4  UNL     1      29.848   6.608  48.632  1.00  0.00     0.041 C 
HETATM    2  C5  UNL     1      31.066   6.949  48.529  1.00  0.00     0.101 C 
HETATM    3  C6  UNL     1      32.033   6.525  47.453  1.00  0.00     0.037 C 
HETATM    4  C7  UNL     1      33.046   7.328  47.009  1.00  0.00    -0.004 C 
HETATM    5  C8  UNL     1      33.327   8.744  47.391  1.00  0.00     0.159 C 
HETATM    6  N2  UNL     1      32.248   9.525  47.504  1.00  0.00    -0.318 N 
HETATM    7  C9  UNL     1      31.803  10.611  46.712  1.00  0.00     0.104 C 
HETATM    8  C10 UNL     1      30.853  10.583  47.609  1.00  0.00    -0.014 C 
HETATM    9  C11 UNL     1      30.121  10.839  48.922  1.00  0.00     0.193 C 
HETATM   10  N3  UNL     1      30.529   9.402  49.481  1.00  0.00    -0.246 NA
HETATM   11  C12 UNL     1      31.503   9.168  48.680  1.00  0.00     0.249 C 
HETATM   12  O1  UNL     1      31.679   7.956  49.563  1.00  0.00    -0.276 OA
HETATM   13  C13 UNL     1      29.706   9.619  47.053  1.00  0.00    -0.019 C 
HETATM   14  C14 UNL     1      29.481   9.984  45.747  1.00  0.00     0.059 C 
HETATM   15  S1  UNL     1      28.389   9.466  44.366  1.00  0.00    -0.113 SA
HETATM   16  C15 UNL     1      26.946   8.891  45.336  1.00  0.00     0.047 C 
HETATM   17  C16 UNL     1      27.529   8.569  46.504  1.00  0.00     0.007 C 
HETATM   18  C17 UNL     1      28.733   8.463  47.351  1.00  0.00     0.070 C 
HETATM   19 BR1  UNL     1      28.027   8.666  49.172  1.00  0.00    -0.075 Br
HETATM   20  C18 UNL     1      29.519   7.165  47.224  1.00  0.00     0.090 C 
ENDROOT
BRANCH   1  21
HETATM   21  N1  UNL     1      28.533   6.173  48.640  1.00  0.00    -0.387 N 
HETATM   22  H6  UNL     1      28.512   7.148  49.097  1.00  0.00     0.159 HD
BRANCH  21  23
HETATM   23  C3  UNL     1      27.216   5.735  48.646  1.00  0.00     0.146 C 
BRANCH  23  24
HETATM   24  C2  UNL     1      27.099   4.283  49.035  1.00  0.00    -0.018 C 
HETATM   25  C1  UNL     1      26.423   3.413  49.762  1.00  0.00     0.008 C 
ENDBRANCH  23  24
ENDBRANCH  21  23
ENDBRANCH   1  21
TORSDOF 3
ENDMDL
MODEL 5
REMARK VINA RESULT:      -6.1      2.784      4.441
REMARK  3 active torsions:
REMARK  status: ('A' for Active; 'I' for Inactive)
REMARK    1  A    between atoms: C2_2  and  C3_3 
REMARK    2  A    between atoms: C3_3  and  N1_4 
REMARK    3  A    between atoms: N1_4  and  C4_5 
ROOT
HETATM    1  C4  UNL     1      25.289   4.508  50.571  1.00  0.00     0.041 C 
HETATM    2  C5  UNL     1      25.554   5.648  50.079  1.00  0.00     0.101 C 
HETATM    3  C6  UNL     1      26.304   5.927  48.801  1.00  0.00     0.037 C 
HETATM    4  C7  UNL     1      26.042   7.010  48.010  1.00  0.00    -0.004 C 
HETATM    5  C8  UNL     1      24.955   8.022  48.173  1.00  0.00     0.159 C 
HETATM    6  N2  UNL     1      23.769   7.525  48.539  1.00  0.00    -0.318 N 
HETATM    7  C9  UNL     1      22.547   7.425  47.830  1.00  0.00     0.104 C 
HETATM    8  C10 UNL     1      22.191   6.894  48.969  1.00  0.00    -0.014 C 
HETATM    9  C11 UNL     1      21.715   6.803  50.416  1.00  0.00     0.193 C 
HETATM   10  N3  UNL     1      23.212   6.638  50.943  1.00  0.00    -0.246 NA
HETATM   11  C12 UNL     1      23.817   7.095  49.909  1.00  0.00     0.249 C 
HETATM   12  O1  UNL     1      25.030   6.941  50.795  1.00  0.00    -0.276 OA
HETATM   13  C13 UNL     1      22.459   5.322  48.864  1.00  0.00    -0.019 C 
HETATM   14  C14 UNL     1      21.939   4.911  47.660  1.00  0.00     0.059 C 
HETATM   15  S1  UNL     1      21.782   3.345  46.717  1.00  0.00    -0.113 SA
HETATM   16  C15 UNL     1      21.680   2.171  48.119  1.00  0.00     0.047 C 
HETATM   17  C16 UNL     1      22.321   2.857  49.081  1.00  0.00     0.007 C 
HETATM   18  C17 UNL     1      23.041   4.063  49.534  1.00  0.00     0.070 C 
HETATM   19 BR1  UNL     1      22.661   4.123  51.460  1.00  0.00    -0.075 Br
HETATM   20  C18 UNL     1      24.543   4.070  49.285  1.00  0.00     0.090 C 
ENDROOT
BRANCH   1  21
HETATM   21  N1  UNL     1      25.054   3.215  51.007  1.00  0.00    -0.387 N 
HETATM   22  H6  UNL     1      24.397   3.836  51.593  1.00  0.00     0.159 HD
BRANCH  21  23
HETATM   23  C3  UNL     1      24.821   1.918  51.444  1.00  0.00     0.146 C 
BRANCH  23  24
HETATM   24  C2  UNL     1      26.097   1.192  51.784  1.00  0.00    -0.018 C 
HETATM   25  C1  UNL     1      26.627   0.014  52.060  1.00  0.00     0.008 C 
ENDBRANCH  23  24
ENDBRANCH  21  23
ENDBRANCH   1  21
TORSDOF 3
ENDMDL
MODEL 6
REMARK VINA RESULT:      -6.0      8.973     11.322
REMARK  3 active torsions:
REMARK  status: ('A' for Active; 'I' for Inactive)
REMARK    1  A    between atoms: C2_2  and  C3_3 
REMARK    2  A    between atoms: C3_3  and  N1_4 
REMARK    3  A    between atoms: N1_4  and  C4_5 
ROOT
HETATM    1  C4  UNL     1      31.251   8.567  49.218  1.00  0.00     0.041 C 
HETATM    2  C5  UNL     1      30.461   9.547  49.382  1.00  0.00     0.101 C 
HETATM    3  C6  UNL     1      30.766  11.003  49.137  1.00  0.00     0.037 C 
HETATM    4  C7  UNL     1      29.823  11.898  48.718  1.00  0.00    -0.004 C 
HETATM    5  C8  UNL     1      28.407  11.622  48.331  1.00  0.00     0.159 C 
HETATM    6  N2  UNL     1      28.222  10.511  47.610  1.00  0.00    -0.318 N 
HETATM    7  C9  UNL     1      27.840  10.338  46.257  1.00  0.00     0.104 C 
HETATM    8  C10 UNL     1      27.960   9.088  46.619  1.00  0.00    -0.014 C 
HETATM    9  C11 UNL     1      27.595   7.733  47.219  1.00  0.00     0.193 C 
HETATM   10  N3  UNL     1      28.365   8.077  48.573  1.00  0.00    -0.246 NA
HETATM   11  C12 UNL     1      28.410   9.350  48.436  1.00  0.00     0.249 C 
HETATM   12  O1  UNL     1      28.982   9.282  49.831  1.00  0.00    -0.276 OA
HETATM   13  C13 UNL     1      29.468   8.651  46.321  1.00  0.00    -0.019 C 
HETATM   14  C14 UNL     1      29.762   9.085  45.050  1.00  0.00     0.059 C 
HETATM   15  S1  UNL     1      31.192   9.039  43.901  1.00  0.00    -0.113 SA
HETATM   16  C15 UNL     1      31.950   7.463  44.445  1.00  0.00     0.047 C 
HETATM   17  C16 UNL     1      31.511   7.386  45.713  1.00  0.00     0.007 C 
HETATM   18  C17 UNL     1      30.735   7.943  46.838  1.00  0.00     0.070 C 
HETATM   19 BR1  UNL     1      30.211   6.350  47.861  1.00  0.00    -0.075 Br
HETATM   20  C18 UNL     1      31.475   8.930  47.729  1.00  0.00     0.090 C 
ENDROOT
BRANCH   1  21
HETATM   21  N1  UNL     1      32.197   7.580  48.999  1.00  0.00    -0.387 N 
HETATM   22  H6  UNL     1      31.253   7.064  49.044  1.00  0.00     0.159 HD
BRANCH  21  23
HETATM   23  C3  UNL     1      33.147   6.592  48.780  1.00  0.00     0.146 C 
BRANCH  23  24
HETATM   24  C2  UNL     1      34.503   7.165  48.453  1.00  0.00    -0.018 C 
HETATM   25  C1  UNL     1      35.172   8.275  48.201  1.00  0.00     0.008 C 
ENDBRANCH  23  24
ENDBRANCH  21  23
ENDBRANCH   1  21
TORSDOF 3
ENDMDL
MODEL 7
REMARK VINA RESULT:      -5.9      7.936     10.307
REMARK  3 active torsions:
REMARK  status: ('A' for Active; 'I' for Inactive)
REMARK    1  A    between atoms: C2_2  and  C3_3 
REMARK    2  A    between atoms: C3_3  and  N1_4 
REMARK    3  A    between atoms: N1_4  and  C4_5 
ROOT
HETATM    1  C4  UNL     1      30.105   6.177  48.566  1.00  0.00     0.041 C 
HETATM    2  C5  UNL     1      31.135   5.484  48.302  1.00  0.00     0.101 C 
HETATM    3  C6  UNL     1      31.280   4.470  47.195  1.00  0.00     0.037 C 
HETATM    4  C7  UNL     1      32.465   4.233  46.558  1.00  0.00    -0.004 C 
HETATM    5  C8  UNL     1      33.760   4.957  46.734  1.00  0.00     0.159 C 
HETATM    6  N2  UNL     1      33.656   6.284  46.856  1.00  0.00    -0.318 N 
HETATM    7  C9  UNL     1      34.048   7.329  45.985  1.00  0.00     0.104 C 
HETATM    8  C10 UNL     1      33.550   8.031  46.968  1.00  0.00    -0.014 C 
HETATM    9  C11 UNL     1      33.471   8.759  48.306  1.00  0.00     0.193 C 
HETATM   10  N3  UNL     1      32.757   7.509  48.994  1.00  0.00    -0.246 NA
HETATM   11  C12 UNL     1      33.091   6.617  48.135  1.00  0.00     0.249 C 
HETATM   12  O1  UNL     1      32.444   5.693  49.138  1.00  0.00    -0.276 OA
HETATM   13  C13 UNL     1      31.999   8.257  46.651  1.00  0.00    -0.019 C 
HETATM   14  C14 UNL     1      31.918   8.658  45.339  1.00  0.00     0.059 C 
HETATM   15  S1  UNL     1      30.605   9.130  44.147  1.00  0.00    -0.113 SA
HETATM   16  C15 UNL     1      29.392   9.843  45.319  1.00  0.00     0.047 C 
HETATM   17  C16 UNL     1      29.716   9.200  46.454  1.00  0.00     0.007 C 
HETATM   18  C17 UNL     1      30.555   8.229  47.184  1.00  0.00     0.070 C 
HETATM   19 BR1  UNL     1      30.533   8.906  49.027  1.00  0.00    -0.075 Br
HETATM   20  C18 UNL     1      30.082   6.782  47.140  1.00  0.00     0.090 C 
ENDROOT
BRANCH   1  21
HETATM   21  N1  UNL     1      28.928   6.880  48.757  1.00  0.00    -0.387 N 
HETATM   22  H6  UNL     1      29.387   7.327  47.892  1.00  0.00     0.159 HD
BRANCH  21  23
HETATM   23  C3  UNL     1      27.747   7.583  48.951  1.00  0.00     0.146 C 
BRANCH  23  24
HETATM   24  C2  UNL     1      26.527   6.723  48.736  1.00  0.00    -0.018 C 
HETATM   25  C1  UNL     1      25.989   5.539  48.966  1.00  0.00     0.008 C 
ENDBRANCH  23  24
ENDBRANCH  21  23
ENDBRANCH   1  21
TORSDOF 3
ENDMDL
MODEL 8
REMARK VINA RESULT:      -5.9      8.067     10.880
REMARK  3 active torsions:
REMARK  status: ('A' for Active; 'I' for Inactive)
REMARK    1  A    between atoms: C2_2  and  C3_3 
REMARK    2  A    between atoms: C3_3  and  N1_4 
REMARK    3  A    between atoms: N1_4  and  C4_5 
ROOT
HETATM    1  C4  UNL     1      32.130   6.797  46.356  1.00  0.00     0.041 C 
HETATM    2  C5  UNL     1      32.094   8.038  46.087  1.00  0.00     0.101 C 
HETATM    3  C6  UNL     1      31.306   8.698  44.984  1.00  0.00     0.037 C 
HETATM    4  C7  UNL     1      30.793   9.960  45.094  1.00  0.00    -0.004 C 
HETATM    5  C8  UNL     1      30.808  10.854  46.290  1.00  0.00     0.159 C 
HETATM    6  N2  UNL     1      30.565  10.245  47.455  1.00  0.00    -0.318 N 
HETATM    7  C9  UNL     1      29.457  10.331  48.333  1.00  0.00     0.104 C 
HETATM    8  C10 UNL     1      30.199   9.480  48.990  1.00  0.00    -0.014 C 
HETATM    9  C11 UNL     1      31.288   8.955  49.920  1.00  0.00     0.193 C 
HETATM   10  N3  UNL     1      32.265   8.675  48.690  1.00  0.00    -0.246 NA
HETATM   11  C12 UNL     1      31.688   9.431  47.829  1.00  0.00     0.249 C 
HETATM   12  O1  UNL     1      32.883   9.049  46.988  1.00  0.00    -0.276 OA
HETATM   13  C13 UNL     1      29.784   8.015  48.501  1.00  0.00    -0.019 C 
HETATM   14  C14 UNL     1      28.411   7.967  48.516  1.00  0.00     0.059 C 
HETATM   15  S1  UNL     1      27.096   6.745  48.133  1.00  0.00    -0.113 SA
HETATM   16  C15 UNL     1      27.994   5.208  48.562  1.00  0.00     0.047 C 
HETATM   17  C16 UNL     1      29.270   5.593  48.387  1.00  0.00     0.007 C 
HETATM   18  C17 UNL     1      30.260   6.628  48.029  1.00  0.00     0.070 C 
HETATM   19 BR1  UNL     1      31.851   6.107  49.056  1.00  0.00    -0.075 Br
HETATM   20  C18 UNL     1      30.593   6.742  46.548  1.00  0.00     0.090 C 
ENDROOT
BRANCH   1  21
HETATM   21  N1  UNL     1      32.088   5.428  46.558  1.00  0.00    -0.387 N 
HETATM   22  H6  UNL     1      31.153   5.801  46.944  1.00  0.00     0.159 HD
BRANCH  21  23
HETATM   23  C3  UNL     1      32.047   4.056  46.760  1.00  0.00     0.146 C 
BRANCH  23  24
HETATM   24  C2  UNL     1      33.426   3.452  46.856  1.00  0.00    -0.018 C 
HETATM   25  C1  UNL     1      34.430   3.180  47.669  1.00  0.00     0.008 C 
ENDBRANCH  23  24
ENDBRANCH  21  23
ENDBRANCH   1  21
TORSDOF 3
ENDMDL
MODEL 9
REMARK VINA RESULT:      -5.8      3.216      6.068
REMARK  3 active torsions:
REMARK  status: ('A' for Active; 'I' for Inactive)
REMARK    1  A    between atoms: C2_2  and  C3_3 
REMARK    2  A    between atoms: C3_3  and  N1_4 
REMARK    3  A    between atoms: N1_4  and  C4_5 
ROOT
HETATM    1  C4  UNL     1      21.912   5.387  48.423  1.00  0.00     0.041 C 
HETATM    2  C5  UNL     1      21.579   4.208  48.755  1.00  0.00     0.101 C 
HETATM    3  C6  UNL     1      21.809   2.948  47.960  1.00  0.00     0.037 C 
HETATM    4  C7  UNL     1      22.029   1.733  48.545  1.00  0.00    -0.004 C 
HETATM    5  C8  UNL     1      22.187   1.432  50.000  1.00  0.00     0.159 C 
HETATM    6  N2  UNL     1      22.915   2.319  50.686  1.00  0.00    -0.318 N 
HETATM    7  C9  UNL     1      24.192   2.204  51.286  1.00  0.00     0.104 C 
HETATM    8  C10 UNL     1      23.908   3.440  51.598  1.00  0.00    -0.014 C 
HETATM    9  C11 UNL     1      23.315   4.621  52.361  1.00  0.00     0.193 C 
HETATM   10  N3  UNL     1      22.092   4.722  51.340  1.00  0.00    -0.246 NA
HETATM   11  C12 UNL     1      22.182   3.546  50.838  1.00  0.00     0.249 C 
HETATM   12  O1  UNL     1      20.904   3.959  50.148  1.00  0.00    -0.276 OA
HETATM   13  C13 UNL     1      24.470   4.366  50.422  1.00  0.00    -0.019 C 
HETATM   14  C14 UNL     1      25.752   3.943  50.163  1.00  0.00     0.059 C 
HETATM   15  S1  UNL     1      27.122   4.392  49.028  1.00  0.00    -0.113 SA
HETATM   16  C15 UNL     1      26.778   6.182  48.853  1.00  0.00     0.047 C 
HETATM   17  C16 UNL     1      25.459   6.222  49.111  1.00  0.00     0.007 C 
HETATM   18  C17 UNL     1      24.199   5.536  49.458  1.00  0.00     0.070 C 
HETATM   19 BR1  UNL     1      23.173   6.922  50.397  1.00  0.00    -0.075 Br
HETATM   20  C18 UNL     1      23.401   4.983  48.285  1.00  0.00     0.090 C 
ENDROOT
BRANCH   1  21
HETATM   21  N1  UNL     1      22.326   6.624  47.958  1.00  0.00    -0.387 N 
HETATM   22  H6  UNL     1      21.283   6.746  48.197  1.00  0.00     0.159 HD
BRANCH  21  23
HETATM   23  C3  UNL     1      22.743   7.864  47.492  1.00  0.00     0.146 C 
BRANCH  23  24
HETATM   24  C2  UNL     1      23.603   7.751  46.259  1.00  0.00    -0.018 C 
HETATM   25  C1  UNL     1      24.661   8.235  45.635  1.00  0.00     0.008 C 
ENDBRANCH  23  24
ENDBRANCH  21  23
ENDBRANCH   1  21
TORSDOF 3
ENDMDL
