MODEL 1
REMARK VINA RESULT:      -8.1      0.000      0.000
REMARK  3 active torsions:
REMARK  status: ('A' for Active; 'I' for Inactive)
REMARK    1  A    between atoms: N1_4  and  C4_5 
REMARK    2  A    between atoms: C9_12  and  N4_13 
REMARK    3  A    between atoms: N4_13  and  C10_14 
ROOT
HETATM    1  C4  UNL     1      24.459  -0.234  54.123  1.00  0.00     0.139 A 
HETATM    2  N2  UNL     1      24.687  -1.110  55.140  1.00  0.00    -0.224 NA
HETATM    3  C5  UNL     1      23.639  -1.773  55.711  1.00  0.00     0.236 A 
HETATM    4  N3  UNL     1      22.367  -1.584  55.294  1.00  0.00    -0.241 NA
HETATM    5  C6  UNL     1      22.066  -0.730  54.291  1.00  0.00     0.073 A 
HETATM    6  C7  UNL     1      23.150  -0.084  53.745  1.00  0.00     0.038 A 
HETATM    7  C8  UNL     1      23.009   0.767  52.750  1.00  0.00     0.039 A 
HETATM    8  C9  UNL     1      21.995   1.391  51.876  1.00  0.00     0.231 A 
HETATM    9  N5  UNL     1      20.664   0.955  52.168  1.00  0.00    -0.272 NA
HETATM   10  C11 UNL     1      20.162   0.141  53.010  1.00  0.00     0.115 A 
HETATM   11  C12 UNL     1      20.770  -0.690  54.037  1.00  0.00     0.051 A 
ENDROOT
BRANCH   1  12
HETATM   12  N1  UNL     1      25.542   0.472  53.534  1.00  0.00    -0.361 N 
HETATM   13  C3  UNL     1      26.341   1.675  53.816  1.00  0.00     0.134 C 
HETATM   14  C2  UNL     1      27.802   1.336  54.028  1.00  0.00     0.044 C 
HETATM   15  C1  UNL     1      28.692   2.419  53.419  1.00  0.00     0.017 C 
HETATM   16  C15 UNL     1      28.159   0.002  53.465  1.00  0.00     0.015 C 
HETATM   17  C14 UNL     1      27.402  -0.699  52.651  1.00  0.00     0.013 C 
HETATM   18 CL1  UNL     1      29.717  -0.611  53.971  1.00  0.00    -0.089 Cl
HETATM   19  C13 UNL     1      26.090  -0.078  52.285  1.00  0.00     0.153 C 
ENDBRANCH   1  12
BRANCH   8  20
HETATM   20  N4  UNL     1      22.299   1.168  50.474  1.00  0.00    -0.342 N 
HETATM   21  H10 UNL     1      23.302   1.171  50.132  1.00  0.00     0.164 HD
BRANCH  20  22
HETATM   22  C10 UNL     1      21.281   0.933  49.480  1.00  0.00     0.350 C 
HETATM   23  O1  UNL     1      21.689   0.941  48.283  1.00  0.00    -0.284 OA
ENDBRANCH  20  22
ENDBRANCH   8  20
TORSDOF 3
ENDMDL
MODEL 2
REMARK VINA RESULT:      -7.7      1.993      2.399
REMARK  3 active torsions:
REMARK  status: ('A' for Active; 'I' for Inactive)
REMARK    1  A    between atoms: N1_4  and  C4_5 
REMARK    2  A    between atoms: C9_12  and  N4_13 
REMARK    3  A    between atoms: N4_13  and  C10_14 
ROOT
HETATM    1  C4  UNL     1      23.964   0.467  53.248  1.00  0.00     0.139 A 
HETATM    2  N2  UNL     1      23.508  -0.788  53.512  1.00  0.00    -0.224 NA
HETATM    3  C5  UNL     1      22.167  -1.045  53.472  1.00  0.00     0.236 A 
HETATM    4  N3  UNL     1      21.268  -0.080  53.176  1.00  0.00    -0.241 NA
HETATM    5  C6  UNL     1      21.648   1.189  52.905  1.00  0.00     0.073 A 
HETATM    6  C7  UNL     1      23.005   1.402  52.955  1.00  0.00     0.038 A 
HETATM    7  C8  UNL     1      23.520   2.587  52.700  1.00  0.00     0.039 A 
HETATM    8  C9  UNL     1      23.155   3.971  52.337  1.00  0.00     0.231 A 
HETATM    9  N5  UNL     1      21.743   4.156  52.201  1.00  0.00    -0.272 NA
HETATM   10  C11 UNL     1      20.733   3.388  52.316  1.00  0.00     0.115 A 
HETATM   11  C12 UNL     1      20.620   1.975  52.642  1.00  0.00     0.051 A 
ENDROOT
BRANCH   1  12
HETATM   12  N1  UNL     1      25.356   0.747  53.304  1.00  0.00    -0.361 N 
HETATM   13  C3  UNL     1      26.372   1.019  54.330  1.00  0.00     0.134 C 
HETATM   14  C2  UNL     1      27.460  -0.037  54.332  1.00  0.00     0.044 C 
HETATM   15  C1  UNL     1      28.819   0.603  54.609  1.00  0.00     0.017 C 
HETATM   16  C15 UNL     1      27.503  -0.802  53.054  1.00  0.00     0.015 C 
HETATM   17  C14 UNL     1      26.878  -0.461  51.949  1.00  0.00     0.013 C 
HETATM   18 CL1  UNL     1      28.480  -2.253  53.106  1.00  0.00    -0.089 Cl
HETATM   19  C13 UNL     1      26.073   0.798  52.020  1.00  0.00     0.153 C 
ENDBRANCH   1  12
BRANCH   8  20
HETATM   20  N4  UNL     1      23.834   4.395  51.126  1.00  0.00    -0.342 N 
HETATM   21  H10 UNL     1      24.082   5.415  50.974  1.00  0.00     0.164 HD
BRANCH  20  22
HETATM   22  C10 UNL     1      24.209   3.480  50.077  1.00  0.00     0.350 C 
HETATM   23  O1  UNL     1      23.309   3.251  49.218  1.00  0.00    -0.284 OA
ENDBRANCH  20  22
ENDBRANCH   8  20
TORSDOF 3
ENDMDL
MODEL 3
REMARK VINA RESULT:      -7.6      2.324      4.029
REMARK  3 active torsions:
REMARK  status: ('A' for Active; 'I' for Inactive)
REMARK    1  A    between atoms: N1_4  and  C4_5 
REMARK    2  A    between atoms: C9_12  and  N4_13 
REMARK    3  A    between atoms: N4_13  and  C10_14 
ROOT
HETATM    1  C4  UNL     1      25.328   1.234  52.219  1.00  0.00     0.139 A 
HETATM    2  N2  UNL     1      26.086   2.233  51.691  1.00  0.00    -0.224 NA
HETATM    3  C5  UNL     1      25.480   3.302  51.096  1.00  0.00     0.236 A 
HETATM    4  N3  UNL     1      24.134   3.399  51.012  1.00  0.00    -0.241 NA
HETATM    5  C6  UNL     1      23.319   2.444  51.514  1.00  0.00     0.073 A 
HETATM    6  C7  UNL     1      23.971   1.388  52.105  1.00  0.00     0.038 A 
HETATM    7  C8  UNL     1      23.303   0.391  52.648  1.00  0.00     0.039 A 
HETATM    8  C9  UNL     1      21.936  -0.107  52.898  1.00  0.00     0.231 A 
HETATM    9  N5  UNL     1      20.924   0.765  52.384  1.00  0.00    -0.272 NA
HETATM   10  C11 UNL     1      20.944   1.880  51.768  1.00  0.00     0.115 A 
HETATM   11  C12 UNL     1      22.042   2.728  51.330  1.00  0.00     0.051 A 
ENDROOT
BRANCH   1  12
HETATM   12  N1  UNL     1      25.951   0.111  52.827  1.00  0.00    -0.361 N 
HETATM   13  C3  UNL     1      26.429  -1.221  52.424  1.00  0.00     0.134 C 
HETATM   14  C2  UNL     1      27.923  -1.363  52.633  1.00  0.00     0.044 C 
HETATM   15  C1  UNL     1      28.258  -2.773  53.119  1.00  0.00     0.017 C 
HETATM   16  C15 UNL     1      28.457  -0.351  53.588  1.00  0.00     0.015 C 
HETATM   17  C14 UNL     1      27.723   0.408  54.371  1.00  0.00     0.013 C 
HETATM   18 CL1  UNL     1      30.202  -0.221  53.614  1.00  0.00    -0.089 Cl
HETATM   19  C13 UNL     1      26.243   0.212  54.266  1.00  0.00     0.153 C 
ENDBRANCH   1  12
BRANCH   8  20
HETATM   20  N4  UNL     1      21.714  -0.353  54.311  1.00  0.00    -0.342 N 
HETATM   21  H10 UNL     1      21.350   0.416  54.943  1.00  0.00     0.164 HD
BRANCH  20  22
HETATM   22  C10 UNL     1      21.967  -1.629  54.933  1.00  0.00     0.350 C 
HETATM   23  O1  UNL     1      22.963  -1.658  55.712  1.00  0.00    -0.284 OA
ENDBRANCH  20  22
ENDBRANCH   8  20
TORSDOF 3
ENDMDL
MODEL 4
REMARK VINA RESULT:      -7.6      3.603      5.425
REMARK  3 active torsions:
REMARK  status: ('A' for Active; 'I' for Inactive)
REMARK    1  A    between atoms: N1_4  and  C4_5 
REMARK    2  A    between atoms: C9_12  and  N4_13 
REMARK    3  A    between atoms: N4_13  and  C10_14 
ROOT
HETATM    1  C4  UNL     1      22.891   1.894  52.410  1.00  0.00     0.139 A 
HETATM    2  N2  UNL     1      21.680   1.428  52.819  1.00  0.00    -0.224 NA
HETATM    3  C5  UNL     1      21.602   0.244  53.496  1.00  0.00     0.236 A 
HETATM    4  N3  UNL     1      22.704  -0.488  53.774  1.00  0.00    -0.241 NA
HETATM    5  C6  UNL     1      23.939  -0.087  53.399  1.00  0.00     0.073 A 
HETATM    6  C7  UNL     1      23.971   1.109  52.721  1.00  0.00     0.038 A 
HETATM    7  C8  UNL     1      25.107   1.630  52.306  1.00  0.00     0.039 A 
HETATM    8  C9  UNL     1      26.564   1.390  52.274  1.00  0.00     0.231 A 
HETATM    9  N5  UNL     1      26.940   0.162  52.905  1.00  0.00    -0.272 NA
HETATM   10  C11 UNL     1      26.296  -0.765  53.495  1.00  0.00     0.115 A 
HETATM   11  C12 UNL     1      24.877  -0.941  53.766  1.00  0.00     0.051 A 
ENDROOT
BRANCH   1  12
HETATM   12  N1  UNL     1      22.979   3.117  51.691  1.00  0.00    -0.361 N 
HETATM   13  C3  UNL     1      23.358   4.513  51.958  1.00  0.00     0.134 C 
HETATM   14  C2  UNL     1      24.552   4.935  51.125  1.00  0.00     0.044 C 
HETATM   15  C1  UNL     1      24.394   6.384  50.668  1.00  0.00     0.017 C 
HETATM   16  C15 UNL     1      24.759   4.045  49.947  1.00  0.00     0.015 C 
HETATM   17  C14 UNL     1      23.889   3.164  49.505  1.00  0.00     0.013 C 
HETATM   18 CL1  UNL     1      26.301   4.245  49.144  1.00  0.00    -0.089 Cl
HETATM   19  C13 UNL     1      22.605   3.078  50.269  1.00  0.00     0.153 C 
ENDBRANCH   1  12
BRANCH   8  20
HETATM   20  N4  UNL     1      27.293   2.498  52.862  1.00  0.00    -0.342 N 
HETATM   21  H10 UNL     1      26.833   3.447  52.978  1.00  0.00     0.164 HD
BRANCH  20  22
HETATM   22  C10 UNL     1      28.657   2.385  53.317  1.00  0.00     0.350 C 
HETATM   23  O1  UNL     1      28.814   2.480  54.568  1.00  0.00    -0.284 OA
ENDBRANCH  20  22
ENDBRANCH   8  20
TORSDOF 3
ENDMDL
MODEL 5
REMARK VINA RESULT:      -7.5      2.610      4.066
REMARK  3 active torsions:
REMARK  status: ('A' for Active; 'I' for Inactive)
REMARK    1  A    between atoms: N1_4  and  C4_5 
REMARK    2  A    between atoms: C9_12  and  N4_13 
REMARK    3  A    between atoms: N4_13  and  C10_14 
ROOT
HETATM    1  C4  UNL     1      24.306   2.580  52.508  1.00  0.00     0.139 A 
HETATM    2  N2  UNL     1      24.085   3.812  51.972  1.00  0.00    -0.224 NA
HETATM    3  C5  UNL     1      22.812   4.202  51.671  1.00  0.00     0.236 A 
HETATM    4  N3  UNL     1      21.751   3.393  51.891  1.00  0.00    -0.241 NA
HETATM    5  C6  UNL     1      21.895   2.158  52.420  1.00  0.00     0.073 A 
HETATM    6  C7  UNL     1      23.193   1.807  52.708  1.00  0.00     0.038 A 
HETATM    7  C8  UNL     1      23.482   0.637  53.240  1.00  0.00     0.039 A 
HETATM    8  C9  UNL     1      22.869  -0.623  53.705  1.00  0.00     0.231 A 
HETATM    9  N5  UNL     1      21.447  -0.644  53.544  1.00  0.00    -0.272 NA
HETATM   10  C11 UNL     1      20.594   0.189  53.095  1.00  0.00     0.115 A 
HETATM   11  C12 UNL     1      20.740   1.532  52.553  1.00  0.00     0.051 A 
ENDROOT
BRANCH   1  12
HETATM   12  N1  UNL     1      25.630   2.160  52.809  1.00  0.00    -0.361 N 
HETATM   13  C3  UNL     1      26.434   1.866  54.004  1.00  0.00     0.134 C 
HETATM   14  C2  UNL     1      26.892   0.421  54.026  1.00  0.00     0.044 C 
HETATM   15  C1  UNL     1      28.309   0.323  54.588  1.00  0.00     0.017 C 
HETATM   16  C15 UNL     1      26.830  -0.209  52.676  1.00  0.00     0.015 C 
HETATM   17  C14 UNL     1      26.662   0.443  51.547  1.00  0.00     0.013 C 
HETATM   18 CL1  UNL     1      27.001  -1.950  52.676  1.00  0.00    -0.089 Cl
HETATM   19  C13 UNL     1      26.527   1.928  51.666  1.00  0.00     0.153 C 
ENDBRANCH   1  12
BRANCH   8  20
HETATM   20  N4  UNL     1      23.220  -0.902  55.085  1.00  0.00    -0.342 N 
HETATM   21  H10 UNL     1      22.582  -0.598  55.877  1.00  0.00     0.164 HD
BRANCH  20  22
HETATM   22  C10 UNL     1      24.427  -1.594  55.463  1.00  0.00     0.350 C 
HETATM   23  O1  UNL     1      25.098  -1.040  56.380  1.00  0.00    -0.284 OA
ENDBRANCH  20  22
ENDBRANCH   8  20
TORSDOF 3
ENDMDL
MODEL 6
REMARK VINA RESULT:      -7.3      4.555      6.353
REMARK  3 active torsions:
REMARK  status: ('A' for Active; 'I' for Inactive)
REMARK    1  A    between atoms: N1_4  and  C4_5 
REMARK    2  A    between atoms: C9_12  and  N4_13 
REMARK    3  A    between atoms: N4_13  and  C10_14 
ROOT
HETATM    1  C4  UNL     1      23.538   3.126  51.731  1.00  0.00     0.139 A 
HETATM    2  N2  UNL     1      22.181   3.073  51.639  1.00  0.00    -0.224 NA
HETATM    3  C5  UNL     1      21.507   2.008  52.165  1.00  0.00     0.236 A 
HETATM    4  N3  UNL     1      22.153   0.993  52.781  1.00  0.00    -0.241 NA
HETATM    5  C6  UNL     1      23.499   0.978  52.908  1.00  0.00     0.073 A 
HETATM    6  C7  UNL     1      24.136   2.069  52.366  1.00  0.00     0.038 A 
HETATM    7  C8  UNL     1      25.446   2.196  52.428  1.00  0.00     0.039 A 
HETATM    8  C9  UNL     1      26.667   1.524  52.916  1.00  0.00     0.231 A 
HETATM    9  N5  UNL     1      26.395   0.276  53.563  1.00  0.00    -0.272 NA
HETATM   10  C11 UNL     1      25.332  -0.377  53.817  1.00  0.00     0.115 A 
HETATM   11  C12 UNL     1      23.931  -0.099  53.539  1.00  0.00     0.051 A 
ENDROOT
BRANCH   1  12
HETATM   12  N1  UNL     1      24.248   4.222  51.172  1.00  0.00    -0.361 N 
HETATM   13  C3  UNL     1      25.411   4.436  50.298  1.00  0.00     0.134 C 
HETATM   14  C2  UNL     1      25.023   5.146  49.017  1.00  0.00     0.044 C 
HETATM   15  C1  UNL     1      26.115   6.132  48.605  1.00  0.00     0.017 C 
HETATM   16  C15 UNL     1      23.715   5.851  49.138  1.00  0.00     0.015 C 
HETATM   17  C14 UNL     1      23.081   6.075  50.268  1.00  0.00     0.013 C 
HETATM   18 CL1  UNL     1      23.034   6.391  47.620  1.00  0.00    -0.089 Cl
HETATM   19  C13 UNL     1      23.756   5.569  51.504  1.00  0.00     0.153 C 
ENDBRANCH   1  12
BRANCH   8  20
HETATM   20  N4  UNL     1      27.428   2.389  53.798  1.00  0.00    -0.342 N 
HETATM   21  H10 UNL     1      26.936   3.007  54.505  1.00  0.00     0.164 HD
BRANCH  20  22
HETATM   22  C10 UNL     1      28.868   2.463  53.772  1.00  0.00     0.350 C 
HETATM   23  O1  UNL     1      29.433   2.294  54.890  1.00  0.00    -0.284 OA
ENDBRANCH  20  22
ENDBRANCH   8  20
TORSDOF 3
ENDMDL
MODEL 7
REMARK VINA RESULT:      -7.3      2.984      5.331
REMARK  3 active torsions:
REMARK  status: ('A' for Active; 'I' for Inactive)
REMARK    1  A    between atoms: N1_4  and  C4_5 
REMARK    2  A    between atoms: C9_12  and  N4_13 
REMARK    3  A    between atoms: N4_13  and  C10_14 
ROOT
HETATM    1  C4  UNL     1      22.292   0.588  53.148  1.00  0.00     0.139 A 
HETATM    2  N2  UNL     1      21.615  -0.124  54.090  1.00  0.00    -0.224 NA
HETATM    3  C5  UNL     1      22.298  -0.950  54.937  1.00  0.00     0.236 A 
HETATM    4  N3  UNL     1      23.642  -1.085  54.867  1.00  0.00    -0.241 NA
HETATM    5  C6  UNL     1      24.379  -0.409  53.956  1.00  0.00     0.073 A 
HETATM    6  C7  UNL     1      23.651   0.410  53.126  1.00  0.00     0.038 A 
HETATM    7  C8  UNL     1      24.239   1.139  52.200  1.00  0.00     0.039 A 
HETATM    8  C9  UNL     1      25.559   1.457  51.620  1.00  0.00     0.231 A 
HETATM    9  N5  UNL     1      26.629   0.744  52.249  1.00  0.00    -0.272 NA
HETATM   10  C11 UNL     1      26.693  -0.097  53.203  1.00  0.00     0.115 A 
HETATM   11  C12 UNL     1      25.668  -0.680  54.054  1.00  0.00     0.051 A 
ENDROOT
BRANCH   1  12
HETATM   12  N1  UNL     1      21.588   1.437  52.253  1.00  0.00    -0.361 N 
HETATM   13  C3  UNL     1      21.464   2.878  51.988  1.00  0.00     0.134 C 
HETATM   14  C2  UNL     1      21.933   3.230  50.591  1.00  0.00     0.044 C 
HETATM   15  C1  UNL     1      21.046   4.322  49.993  1.00  0.00     0.017 C 
HETATM   16  C15 UNL     1      21.962   2.042  49.691  1.00  0.00     0.015 C 
HETATM   17  C14 UNL     1      21.408   0.880  49.958  1.00  0.00     0.013 C 
HETATM   18 CL1  UNL     1      22.815   2.289  48.184  1.00  0.00    -0.089 Cl
HETATM   19  C13 UNL     1      20.704   0.782  51.275  1.00  0.00     0.153 C 
ENDBRANCH   1  12
BRANCH   8  20
HETATM   20  N4  UNL     1      25.820   2.884  51.655  1.00  0.00    -0.342 N 
HETATM   21  H10 UNL     1      25.943   3.388  52.580  1.00  0.00     0.164 HD
BRANCH  20  22
HETATM   22  C10 UNL     1      25.930   3.690  50.464  1.00  0.00     0.350 C 
HETATM   23  O1  UNL     1      27.053   3.641  49.885  1.00  0.00    -0.284 OA
ENDBRANCH  20  22
ENDBRANCH   8  20
TORSDOF 3
ENDMDL
MODEL 8
REMARK VINA RESULT:      -7.1      3.325      4.373
REMARK  3 active torsions:
REMARK  status: ('A' for Active; 'I' for Inactive)
REMARK    1  A    between atoms: N1_4  and  C4_5 
REMARK    2  A    between atoms: C9_12  and  N4_13 
REMARK    3  A    between atoms: N4_13  and  C10_14 
ROOT
HETATM    1  C4  UNL     1      24.042   1.736  52.048  1.00  0.00     0.139 A 
HETATM    2  N2  UNL     1      25.325   1.286  51.979  1.00  0.00    -0.224 NA
HETATM    3  C5  UNL     1      25.681   0.147  52.643  1.00  0.00     0.236 A 
HETATM    4  N3  UNL     1      24.787  -0.556  53.376  1.00  0.00    -0.241 NA
HETATM    5  C6  UNL     1      23.498  -0.167  53.490  1.00  0.00     0.073 A 
HETATM    6  C7  UNL     1      23.184   0.983  52.805  1.00  0.00     0.038 A 
HETATM    7  C8  UNL     1      21.961   1.471  52.815  1.00  0.00     0.039 A 
HETATM    8  C9  UNL     1      20.608   1.235  53.358  1.00  0.00     0.231 A 
HETATM    9  N5  UNL     1      20.535   0.068  54.182  1.00  0.00    -0.272 NA
HETATM   10  C11 UNL     1      21.378  -0.816  54.544  1.00  0.00     0.115 A 
HETATM   11  C12 UNL     1      22.793  -0.987  54.248  1.00  0.00     0.051 A 
ENDROOT
BRANCH   1  12
HETATM   12  N1  UNL     1      23.668   2.929  51.373  1.00  0.00    -0.361 N 
HETATM   13  C3  UNL     1      23.485   4.352  51.695  1.00  0.00     0.134 C 
HETATM   14  C2  UNL     1      24.440   5.229  50.911  1.00  0.00     0.044 C 
HETATM   15  C1  UNL     1      23.749   6.528  50.498  1.00  0.00     0.017 C 
HETATM   16  C15 UNL     1      24.986   4.534  49.711  1.00  0.00     0.015 C 
HETATM   17  C14 UNL     1      24.522   3.408  49.216  1.00  0.00     0.013 C 
HETATM   18 CL1  UNL     1      26.346   5.337  48.958  1.00  0.00    -0.089 Cl
HETATM   19  C13 UNL     1      23.357   2.810  49.940  1.00  0.00     0.153 C 
ENDBRANCH   1  12
BRANCH   8  20
HETATM   20  N4  UNL     1      19.620   1.161  52.297  1.00  0.00    -0.342 N 
HETATM   21  H10 UNL     1      19.112   0.253  52.095  1.00  0.00     0.164 HD
BRANCH  20  22
HETATM   22  C10 UNL     1      19.273   2.290  51.469  1.00  0.00     0.350 C 
HETATM   23  O1  UNL     1      18.743   3.261  52.082  1.00  0.00    -0.284 OA
ENDBRANCH  20  22
ENDBRANCH   8  20
TORSDOF 3
ENDMDL
MODEL 9
REMARK VINA RESULT:      -7.1      3.430      6.034
REMARK  3 active torsions:
REMARK  status: ('A' for Active; 'I' for Inactive)
REMARK    1  A    between atoms: N1_4  and  C4_5 
REMARK    2  A    between atoms: C9_12  and  N4_13 
REMARK    3  A    between atoms: N4_13  and  C10_14 
ROOT
HETATM    1  C4  UNL     1      23.256   0.539  52.831  1.00  0.00     0.139 A 
HETATM    2  N2  UNL     1      22.664  -0.230  53.786  1.00  0.00    -0.224 NA
HETATM    3  C5  UNL     1      23.436  -0.901  54.691  1.00  0.00     0.236 A 
HETATM    4  N3  UNL     1      24.786  -0.826  54.667  1.00  0.00    -0.241 NA
HETATM    5  C6  UNL     1      25.441  -0.083  53.747  1.00  0.00     0.073 A 
HETATM    6  C7  UNL     1      24.626   0.576  52.858  1.00  0.00     0.038 A 
HETATM    7  C8  UNL     1      25.126   1.348  51.915  1.00  0.00     0.039 A 
HETATM    8  C9  UNL     1      26.401   1.844  51.360  1.00  0.00     0.231 A 
HETATM    9  N5  UNL     1      27.545   1.336  52.053  1.00  0.00    -0.272 NA
HETATM   10  C11 UNL     1      27.705   0.556  53.048  1.00  0.00     0.115 A 
HETATM   11  C12 UNL     1      26.752  -0.144  53.896  1.00  0.00     0.051 A 
ENDROOT
BRANCH   1  12
HETATM   12  N1  UNL     1      22.461   1.228  51.877  1.00  0.00    -0.361 N 
HETATM   13  C3  UNL     1      22.097   1.090  50.459  1.00  0.00     0.134 C 
HETATM   14  C2  UNL     1      20.604   0.893  50.283  1.00  0.00     0.044 C 
HETATM   15  C1  UNL     1      20.115   1.633  49.039  1.00  0.00     0.017 C 
HETATM   16  C15 UNL     1      19.834   1.336  51.479  1.00  0.00     0.015 C 
HETATM   17  C14 UNL     1      20.321   2.054  52.467  1.00  0.00     0.013 C 
HETATM   18 CL1  UNL     1      18.161   0.824  51.500  1.00  0.00    -0.089 Cl
HETATM   19  C13 UNL     1      21.763   2.436  52.344  1.00  0.00     0.153 C 
ENDBRANCH   1  12
BRANCH   8  20
HETATM   20  N4  UNL     1      26.436   3.295  51.334  1.00  0.00    -0.342 N 
HETATM   21  H10 UNL     1      26.574   3.848  52.229  1.00  0.00     0.164 HD
BRANCH  20  22
HETATM   22  C10 UNL     1      26.291   4.061  50.121  1.00  0.00     0.350 C 
HETATM   23  O1  UNL     1      27.261   3.976  49.315  1.00  0.00    -0.284 OA
ENDBRANCH  20  22
ENDBRANCH   8  20
TORSDOF 3
ENDMDL
