MODEL 1
REMARK VINA RESULT:      -7.7      0.000      0.000
REMARK  7 active torsions:
REMARK  status: ('A' for Active; 'I' for Inactive)
REMARK    1  A    between atoms: O1_2  and  C2_3 
REMARK    2  A    between atoms: C3_4  and  C4_5 
REMARK    3  A    between atoms: C5_6  and  N1_7 
REMARK    4  A    between atoms: N1_7  and  C6_8 
REMARK    5  A    between atoms: C14_20  and  O2_21 
REMARK    6  A    between atoms: O2_21  and  C15_22 
REMARK    7  A    between atoms: C15_22  and  C16_23 
ROOT
HETATM    1  C4  UNL     1      22.500   0.687  53.039  1.00  0.00     0.040 A 
HETATM    2  C5  UNL     1      21.243   0.546  53.343  1.00  0.00     0.142 A 
HETATM    3  N2  UNL     1      20.669  -0.441  54.188  1.00  0.00    -0.225 NA
HETATM    4  C12 UNL     1      21.377  -1.364  54.787  1.00  0.00     0.209 A 
HETATM    5  N3  UNL     1      22.769  -1.325  54.540  1.00  0.00    -0.348 N 
HETATM    6  C13 UNL     1      23.309  -0.341  53.702  1.00  0.00     0.069 A 
HETATM    7  C14 UNL     1      24.624  -0.397  53.553  1.00  0.00     0.165 C 
HETATM    8  H11 UNL     1      23.350  -2.053  55.008  1.00  0.00     0.167 HD
ENDROOT
BRANCH   2   9
HETATM    9  N1  UNL     1      20.205   1.384  52.864  1.00  0.00    -0.338 N 
HETATM   10  H6  UNL     1      19.847   2.366  53.068  1.00  0.00     0.167 HD
BRANCH   9  11
HETATM   11  C6  UNL     1      19.278   0.985  51.860  1.00  0.00     0.072 A 
HETATM   12  C7  UNL     1      18.378   0.031  52.344  1.00  0.00     0.034 A 
HETATM   13  C8  UNL     1      17.381  -0.508  51.546  1.00  0.00     0.021 A 
HETATM   14  C9  UNL     1      17.234  -0.121  50.227  1.00  0.00     0.014 A 
HETATM   15 BR1  UNL     1      15.899  -0.800  49.049  1.00  0.00    -0.051 Br
HETATM   16  C10 UNL     1      18.142   0.831  49.763  1.00  0.00     0.063 A 
HETATM   17  C11 UNL     1      19.123   1.362  50.548  1.00  0.00     0.144 A 
HETATM   18  F1  UNL     1      20.031   2.282  50.154  1.00  0.00    -0.204 F 
ENDBRANCH   9  11
ENDBRANCH   2   9
BRANCH   1  19
HETATM   19  C3  UNL     1      23.104   1.671  52.191  1.00  0.00     0.041 C 
HETATM   20  C2  UNL     1      23.188   1.753  50.882  1.00  0.00     0.135 C 
BRANCH  20  21
HETATM   21  O1  UNL     1      23.829   2.809  50.256  1.00  0.00    -0.368 OA
HETATM   22  C1  UNL     1      23.450   3.405  49.054  1.00  0.00     0.208 C 
ENDBRANCH  20  21
ENDBRANCH   1  19
BRANCH   7  23
HETATM   23  O2  UNL     1      25.695  -1.158  53.975  1.00  0.00    -0.360 OA
BRANCH  23  24
HETATM   24  C15 UNL     1      26.718  -1.446  53.046  1.00  0.00     0.180 C 
BRANCH  24  25
HETATM   25  C16 UNL     1      27.819  -0.413  53.118  1.00  0.00     0.040 C 
HETATM   26  C17 UNL     1      29.185  -1.017  53.136  1.00  0.00     0.038 C 
HETATM   27  C18 UNL     1      29.976  -0.084  54.006  1.00  0.00     0.272 C 
HETATM   28  N4  UNL     1      29.042   0.848  54.590  1.00  0.00     0.084 N 
HETATM   29  C19 UNL     1      28.993   2.093  53.850  1.00  0.00     0.309 C 
HETATM   30  C20 UNL     1      27.734   0.228  54.487  1.00  0.00     0.278 C 
ENDBRANCH  24  25
ENDBRANCH  23  24
ENDBRANCH   7  23
TORSDOF 7
ENDMDL
MODEL 2
REMARK VINA RESULT:      -7.7      1.538      1.922
REMARK  7 active torsions:
REMARK  status: ('A' for Active; 'I' for Inactive)
REMARK    1  A    between atoms: O1_2  and  C2_3 
REMARK    2  A    between atoms: C3_4  and  C4_5 
REMARK    3  A    between atoms: C5_6  and  N1_7 
REMARK    4  A    between atoms: N1_7  and  C6_8 
REMARK    5  A    between atoms: C14_20  and  O2_21 
REMARK    6  A    between atoms: O2_21  and  C15_22 
REMARK    7  A    between atoms: C15_22  and  C16_23 
ROOT
HETATM    1  C4  UNL     1      22.572   0.939  53.160  1.00  0.00     0.040 A 
HETATM    2  C5  UNL     1      21.304   0.841  53.430  1.00  0.00     0.142 A 
HETATM    3  N2  UNL     1      20.655  -0.202  54.143  1.00  0.00    -0.225 NA
HETATM    4  C12 UNL     1      21.294  -1.233  54.634  1.00  0.00     0.209 A 
HETATM    5  N3  UNL     1      22.691  -1.251  54.410  1.00  0.00    -0.348 N 
HETATM    6  C13 UNL     1      23.305  -0.209  53.703  1.00  0.00     0.069 A 
HETATM    7  C14 UNL     1      24.617  -0.328  53.563  1.00  0.00     0.165 C 
HETATM    8  H11 UNL     1      23.218  -2.064  54.793  1.00  0.00     0.167 HD
ENDROOT
BRANCH   2   9
HETATM    9  N1  UNL     1      20.328   1.794  53.044  1.00  0.00    -0.338 N 
HETATM   10  H6  UNL     1      19.701   2.502  53.533  1.00  0.00     0.167 HD
BRANCH   9  11
HETATM   11  C6  UNL     1      19.924   1.997  51.694  1.00  0.00     0.072 A 
HETATM   12  C7  UNL     1      20.114   3.324  51.297  1.00  0.00     0.034 A 
HETATM   13  C8  UNL     1      19.793   3.762  50.022  1.00  0.00     0.021 A 
HETATM   14  C9  UNL     1      19.265   2.896  49.081  1.00  0.00     0.014 A 
HETATM   15 BR1  UNL     1      18.791   3.397  47.305  1.00  0.00    -0.051 Br
HETATM   16  C10 UNL     1      19.083   1.577  49.497  1.00  0.00     0.063 A 
HETATM   17  C11 UNL     1      19.400   1.147  50.752  1.00  0.00     0.144 A 
HETATM   18  F1  UNL     1      19.242  -0.115  51.211  1.00  0.00    -0.204 F 
ENDBRANCH   9  11
ENDBRANCH   2   9
BRANCH   1  19
HETATM   19  C3  UNL     1      23.251   1.979  52.445  1.00  0.00     0.041 C 
HETATM   20  C2  UNL     1      23.654   2.050  51.195  1.00  0.00     0.135 C 
BRANCH  20  21
HETATM   21  O1  UNL     1      24.303   3.169  50.700  1.00  0.00    -0.368 OA
HETATM   22  C1  UNL     1      24.159   4.476  51.163  1.00  0.00     0.208 C 
ENDBRANCH  20  21
ENDBRANCH   1  19
BRANCH   7  23
HETATM   23  O2  UNL     1      25.631  -1.200  53.903  1.00  0.00    -0.360 OA
BRANCH  23  24
HETATM   24  C15 UNL     1      26.646  -1.449  52.952  1.00  0.00     0.180 C 
BRANCH  24  25
HETATM   25  C16 UNL     1      27.776  -0.455  53.097  1.00  0.00     0.040 C 
HETATM   26  C17 UNL     1      29.123  -1.102  53.099  1.00  0.00     0.038 C 
HETATM   27  C18 UNL     1      29.928  -0.244  54.032  1.00  0.00     0.272 C 
HETATM   28  N4  UNL     1      29.014   0.683  54.654  1.00  0.00     0.084 N 
HETATM   29  C19 UNL     1      29.014   1.968  53.984  1.00  0.00     0.309 C 
HETATM   30  C20 UNL     1      27.690   0.110  54.498  1.00  0.00     0.278 C 
ENDBRANCH  24  25
ENDBRANCH  23  24
ENDBRANCH   7  23
TORSDOF 7
ENDMDL
MODEL 3
REMARK VINA RESULT:      -7.6      3.830      8.670
REMARK  7 active torsions:
REMARK  status: ('A' for Active; 'I' for Inactive)
REMARK    1  A    between atoms: O1_2  and  C2_3 
REMARK    2  A    between atoms: C3_4  and  C4_5 
REMARK    3  A    between atoms: C5_6  and  N1_7 
REMARK    4  A    between atoms: N1_7  and  C6_8 
REMARK    5  A    between atoms: C14_20  and  O2_21 
REMARK    6  A    between atoms: O2_21  and  C15_22 
REMARK    7  A    between atoms: C15_22  and  C16_23 
ROOT
HETATM    1  C4  UNL     1      23.067   1.765  52.036  1.00  0.00     0.040 A 
HETATM    2  C5  UNL     1      23.906   2.734  52.255  1.00  0.00     0.142 A 
HETATM    3  N2  UNL     1      24.044   3.935  51.511  1.00  0.00    -0.225 NA
HETATM    4  C12 UNL     1      23.304   4.217  50.470  1.00  0.00     0.209 A 
HETATM    5  N3  UNL     1      22.342   3.240  50.120  1.00  0.00    -0.348 N 
HETATM    6  C13 UNL     1      22.228   2.063  50.871  1.00  0.00     0.069 A 
HETATM    7  C14 UNL     1      21.288   1.227  50.456  1.00  0.00     0.165 C 
HETATM    8  H11 UNL     1      21.743   3.446  49.293  1.00  0.00     0.167 HD
ENDROOT
BRANCH   2   9
HETATM    9  N1  UNL     1      24.853   2.749  53.310  1.00  0.00    -0.338 N 
HETATM   10  H6  UNL     1      24.959   3.242  54.248  1.00  0.00     0.167 HD
BRANCH   9  11
HETATM   11  C6  UNL     1      26.055   1.987  53.293  1.00  0.00     0.072 A 
HETATM   12  C7  UNL     1      26.084   1.052  54.331  1.00  0.00     0.034 A 
HETATM   13  C8  UNL     1      27.157   0.194  54.518  1.00  0.00     0.021 A 
HETATM   14  C9  UNL     1      28.254   0.230  53.676  1.00  0.00     0.014 A 
HETATM   15 BR1  UNL     1      29.777  -0.903  53.846  1.00  0.00    -0.051 Br
HETATM   16  C10 UNL     1      28.206   1.170  52.647  1.00  0.00     0.063 A 
HETATM   17  C11 UNL     1      27.150   2.014  52.464  1.00  0.00     0.144 A 
HETATM   18  F1  UNL     1      27.051   2.946  51.490  1.00  0.00    -0.204 F 
ENDBRANCH   9  11
ENDBRANCH   2   9
BRANCH   1  19
HETATM   19  C3  UNL     1      22.908   0.545  52.769  1.00  0.00     0.041 C 
HETATM   20  C2  UNL     1      22.215   0.269  53.852  1.00  0.00     0.135 C 
BRANCH  20  21
HETATM   21  O1  UNL     1      22.200  -1.001  54.406  1.00  0.00    -0.368 OA
HETATM   22  C1  UNL     1      23.013  -1.456  55.442  1.00  0.00     0.208 C 
ENDBRANCH  20  21
ENDBRANCH   1  19
BRANCH   7  23
HETATM   23  O2  UNL     1      20.335   1.132  49.463  1.00  0.00    -0.360 OA
BRANCH  23  24
HETATM   24  C15 UNL     1      18.997   1.444  49.789  1.00  0.00     0.180 C 
BRANCH  24  25
HETATM   25  C16 UNL     1      18.339   0.298  50.523  1.00  0.00     0.040 C 
HETATM   26  C17 UNL     1      17.059  -0.141  49.890  1.00  0.00     0.038 C 
HETATM   27  C18 UNL     1      16.212  -0.564  51.055  1.00  0.00     0.272 C 
HETATM   28  N4  UNL     1      16.916  -0.180  52.255  1.00  0.00     0.084 N 
HETATM   29  C19 UNL     1      17.670  -1.285  52.812  1.00  0.00     0.309 C 
HETATM   30  C20 UNL     1      17.868   0.839  51.856  1.00  0.00     0.278 C 
ENDBRANCH  24  25
ENDBRANCH  23  24
ENDBRANCH   7  23
TORSDOF 7
ENDMDL
MODEL 4
REMARK VINA RESULT:      -7.5      6.899      9.334
REMARK  7 active torsions:
REMARK  status: ('A' for Active; 'I' for Inactive)
REMARK    1  A    between atoms: O1_2  and  C2_3 
REMARK    2  A    between atoms: C3_4  and  C4_5 
REMARK    3  A    between atoms: C5_6  and  N1_7 
REMARK    4  A    between atoms: N1_7  and  C6_8 
REMARK    5  A    between atoms: C14_20  and  O2_21 
REMARK    6  A    between atoms: O2_21  and  C15_22 
REMARK    7  A    between atoms: C15_22  and  C16_23 
ROOT
HETATM    1  C4  UNL     1      26.207   6.276  49.364  1.00  0.00     0.040 A 
HETATM    2  C5  UNL     1      25.195   5.549  49.737  1.00  0.00     0.142 A 
HETATM    3  N2  UNL     1      24.110   5.947  50.561  1.00  0.00    -0.225 NA
HETATM    4  C12 UNL     1      24.000   7.151  51.062  1.00  0.00     0.209 A 
HETATM    5  N3  UNL     1      25.042   8.049  50.731  1.00  0.00    -0.348 N 
HETATM    6  C13 UNL     1      26.102   7.630  49.916  1.00  0.00     0.069 A 
HETATM    7  C14 UNL     1      27.013   8.558  49.666  1.00  0.00     0.165 C 
HETATM    8  H11 UNL     1      24.973   9.013  51.121  1.00  0.00     0.167 HD
ENDROOT
BRANCH   2   9
HETATM    9  N1  UNL     1      25.004   4.194  49.368  1.00  0.00    -0.338 N 
HETATM   10  H6  UNL     1      24.806   3.657  48.470  1.00  0.00     0.167 HD
BRANCH   9  11
HETATM   11  C6  UNL     1      25.026   3.119  50.301  1.00  0.00     0.072 A 
HETATM   12  C7  UNL     1      26.335   2.752  50.629  1.00  0.00     0.034 A 
HETATM   13  C8  UNL     1      26.609   1.727  51.521  1.00  0.00     0.021 A 
HETATM   14  C9  UNL     1      25.588   1.017  52.127  1.00  0.00     0.014 A 
HETATM   15 BR1  UNL     1      25.857  -0.408  53.364  1.00  0.00    -0.051 Br
HETATM   16  C10 UNL     1      24.290   1.397  51.786  1.00  0.00     0.063 A 
HETATM   17  C11 UNL     1      24.022   2.406  50.908  1.00  0.00     0.144 A 
HETATM   18  F1  UNL     1      22.788   2.815  50.538  1.00  0.00    -0.204 F 
ENDBRANCH   9  11
ENDBRANCH   2   9
BRANCH   1  19
HETATM   19  C3  UNL     1      27.314   5.900  48.535  1.00  0.00     0.041 C 
HETATM   20  C2  UNL     1      28.403   5.213  48.802  1.00  0.00     0.135 C 
BRANCH  20  21
HETATM   21  O1  UNL     1      29.362   4.960  47.835  1.00  0.00    -0.368 OA
HETATM   22  C1  UNL     1      30.693   5.372  47.869  1.00  0.00     0.208 C 
ENDBRANCH  20  21
ENDBRANCH   1  19
BRANCH   7  23
HETATM   23  O2  UNL     1      27.274   9.879  49.971  1.00  0.00    -0.360 OA
BRANCH  23  24
HETATM   24  C15 UNL     1      27.875  10.687  48.981  1.00  0.00     0.180 C 
BRANCH  24  25
HETATM   25  C16 UNL     1      29.364  10.439  48.913  1.00  0.00     0.040 C 
HETATM   26  C17 UNL     1      30.167  11.699  48.951  1.00  0.00     0.038 C 
HETATM   27  C18 UNL     1      31.350  11.394  48.078  1.00  0.00     0.272 C 
HETATM   28  N4  UNL     1      31.094  10.124  47.442  1.00  0.00     0.084 N 
HETATM   29  C19 UNL     1      31.736   9.032  48.146  1.00  0.00     0.309 C 
HETATM   30  C20 UNL     1      29.661   9.912  47.525  1.00  0.00     0.278 C 
ENDBRANCH  24  25
ENDBRANCH  23  24
ENDBRANCH   7  23
TORSDOF 7
ENDMDL
MODEL 5
REMARK VINA RESULT:      -7.5      4.672      8.964
REMARK  7 active torsions:
REMARK  status: ('A' for Active; 'I' for Inactive)
REMARK    1  A    between atoms: O1_2  and  C2_3 
REMARK    2  A    between atoms: C3_4  and  C4_5 
REMARK    3  A    between atoms: C5_6  and  N1_7 
REMARK    4  A    between atoms: N1_7  and  C6_8 
REMARK    5  A    between atoms: C14_20  and  O2_21 
REMARK    6  A    between atoms: O2_21  and  C15_22 
REMARK    7  A    between atoms: C15_22  and  C16_23 
ROOT
HETATM    1  C4  UNL     1      24.340   3.661  50.744  1.00  0.00     0.040 A 
HETATM    2  C5  UNL     1      24.155   3.180  51.938  1.00  0.00     0.142 A 
HETATM    3  N2  UNL     1      22.936   2.714  52.497  1.00  0.00    -0.225 NA
HETATM    4  C12 UNL     1      21.804   2.715  51.839  1.00  0.00     0.209 A 
HETATM    5  N3  UNL     1      21.865   3.216  50.518  1.00  0.00    -0.348 N 
HETATM    6  C13 UNL     1      23.082   3.670  49.991  1.00  0.00     0.069 A 
HETATM    7  C14 UNL     1      23.019   4.107  48.742  1.00  0.00     0.165 C 
HETATM    8  H11 UNL     1      20.974   3.225  49.977  1.00  0.00     0.167 HD
ENDROOT
BRANCH   2   9
HETATM    9  N1  UNL     1      25.177   3.037  52.910  1.00  0.00    -0.338 N 
HETATM   10  H6  UNL     1      25.562   3.612  53.718  1.00  0.00     0.167 HD
BRANCH   9  11
HETATM   11  C6  UNL     1      26.039   1.906  52.977  1.00  0.00     0.072 A 
HETATM   12  C7  UNL     1      27.342   2.275  53.325  1.00  0.00     0.034 A 
HETATM   13  C8  UNL     1      28.360   1.344  53.452  1.00  0.00     0.021 A 
HETATM   14  C9  UNL     1      28.127  -0.003  53.238  1.00  0.00     0.014 A 
HETATM   15 BR1  UNL     1      29.455  -1.361  53.386  1.00  0.00    -0.051 Br
HETATM   16  C10 UNL     1      26.821  -0.350  52.892  1.00  0.00     0.063 A 
HETATM   17  C11 UNL     1      25.820   0.567  52.767  1.00  0.00     0.144 A 
HETATM   18  F1  UNL     1      24.540   0.290  52.431  1.00  0.00    -0.204 F 
ENDBRANCH   9  11
ENDBRANCH   2   9
BRANCH   1  19
HETATM   19  C3  UNL     1      25.557   4.137  50.156  1.00  0.00     0.041 C 
HETATM   20  C2  UNL     1      26.542   3.497  49.566  1.00  0.00     0.135 C 
BRANCH  20  21
HETATM   21  O1  UNL     1      27.646   4.163  49.060  1.00  0.00    -0.368 OA
HETATM   22  C1  UNL     1      27.653   5.444  48.510  1.00  0.00     0.208 C 
ENDBRANCH  20  21
ENDBRANCH   1  19
BRANCH   7  23
HETATM   23  O2  UNL     1      22.089   4.275  47.737  1.00  0.00    -0.360 OA
BRANCH  23  24
HETATM   24  C15 UNL     1      21.951   3.250  46.775  1.00  0.00     0.180 C 
BRANCH  24  25
HETATM   25  C16 UNL     1      21.716   3.829  45.399  1.00  0.00     0.040 C 
HETATM   26  C17 UNL     1      22.088   5.273  45.303  1.00  0.00     0.038 C 
HETATM   27  C18 UNL     1      21.090   5.835  44.331  1.00  0.00     0.272 C 
HETATM   28  N4  UNL     1      20.113   4.803  44.081  1.00  0.00     0.084 N 
HETATM   29  C19 UNL     1      20.406   4.071  42.865  1.00  0.00     0.309 C 
HETATM   30  C20 UNL     1      20.217   3.870  45.187  1.00  0.00     0.278 C 
ENDBRANCH  24  25
ENDBRANCH  23  24
ENDBRANCH   7  23
TORSDOF 7
ENDMDL
MODEL 6
REMARK VINA RESULT:      -7.5      3.979      8.742
REMARK  7 active torsions:
REMARK  status: ('A' for Active; 'I' for Inactive)
REMARK    1  A    between atoms: O1_2  and  C2_3 
REMARK    2  A    between atoms: C3_4  and  C4_5 
REMARK    3  A    between atoms: C5_6  and  N1_7 
REMARK    4  A    between atoms: N1_7  and  C6_8 
REMARK    5  A    between atoms: C14_20  and  O2_21 
REMARK    6  A    between atoms: O2_21  and  C15_22 
REMARK    7  A    between atoms: C15_22  and  C16_23 
ROOT
HETATM    1  C4  UNL     1      21.668   0.319  52.577  1.00  0.00     0.040 A 
HETATM    2  C5  UNL     1      22.867   0.262  53.078  1.00  0.00     0.142 A 
HETATM    3  N2  UNL     1      23.270  -0.399  54.268  1.00  0.00    -0.225 NA
HETATM    4  C12 UNL     1      22.438  -1.060  55.032  1.00  0.00     0.209 A 
HETATM    5  N3  UNL     1      21.092  -1.078  54.599  1.00  0.00    -0.348 N 
HETATM    6  C13 UNL     1      20.721  -0.416  53.421  1.00  0.00     0.069 A 
HETATM    7  C14 UNL     1      19.437  -0.509  53.111  1.00  0.00     0.165 C 
HETATM    8  H11 UNL     1      20.414  -1.599  55.195  1.00  0.00     0.167 HD
ENDROOT
BRANCH   2   9
HETATM    9  N1  UNL     1      24.007   0.872  52.496  1.00  0.00    -0.338 N 
HETATM   10  H6  UNL     1      24.197   1.579  51.724  1.00  0.00     0.167 HD
BRANCH   9  11
HETATM   11  C6  UNL     1      25.341   0.580  52.898  1.00  0.00     0.072 A 
HETATM   12  C7  UNL     1      25.800  -0.609  52.323  1.00  0.00     0.034 A 
HETATM   13  C8  UNL     1      27.074  -1.099  52.569  1.00  0.00     0.021 A 
HETATM   14  C9  UNL     1      27.950  -0.425  53.400  1.00  0.00     0.014 A 
HETATM   15 BR1  UNL     1      29.717  -1.013  53.802  1.00  0.00    -0.051 Br
HETATM   16  C10 UNL     1      27.472   0.758  53.964  1.00  0.00     0.063 A 
HETATM   17  C11 UNL     1      26.219   1.240  53.722  1.00  0.00     0.144 A 
HETATM   18  F1  UNL     1      25.703   2.375  54.242  1.00  0.00    -0.204 F 
ENDBRANCH   9  11
ENDBRANCH   2   9
BRANCH   1  19
HETATM   19  C3  UNL     1      21.235   0.978  51.381  1.00  0.00     0.041 C 
HETATM   20  C2  UNL     1      21.351   0.641  50.116  1.00  0.00     0.135 C 
BRANCH  20  21
HETATM   21  O1  UNL     1      20.852   1.438  49.099  1.00  0.00    -0.368 OA
HETATM   22  C1  UNL     1      21.540   2.455  48.438  1.00  0.00     0.208 C 
ENDBRANCH  20  21
ENDBRANCH   1  19
BRANCH   7  23
HETATM   23  O2  UNL     1      18.278  -1.074  53.604  1.00  0.00    -0.360 OA
BRANCH  23  24
HETATM   24  C15 UNL     1      17.290  -1.484  52.682  1.00  0.00     0.180 C 
BRANCH  24  25
HETATM   25  C16 UNL     1      16.056  -0.619  52.795  1.00  0.00     0.040 C 
HETATM   26  C17 UNL     1      14.821  -1.299  52.300  1.00  0.00     0.038 C 
HETATM   27  C18 UNL     1      14.012  -0.181  51.706  1.00  0.00     0.272 C 
HETATM   28  N4  UNL     1      14.853   0.993  51.695  1.00  0.00     0.084 N 
HETATM   29  C19 UNL     1      14.599   1.844  52.839  1.00  0.00     0.309 C 
HETATM   30  C20 UNL     1      16.218   0.513  51.803  1.00  0.00     0.278 C 
ENDBRANCH  24  25
ENDBRANCH  23  24
ENDBRANCH   7  23
TORSDOF 7
ENDMDL
MODEL 7
REMARK VINA RESULT:      -7.5      3.311      4.958
REMARK  7 active torsions:
REMARK  status: ('A' for Active; 'I' for Inactive)
REMARK    1  A    between atoms: O1_2  and  C2_3 
REMARK    2  A    between atoms: C3_4  and  C4_5 
REMARK    3  A    between atoms: C5_6  and  N1_7 
REMARK    4  A    between atoms: N1_7  and  C6_8 
REMARK    5  A    between atoms: C14_20  and  O2_21 
REMARK    6  A    between atoms: O2_21  and  C15_22 
REMARK    7  A    between atoms: C15_22  and  C16_23 
ROOT
HETATM    1  C4  UNL     1      22.882   1.930  51.489  1.00  0.00     0.040 A 
HETATM    2  C5  UNL     1      21.789   2.562  51.179  1.00  0.00     0.142 A 
HETATM    3  N2  UNL     1      20.504   2.393  51.760  1.00  0.00    -0.225 NA
HETATM    4  C12 UNL     1      20.266   1.539  52.722  1.00  0.00     0.209 A 
HETATM    5  N3  UNL     1      21.377   0.781  53.159  1.00  0.00    -0.348 N 
HETATM    6  C13 UNL     1      22.634   0.968  52.567  1.00  0.00     0.069 A 
HETATM    7  C14 UNL     1      23.601   0.210  53.063  1.00  0.00     0.165 C 
HETATM    8  H11 UNL     1      21.207   0.095  53.924  1.00  0.00     0.167 HD
ENDROOT
BRANCH   2   9
HETATM    9  N1  UNL     1      21.699   3.559  50.175  1.00  0.00    -0.338 N 
HETATM   10  H6  UNL     1      21.166   3.694  49.264  1.00  0.00     0.167 HD
BRANCH   9  11
HETATM   11  C6  UNL     1      22.456   4.765  50.200  1.00  0.00     0.072 A 
HETATM   12  C7  UNL     1      23.103   4.988  48.981  1.00  0.00     0.034 A 
HETATM   13  C8  UNL     1      23.901   6.101  48.766  1.00  0.00     0.021 A 
HETATM   14  C9  UNL     1      24.092   7.045  49.759  1.00  0.00     0.014 A 
HETATM   15 BR1  UNL     1      25.167   8.606  49.566  1.00  0.00    -0.051 Br
HETATM   16  C10 UNL     1      23.438   6.804  50.967  1.00  0.00     0.063 A 
HETATM   17  C11 UNL     1      22.653   5.708  51.178  1.00  0.00     0.144 A 
HETATM   18  F1  UNL     1      22.000   5.421  52.326  1.00  0.00    -0.204 F 
ENDBRANCH   9  11
ENDBRANCH   2   9
BRANCH   1  19
HETATM   19  C3  UNL     1      24.189   2.082  50.920  1.00  0.00     0.041 C 
HETATM   20  C2  UNL     1      25.198   2.852  51.261  1.00  0.00     0.135 C 
BRANCH  20  21
HETATM   21  O1  UNL     1      26.393   2.842  50.562  1.00  0.00    -0.368 OA
HETATM   22  C1  UNL     1      26.740   3.693  49.513  1.00  0.00     0.208 C 
ENDBRANCH  20  21
ENDBRANCH   1  19
BRANCH   7  23
HETATM   23  O2  UNL     1      23.780  -0.763  54.024  1.00  0.00    -0.360 OA
BRANCH  23  24
HETATM   24  C15 UNL     1      25.005  -0.793  54.726  1.00  0.00     0.180 C 
BRANCH  24  25
HETATM   25  C16 UNL     1      26.108  -0.153  53.913  1.00  0.00     0.040 C 
HETATM   26  C17 UNL     1      26.854  -1.135  53.069  1.00  0.00     0.038 C 
HETATM   27  C18 UNL     1      28.257  -0.601  53.058  1.00  0.00     0.272 C 
HETATM   28  N4  UNL     1      28.307   0.485  54.008  1.00  0.00     0.084 N 
HETATM   29  C19 UNL     1      28.153   1.772  53.360  1.00  0.00     0.309 C 
HETATM   30  C20 UNL     1      27.170   0.302  54.891  1.00  0.00     0.278 C 
ENDBRANCH  24  25
ENDBRANCH  23  24
ENDBRANCH   7  23
TORSDOF 7
ENDMDL
MODEL 8
REMARK VINA RESULT:      -7.4      4.506      8.813
REMARK  7 active torsions:
REMARK  status: ('A' for Active; 'I' for Inactive)
REMARK    1  A    between atoms: O1_2  and  C2_3 
REMARK    2  A    between atoms: C3_4  and  C4_5 
REMARK    3  A    between atoms: C5_6  and  N1_7 
REMARK    4  A    between atoms: N1_7  and  C6_8 
REMARK    5  A    between atoms: C14_20  and  O2_21 
REMARK    6  A    between atoms: O2_21  and  C15_22 
REMARK    7  A    between atoms: C15_22  and  C16_23 
ROOT
HETATM    1  C4  UNL     1      23.926   2.416  51.720  1.00  0.00     0.040 A 
HETATM    2  C5  UNL     1      25.184   2.716  51.858  1.00  0.00     0.142 A 
HETATM    3  N2  UNL     1      26.049   3.262  50.874  1.00  0.00    -0.225 NA
HETATM    4  C12 UNL     1      25.657   3.541  49.656  1.00  0.00     0.209 A 
HETATM    5  N3  UNL     1      24.300   3.261  49.371  1.00  0.00    -0.348 N 
HETATM    6  C13 UNL     1      23.468   2.721  50.361  1.00  0.00     0.069 A 
HETATM    7  C14 UNL     1      22.216   2.510  49.982  1.00  0.00     0.165 C 
HETATM    8  H11 UNL     1      23.969   3.475  48.407  1.00  0.00     0.167 HD
ENDROOT
BRANCH   2   9
HETATM    9  N1  UNL     1      25.921   2.540  53.055  1.00  0.00    -0.338 N 
HETATM   10  H6  UNL     1      25.950   2.990  54.020  1.00  0.00     0.167 HD
BRANCH   9  11
HETATM   11  C6  UNL     1      26.955   1.572  53.203  1.00  0.00     0.072 A 
HETATM   12  C7  UNL     1      26.488   0.281  52.941  1.00  0.00     0.034 A 
HETATM   13  C8  UNL     1      27.315  -0.829  53.021  1.00  0.00     0.021 A 
HETATM   14  C9  UNL     1      28.648  -0.703  53.367  1.00  0.00     0.014 A 
HETATM   15 BR1  UNL     1      29.866  -2.161  53.505  1.00  0.00    -0.051 Br
HETATM   16  C10 UNL     1      29.094   0.594  53.624  1.00  0.00     0.063 A 
HETATM   17  C11 UNL     1      28.280   1.686  53.545  1.00  0.00     0.144 A 
HETATM   18  F1  UNL     1      28.654   2.962  53.786  1.00  0.00    -0.204 F 
ENDBRANCH   9  11
ENDBRANCH   2   9
BRANCH   1  19
HETATM   19  C3  UNL     1      23.032   1.864  52.695  1.00  0.00     0.041 C 
HETATM   20  C2  UNL     1      22.849   0.627  53.100  1.00  0.00     0.135 C 
BRANCH  20  21
HETATM   21  O1  UNL     1      21.914   0.308  54.072  1.00  0.00    -0.368 OA
HETATM   22  C1  UNL     1      21.637  -0.968  54.559  1.00  0.00     0.208 C 
ENDBRANCH  20  21
ENDBRANCH   1  19
BRANCH   7  23
HETATM   23  O2  UNL     1      21.423   2.652  48.862  1.00  0.00    -0.360 OA
BRANCH  23  24
HETATM   24  C15 UNL     1      20.169   3.285  49.007  1.00  0.00     0.180 C 
BRANCH  24  25
HETATM   25  C16 UNL     1      20.331   4.687  49.549  1.00  0.00     0.040 C 
HETATM   26  C17 UNL     1      19.051   5.456  49.565  1.00  0.00     0.038 C 
HETATM   27  C18 UNL     1      19.480   6.868  49.287  1.00  0.00     0.272 C 
HETATM   28  N4  UNL     1      20.880   6.826  48.935  1.00  0.00     0.084 N 
HETATM   29  C19 UNL     1      21.728   7.130  50.069  1.00  0.00     0.309 C 
HETATM   30  C20 UNL     1      21.155   5.457  48.540  1.00  0.00     0.278 C 
ENDBRANCH  24  25
ENDBRANCH  23  24
ENDBRANCH   7  23
TORSDOF 7
ENDMDL
MODEL 9
REMARK VINA RESULT:      -7.4      4.390      8.651
REMARK  7 active torsions:
REMARK  status: ('A' for Active; 'I' for Inactive)
REMARK    1  A    between atoms: O1_2  and  C2_3 
REMARK    2  A    between atoms: C3_4  and  C4_5 
REMARK    3  A    between atoms: C5_6  and  N1_7 
REMARK    4  A    between atoms: N1_7  and  C6_8 
REMARK    5  A    between atoms: C14_20  and  O2_21 
REMARK    6  A    between atoms: O2_21  and  C15_22 
REMARK    7  A    between atoms: C15_22  and  C16_23 
ROOT
HETATM    1  C4  UNL     1      23.065   1.646  51.314  1.00  0.00     0.040 A 
HETATM    2  C5  UNL     1      24.150   2.251  51.700  1.00  0.00     0.142 A 
HETATM    3  N2  UNL     1      24.893   3.223  50.981  1.00  0.00    -0.225 NA
HETATM    4  C12 UNL     1      24.552   3.642  49.789  1.00  0.00     0.209 A 
HETATM    5  N3  UNL     1      23.381   3.061  49.248  1.00  0.00    -0.348 N 
HETATM    6  C13 UNL     1      22.667   2.103  49.979  1.00  0.00     0.069 A 
HETATM    7  C14 UNL     1      21.584   1.636  49.376  1.00  0.00     0.165 C 
HETATM    8  H11 UNL     1      23.093   3.381  48.299  1.00  0.00     0.167 HD
ENDROOT
BRANCH   2   9
HETATM    9  N1  UNL     1      24.788   2.030  52.946  1.00  0.00    -0.338 N 
HETATM   10  H6  UNL     1      24.673   2.375  53.947  1.00  0.00     0.167 HD
BRANCH   9  11
HETATM   11  C6  UNL     1      25.910   1.170  53.109  1.00  0.00     0.072 A 
HETATM   12  C7  UNL     1      27.092   1.896  53.281  1.00  0.00     0.034 A 
HETATM   13  C8  UNL     1      28.318   1.274  53.458  1.00  0.00     0.021 A 
HETATM   14  C9  UNL     1      28.423  -0.105  53.472  1.00  0.00     0.014 A 
HETATM   15 BR1  UNL     1      30.057  -1.057  53.708  1.00  0.00    -0.051 Br
HETATM   16  C10 UNL     1      27.233  -0.812  53.298  1.00  0.00     0.063 A 
HETATM   17  C11 UNL     1      26.027  -0.199  53.123  1.00  0.00     0.144 A 
HETATM   18  F1  UNL     1      24.845  -0.830  52.947  1.00  0.00    -0.204 F 
ENDBRANCH   9  11
ENDBRANCH   2   9
BRANCH   1  19
HETATM   19  C3  UNL     1      22.297   0.663  52.019  1.00  0.00     0.041 C 
HETATM   20  C2  UNL     1      21.488   0.771  53.050  1.00  0.00     0.135 C 
BRANCH  20  21
HETATM   21  O1  UNL     1      20.835  -0.327  53.584  1.00  0.00    -0.368 OA
HETATM   22  C1  UNL     1      21.374  -1.250  54.479  1.00  0.00     0.208 C 
ENDBRANCH  20  21
ENDBRANCH   1  19
BRANCH   7  23
HETATM   23  O2  UNL     1      20.895   1.793  48.190  1.00  0.00    -0.360 OA
BRANCH  23  24
HETATM   24  C15 UNL     1      19.846   2.737  48.146  1.00  0.00     0.180 C 
BRANCH  24  25
HETATM   25  C16 UNL     1      20.170   3.858  47.185  1.00  0.00     0.040 C 
HETATM   26  C17 UNL     1      21.352   3.562  46.322  1.00  0.00     0.038 C 
HETATM   27  C18 UNL     1      21.999   4.904  46.130  1.00  0.00     0.272 C 
HETATM   28  N4  UNL     1      21.324   5.831  47.007  1.00  0.00     0.084 N 
HETATM   29  C19 UNL     1      20.299   6.580  46.310  1.00  0.00     0.309 C 
HETATM   30  C20 UNL     1      20.663   5.024  48.016  1.00  0.00     0.278 C 
ENDBRANCH  24  25
ENDBRANCH  23  24
ENDBRANCH   7  23
TORSDOF 7
ENDMDL
