MODEL 1
REMARK VINA RESULT:      -6.5      0.000      0.000
REMARK  7 active torsions:
REMARK  status: ('A' for Active; 'I' for Inactive)
REMARK    1  A    between atoms: C2_2  and  N1_3 
REMARK    2  A    between atoms: N1_3  and  N2_4 
REMARK    3  A    between atoms: N2_4  and  S1_5 
REMARK    4  A    between atoms: N2_4  and  C3_6 
REMARK    5  A    between atoms: C3_6  and  C4_7 
REMARK    6  A    between atoms: C3_6  and  C10_13 
REMARK    7  A    between atoms: C13_16  and  O1_17 
ROOT
HETATM    1  C3  UNL     1      24.589   2.473  51.904  1.00  0.00     0.158 C 
ENDROOT
BRANCH   1   2
HETATM    2  N2  UNL     1      23.541   1.637  51.376  1.00  0.00    -0.160 NA
BRANCH   2   3
HETATM    3  N1  UNL     1      22.655   2.327  50.556  1.00  0.00    -0.321 N 
HETATM    4  H4  UNL     1      22.178   3.237  50.828  1.00  0.00     0.181 HD
BRANCH   3   5
HETATM    5  C2  UNL     1      22.332   1.826  49.260  1.00  0.00     0.092 C 
HETATM    6  C1  UNL     1      22.740   2.569  48.245  1.00  0.00     0.031 C 
ENDBRANCH   3   5
ENDBRANCH   2   3
BRANCH   2   7
HETATM    7  S1  UNL     1      22.630   1.017  52.756  1.00  0.00    -0.073 SA
HETATM    8  H5  UNL     1      21.398   1.679  52.926  1.00  0.00     0.121 HD
ENDBRANCH   2   7
ENDBRANCH   1   2
BRANCH   1   9
HETATM    9  C4  UNL     1      25.221   3.370  50.936  1.00  0.00    -0.033 A 
HETATM   10  C5  UNL     1      24.803   4.683  50.765  1.00  0.00     0.009 A 
HETATM   11  C6  UNL     1      25.316   5.621  49.892  1.00  0.00     0.001 A 
HETATM   12  C7  UNL     1      26.371   5.193  49.095  1.00  0.00     0.000 A 
HETATM   13  C8  UNL     1      26.834   3.898  49.216  1.00  0.00     0.001 A 
HETATM   14  C9  UNL     1      26.269   3.014  50.116  1.00  0.00     0.009 A 
ENDBRANCH   1   9
BRANCH   1  15
HETATM   15  C10 UNL     1      25.632   1.590  52.486  1.00  0.00    -0.033 A 
HETATM   16  C11 UNL     1      26.016   0.385  51.949  1.00  0.00     0.012 A 
HETATM   17  C12 UNL     1      26.980  -0.438  52.483  1.00  0.00     0.037 A 
HETATM   18  C13 UNL     1      27.624  -0.056  53.638  1.00  0.00     0.068 A 
HETATM   19  C15 UNL     1      27.293   1.140  54.235  1.00  0.00     0.037 A 
HETATM   20  C16 UNL     1      26.319   1.926  53.658  1.00  0.00     0.012 A 
BRANCH  18  21
HETATM   21  O1  UNL     1      28.582  -0.886  54.157  1.00  0.00    -0.356 OA
HETATM   22  C14 UNL     1      29.917  -0.965  53.708  1.00  0.00     0.210 C 
ENDBRANCH  18  21
ENDBRANCH   1  15
TORSDOF 7
ENDMDL
MODEL 2
REMARK VINA RESULT:      -6.5      2.362      3.883
REMARK  7 active torsions:
REMARK  status: ('A' for Active; 'I' for Inactive)
REMARK    1  A    between atoms: C2_2  and  N1_3 
REMARK    2  A    between atoms: N1_3  and  N2_4 
REMARK    3  A    between atoms: N2_4  and  S1_5 
REMARK    4  A    between atoms: N2_4  and  C3_6 
REMARK    5  A    between atoms: C3_6  and  C4_7 
REMARK    6  A    between atoms: C3_6  and  C10_13 
REMARK    7  A    between atoms: C13_16  and  O1_17 
ROOT
HETATM    1  C3  UNL     1      24.425   1.893  51.695  1.00  0.00     0.158 C 
ENDROOT
BRANCH   1   2
HETATM    2  N2  UNL     1      24.478   3.295  52.028  1.00  0.00    -0.160 NA
BRANCH   2   3
HETATM    3  N1  UNL     1      23.257   3.797  52.465  1.00  0.00    -0.321 N 
HETATM    4  H4  UNL     1      22.766   3.479  53.352  1.00  0.00     0.181 HD
BRANCH   3   5
HETATM    5  C2  UNL     1      22.579   4.800  51.712  1.00  0.00     0.092 C 
HETATM    6  C1  UNL     1      21.276   4.623  51.572  1.00  0.00     0.031 C 
ENDBRANCH   3   5
ENDBRANCH   2   3
BRANCH   2   7
HETATM    7  S1  UNL     1      24.923   4.160  50.554  1.00  0.00    -0.073 SA
HETATM    8  H5  UNL     1      24.341   3.592  49.404  1.00  0.00     0.121 HD
ENDBRANCH   2   7
ENDBRANCH   1   2
BRANCH   1   9
HETATM    9  C4  UNL     1      23.176   1.214  52.042  1.00  0.00    -0.033 A 
HETATM   10  C5  UNL     1      22.165   1.010  51.112  1.00  0.00     0.009 A 
HETATM   11  C6  UNL     1      20.951   0.387  51.315  1.00  0.00     0.001 A 
HETATM   12  C7  UNL     1      20.720  -0.085  52.602  1.00  0.00     0.000 A 
HETATM   13  C8  UNL     1      21.686   0.086  53.574  1.00  0.00     0.001 A 
HETATM   14  C9  UNL     1      22.882   0.721  53.294  1.00  0.00     0.009 A 
ENDBRANCH   1   9
BRANCH   1  15
HETATM   15  C10 UNL     1      25.547   1.213  52.392  1.00  0.00    -0.033 A 
HETATM   16  C11 UNL     1      26.110   0.028  51.983  1.00  0.00     0.012 A 
HETATM   17  C12 UNL     1      27.148  -0.607  52.623  1.00  0.00     0.037 A 
HETATM   18  C13 UNL     1      27.683  -0.042  53.758  1.00  0.00     0.068 A 
HETATM   19  C15 UNL     1      27.171   1.147  54.230  1.00  0.00     0.037 A 
HETATM   20  C16 UNL     1      26.130   1.741  53.549  1.00  0.00     0.012 A 
BRANCH  18  21
HETATM   21  O1  UNL     1      28.717  -0.686  54.384  1.00  0.00    -0.356 OA
HETATM   22  C14 UNL     1      29.939  -1.040  53.776  1.00  0.00     0.210 C 
ENDBRANCH  18  21
ENDBRANCH   1  15
TORSDOF 7
ENDMDL
MODEL 3
REMARK VINA RESULT:      -6.4      1.518      2.092
REMARK  7 active torsions:
REMARK  status: ('A' for Active; 'I' for Inactive)
REMARK    1  A    between atoms: C2_2  and  N1_3 
REMARK    2  A    between atoms: N1_3  and  N2_4 
REMARK    3  A    between atoms: N2_4  and  S1_5 
REMARK    4  A    between atoms: N2_4  and  C3_6 
REMARK    5  A    between atoms: C3_6  and  C4_7 
REMARK    6  A    between atoms: C3_6  and  C10_13 
REMARK    7  A    between atoms: C13_16  and  O1_17 
ROOT
HETATM    1  C3  UNL     1      23.799   1.304  53.160  1.00  0.00     0.158 C 
ENDROOT
BRANCH   1   2
HETATM    2  N2  UNL     1      22.845   0.313  52.730  1.00  0.00    -0.160 NA
BRANCH   2   3
HETATM    3  N1  UNL     1      21.745   0.863  52.080  1.00  0.00    -0.321 N 
HETATM    4  H4  UNL     1      21.179   1.681  52.455  1.00  0.00     0.181 HD
BRANCH   3   5
HETATM    5  C2  UNL     1      21.306   0.333  50.831  1.00  0.00     0.092 C 
HETATM    6  C1  UNL     1      21.318   1.183  49.817  1.00  0.00     0.031 C 
ENDBRANCH   3   5
ENDBRANCH   2   3
BRANCH   2   7
HETATM    7  S1  UNL     1      22.262  -0.508  54.181  1.00  0.00    -0.073 SA
HETATM    8  H5  UNL     1      20.932  -0.950  54.048  1.00  0.00     0.121 HD
ENDBRANCH   2   7
ENDBRANCH   1   2
BRANCH   1   9
HETATM    9  C4  UNL     1      23.974   2.440  52.254  1.00  0.00    -0.033 A 
HETATM   10  C5  UNL     1      24.579   2.305  51.011  1.00  0.00     0.009 A 
HETATM   11  C6  UNL     1      24.800   3.293  50.074  1.00  0.00     0.001 A 
HETATM   12  C7  UNL     1      24.366   4.566  50.422  1.00  0.00     0.000 A 
HETATM   13  C8  UNL     1      23.756   4.768  51.644  1.00  0.00     0.001 A 
HETATM   14  C9  UNL     1      23.568   3.726  52.533  1.00  0.00     0.009 A 
ENDBRANCH   1   9
BRANCH   1  15
HETATM   15  C10 UNL     1      25.111   0.631  53.338  1.00  0.00    -0.033 A 
HETATM   16  C11 UNL     1      25.488  -0.519  52.687  1.00  0.00     0.012 A 
HETATM   17  C12 UNL     1      26.700  -1.148  52.848  1.00  0.00     0.037 A 
HETATM   18  C13 UNL     1      27.624  -0.613  53.716  1.00  0.00     0.068 A 
HETATM   19  C15 UNL     1      27.319   0.540  54.406  1.00  0.00     0.037 A 
HETATM   20  C16 UNL     1      26.088   1.129  54.207  1.00  0.00     0.012 A 
BRANCH  18  21
HETATM   21  O1  UNL     1      28.828  -1.250  53.865  1.00  0.00    -0.356 OA
HETATM   22  C14 UNL     1      30.084  -0.697  53.541  1.00  0.00     0.210 C 
ENDBRANCH  18  21
ENDBRANCH   1  15
TORSDOF 7
ENDMDL
MODEL 4
REMARK VINA RESULT:      -6.3      3.167      5.665
REMARK  7 active torsions:
REMARK  status: ('A' for Active; 'I' for Inactive)
REMARK    1  A    between atoms: C2_2  and  N1_3 
REMARK    2  A    between atoms: N1_3  and  N2_4 
REMARK    3  A    between atoms: N2_4  and  S1_5 
REMARK    4  A    between atoms: N2_4  and  C3_6 
REMARK    5  A    between atoms: C3_6  and  C4_7 
REMARK    6  A    between atoms: C3_6  and  C10_13 
REMARK    7  A    between atoms: C13_16  and  O1_17 
ROOT
HETATM    1  C3  UNL     1      24.410   2.406  52.432  1.00  0.00     0.158 C 
ENDROOT
BRANCH   1   2
HETATM    2  N2  UNL     1      24.658   3.182  51.243  1.00  0.00    -0.160 NA
BRANCH   2   3
HETATM    3  N1  UNL     1      26.004   3.473  51.054  1.00  0.00    -0.321 N 
HETATM    4  H4  UNL     1      26.647   3.841  51.816  1.00  0.00     0.181 HD
BRANCH   3   5
HETATM    5  C2  UNL     1      26.610   3.287  49.777  1.00  0.00     0.092 C 
HETATM    6  C1  UNL     1      26.961   4.395  49.146  1.00  0.00     0.031 C 
ENDBRANCH   3   5
ENDBRANCH   2   3
BRANCH   2   7
HETATM    7  S1  UNL     1      23.795   4.711  51.435  1.00  0.00    -0.073 SA
HETATM    8  H5  UNL     1      22.397   4.541  51.431  1.00  0.00     0.121 HD
ENDBRANCH   2   7
ENDBRANCH   1   2
BRANCH   1   9
HETATM    9  C4  UNL     1      25.447   1.432  52.771  1.00  0.00    -0.033 A 
HETATM   10  C5  UNL     1      26.191   1.523  53.940  1.00  0.00     0.009 A 
HETATM   11  C6  UNL     1      27.189   0.672  54.368  1.00  0.00     0.001 A 
HETATM   12  C7  UNL     1      27.478  -0.396  53.527  1.00  0.00     0.000 A 
HETATM   13  C8  UNL     1      26.774  -0.544  52.348  1.00  0.00     0.001 A 
HETATM   14  C9  UNL     1      25.784   0.351  51.985  1.00  0.00     0.009 A 
ENDBRANCH   1   9
BRANCH   1  15
HETATM   15  C10 UNL     1      23.122   1.688  52.252  1.00  0.00    -0.033 A 
HETATM   16  C11 UNL     1      22.351   1.208  53.283  1.00  0.00     0.012 A 
HETATM   17  C12 UNL     1      21.158   0.542  53.123  1.00  0.00     0.037 A 
HETATM   18  C13 UNL     1      20.675   0.326  51.853  1.00  0.00     0.068 A 
HETATM   19  C15 UNL     1      21.393   0.778  50.768  1.00  0.00     0.037 A 
HETATM   20  C16 UNL     1      22.583   1.439  50.985  1.00  0.00     0.012 A 
BRANCH  18  21
HETATM   21  O1  UNL     1      19.485  -0.339  51.710  1.00  0.00    -0.356 OA
HETATM   22  C14 UNL     1      18.580  -0.614  52.756  1.00  0.00     0.210 C 
ENDBRANCH  18  21
ENDBRANCH   1  15
TORSDOF 7
ENDMDL
MODEL 5
REMARK VINA RESULT:      -6.3      2.546      5.474
REMARK  7 active torsions:
REMARK  status: ('A' for Active; 'I' for Inactive)
REMARK    1  A    between atoms: C2_2  and  N1_3 
REMARK    2  A    between atoms: N1_3  and  N2_4 
REMARK    3  A    between atoms: N2_4  and  S1_5 
REMARK    4  A    between atoms: N2_4  and  C3_6 
REMARK    5  A    between atoms: C3_6  and  C4_7 
REMARK    6  A    between atoms: C3_6  and  C10_13 
REMARK    7  A    between atoms: C13_16  and  O1_17 
ROOT
HETATM    1  C3  UNL     1      24.923   1.868  51.185  1.00  0.00     0.158 C 
ENDROOT
BRANCH   1   2
HETATM    2  N2  UNL     1      23.669   2.165  51.830  1.00  0.00    -0.160 NA
BRANCH   2   3
HETATM    3  N1  UNL     1      23.533   1.544  53.066  1.00  0.00    -0.321 N 
HETATM    4  H4  UNL     1      23.993   1.888  53.960  1.00  0.00     0.181 HD
BRANCH   3   5
HETATM    5  C2  UNL     1      22.737   0.367  53.199  1.00  0.00     0.092 C 
HETATM    6  C1  UNL     1      23.314  -0.640  53.834  1.00  0.00     0.031 C 
ENDBRANCH   3   5
ENDBRANCH   2   3
BRANCH   2   7
HETATM    7  S1  UNL     1      22.389   1.557  50.775  1.00  0.00    -0.073 SA
HETATM    8  H5  UNL     1      21.377   0.889  51.491  1.00  0.00     0.121 HD
ENDBRANCH   2   7
ENDBRANCH   1   2
BRANCH   1   9
HETATM    9  C4  UNL     1      25.980   1.376  52.068  1.00  0.00    -0.033 A 
HETATM   10  C5  UNL     1      26.480   0.084  51.972  1.00  0.00     0.009 A 
HETATM   11  C6  UNL     1      27.469  -0.493  52.741  1.00  0.00     0.001 A 
HETATM   12  C7  UNL     1      28.023   0.318  53.724  1.00  0.00     0.000 A 
HETATM   13  C8  UNL     1      27.570   1.614  53.872  1.00  0.00     0.001 A 
HETATM   14  C9  UNL     1      26.573   2.124  53.061  1.00  0.00     0.009 A 
ENDBRANCH   1   9
BRANCH   1  15
HETATM   15  C10 UNL     1      25.399   3.106  50.516  1.00  0.00    -0.033 A 
HETATM   16  C11 UNL     1      24.781   4.329  50.616  1.00  0.00     0.012 A 
HETATM   17  C12 UNL     1      25.216   5.479  50.000  1.00  0.00     0.037 A 
HETATM   18  C13 UNL     1      26.348   5.434  49.219  1.00  0.00     0.068 A 
HETATM   19  C15 UNL     1      27.023   4.243  49.070  1.00  0.00     0.037 A 
HETATM   20  C16 UNL     1      26.543   3.120  49.710  1.00  0.00     0.012 A 
BRANCH  18  21
HETATM   21  O1  UNL     1      26.769   6.588  48.611  1.00  0.00    -0.356 OA
HETATM   22  C14 UNL     1      28.034   6.776  48.017  1.00  0.00     0.210 C 
ENDBRANCH  18  21
ENDBRANCH   1  15
TORSDOF 7
ENDMDL
MODEL 6
REMARK VINA RESULT:      -6.2      2.864      5.705
REMARK  7 active torsions:
REMARK  status: ('A' for Active; 'I' for Inactive)
REMARK    1  A    between atoms: C2_2  and  N1_3 
REMARK    2  A    between atoms: N1_3  and  N2_4 
REMARK    3  A    between atoms: N2_4  and  S1_5 
REMARK    4  A    between atoms: N2_4  and  C3_6 
REMARK    5  A    between atoms: C3_6  and  C4_7 
REMARK    6  A    between atoms: C3_6  and  C10_13 
REMARK    7  A    between atoms: C13_16  and  O1_17 
ROOT
HETATM    1  C3  UNL     1      24.132   0.983  51.955  1.00  0.00     0.158 C 
ENDROOT
BRANCH   1   2
HETATM    2  N2  UNL     1      22.890   0.595  52.575  1.00  0.00    -0.160 NA
BRANCH   2   3
HETATM    3  N1  UNL     1      22.917  -0.699  53.083  1.00  0.00    -0.321 N 
HETATM    4  H4  UNL     1      23.413  -1.513  52.613  1.00  0.00     0.181 HD
BRANCH   3   5
HETATM    5  C2  UNL     1      22.252  -1.008  54.306  1.00  0.00     0.092 C 
HETATM    6  C1  UNL     1      23.043  -1.268  55.334  1.00  0.00     0.031 C 
ENDBRANCH   3   5
ENDBRANCH   2   3
BRANCH   2   7
HETATM    7  S1  UNL     1      21.645   0.660  51.324  1.00  0.00    -0.073 SA
HETATM    8  H5  UNL     1      21.187   1.972  51.093  1.00  0.00     0.121 HD
ENDBRANCH   2   7
ENDBRANCH   1   2
BRANCH   1   9
HETATM    9  C4  UNL     1      25.342   0.610  52.688  1.00  0.00    -0.033 A 
HETATM   10  C5  UNL     1      26.309  -0.222  52.140  1.00  0.00     0.009 A 
HETATM   11  C6  UNL     1      27.484  -0.643  52.727  1.00  0.00     0.001 A 
HETATM   12  C7  UNL     1      27.719  -0.177  54.015  1.00  0.00     0.000 A 
HETATM   13  C8  UNL     1      26.796   0.655  54.617  1.00  0.00     0.001 A 
HETATM   14  C9  UNL     1      25.638   1.035  53.964  1.00  0.00     0.009 A 
ENDBRANCH   1   9
BRANCH   1  15
HETATM   15  C10 UNL     1      24.116   2.458  51.780  1.00  0.00    -0.033 A 
HETATM   16  C11 UNL     1      24.729   3.123  50.745  1.00  0.00     0.012 A 
HETATM   17  C12 UNL     1      24.719   4.488  50.576  1.00  0.00     0.037 A 
HETATM   18  C13 UNL     1      24.056   5.272  51.493  1.00  0.00     0.068 A 
HETATM   19  C15 UNL     1      23.417   4.677  52.558  1.00  0.00     0.037 A 
HETATM   20  C16 UNL     1      23.459   3.305  52.679  1.00  0.00     0.012 A 
BRANCH  18  21
HETATM   21  O1  UNL     1      24.055   6.630  51.312  1.00  0.00    -0.356 OA
HETATM   22  C14 UNL     1      24.928   7.335  50.457  1.00  0.00     0.210 C 
ENDBRANCH  18  21
ENDBRANCH   1  15
TORSDOF 7
ENDMDL
MODEL 7
REMARK VINA RESULT:      -6.2      3.644      5.605
REMARK  7 active torsions:
REMARK  status: ('A' for Active; 'I' for Inactive)
REMARK    1  A    between atoms: C2_2  and  N1_3 
REMARK    2  A    between atoms: N1_3  and  N2_4 
REMARK    3  A    between atoms: N2_4  and  S1_5 
REMARK    4  A    between atoms: N2_4  and  C3_6 
REMARK    5  A    between atoms: C3_6  and  C4_7 
REMARK    6  A    between atoms: C3_6  and  C10_13 
REMARK    7  A    between atoms: C13_16  and  O1_17 
ROOT
HETATM    1  C3  UNL     1      24.331   0.971  52.335  1.00  0.00     0.158 C 
ENDROOT
BRANCH   1   2
HETATM    2  N2  UNL     1      25.148   0.706  53.492  1.00  0.00    -0.160 NA
BRANCH   2   3
HETATM    3  N1  UNL     1      26.085   1.703  53.736  1.00  0.00    -0.321 N 
HETATM    4  H4  UNL     1      25.841   2.724  53.896  1.00  0.00     0.181 HD
BRANCH   3   5
HETATM    5  C2  UNL     1      27.476   1.389  53.786  1.00  0.00     0.092 C 
HETATM    6  C1  UNL     1      28.293   2.373  53.447  1.00  0.00     0.031 C 
ENDBRANCH   3   5
ENDBRANCH   2   3
BRANCH   2   7
HETATM    7  S1  UNL     1      26.024  -0.795  53.174  1.00  0.00    -0.073 SA
HETATM    8  H5  UNL     1      27.277  -0.829  53.815  1.00  0.00     0.121 HD
ENDBRANCH   2   7
ENDBRANCH   1   2
BRANCH   1   9
HETATM    9  C4  UNL     1      24.287   2.369  51.907  1.00  0.00    -0.033 A 
HETATM   10  C5  UNL     1      24.898   2.803  50.738  1.00  0.00     0.009 A 
HETATM   11  C6  UNL     1      24.926   4.086  50.231  1.00  0.00     0.001 A 
HETATM   12  C7  UNL     1      24.265   5.049  50.983  1.00  0.00     0.000 A 
HETATM   13  C8  UNL     1      23.636   4.683  52.157  1.00  0.00     0.001 A 
HETATM   14  C9  UNL     1      23.650   3.374  52.602  1.00  0.00     0.009 A 
ENDBRANCH   1   9
BRANCH   1  15
HETATM   15  C10 UNL     1      22.948   0.520  52.636  1.00  0.00    -0.033 A 
HETATM   16  C11 UNL     1      22.532   0.059  53.861  1.00  0.00     0.012 A 
HETATM   17  C12 UNL     1      21.254  -0.360  54.147  1.00  0.00     0.037 A 
HETATM   18  C13 UNL     1      20.299  -0.327  53.156  1.00  0.00     0.068 A 
HETATM   19  C15 UNL     1      20.641   0.125  51.900  1.00  0.00     0.037 A 
HETATM   20  C16 UNL     1      21.937   0.532  51.668  1.00  0.00     0.012 A 
BRANCH  18  21
HETATM   21  O1  UNL     1      19.030  -0.746  53.456  1.00  0.00    -0.356 OA
HETATM   22  C14 UNL     1      17.950  -0.774  52.549  1.00  0.00     0.210 C 
ENDBRANCH  18  21
ENDBRANCH   1  15
TORSDOF 7
ENDMDL
MODEL 8
REMARK VINA RESULT:      -6.0      3.609      6.351
REMARK  7 active torsions:
REMARK  status: ('A' for Active; 'I' for Inactive)
REMARK    1  A    between atoms: C2_2  and  N1_3 
REMARK    2  A    between atoms: N1_3  and  N2_4 
REMARK    3  A    between atoms: N2_4  and  S1_5 
REMARK    4  A    between atoms: N2_4  and  C3_6 
REMARK    5  A    between atoms: C3_6  and  C4_7 
REMARK    6  A    between atoms: C3_6  and  C10_13 
REMARK    7  A    between atoms: C13_16  and  O1_17 
ROOT
HETATM    1  C3  UNL     1      25.565   0.687  53.806  1.00  0.00     0.158 C 
ENDROOT
BRANCH   1   2
HETATM    2  N2  UNL     1      26.711  -0.026  53.299  1.00  0.00    -0.160 NA
BRANCH   2   3
HETATM    3  N1  UNL     1      26.626  -1.400  53.492  1.00  0.00    -0.321 N 
HETATM    4  H4  UNL     1      26.128  -1.856  54.312  1.00  0.00     0.181 HD
BRANCH   3   5
HETATM    5  C2  UNL     1      27.228  -2.298  52.561  1.00  0.00     0.092 C 
HETATM    6  C1  UNL     1      28.398  -2.794  52.926  1.00  0.00     0.031 C 
ENDBRANCH   3   5
ENDBRANCH   2   3
BRANCH   2   7
HETATM    7  S1  UNL     1      28.120   0.560  54.189  1.00  0.00    -0.073 SA
HETATM    8  H5  UNL     1      28.510   1.851  53.783  1.00  0.00     0.121 HD
ENDBRANCH   2   7
ENDBRANCH   1   2
BRANCH   1   9
HETATM    9  C4  UNL     1      24.367  -0.125  54.019  1.00  0.00    -0.033 A 
HETATM   10  C5  UNL     1      23.414  -0.307  53.026  1.00  0.00     0.009 A 
HETATM   11  C6  UNL     1      22.250  -1.044  53.104  1.00  0.00     0.001 A 
HETATM   12  C7  UNL     1      22.011  -1.672  54.321  1.00  0.00     0.000 A 
HETATM   13  C8  UNL     1      22.921  -1.531  55.350  1.00  0.00     0.001 A 
HETATM   14  C9  UNL     1      24.068  -0.775  55.196  1.00  0.00     0.009 A 
ENDBRANCH   1   9
BRANCH   1  15
HETATM   15  C10 UNL     1      25.240   1.775  52.847  1.00  0.00    -0.033 A 
HETATM   16  C11 UNL     1      25.779   1.886  51.588  1.00  0.00     0.012 A 
HETATM   17  C12 UNL     1      25.483   2.889  50.696  1.00  0.00     0.037 A 
HETATM   18  C13 UNL     1      24.586   3.868  51.060  1.00  0.00     0.068 A 
HETATM   19  C15 UNL     1      24.004   3.824  52.308  1.00  0.00     0.037 A 
HETATM   20  C16 UNL     1      24.337   2.795  53.163  1.00  0.00     0.012 A 
BRANCH  18  21
HETATM   21  O1  UNL     1      24.301   4.861  50.161  1.00  0.00    -0.356 OA
HETATM   22  C14 UNL     1      23.731   4.661  48.886  1.00  0.00     0.210 C 
ENDBRANCH  18  21
ENDBRANCH   1  15
TORSDOF 7
ENDMDL
MODEL 9
REMARK VINA RESULT:      -5.8      3.098      5.503
REMARK  7 active torsions:
REMARK  status: ('A' for Active; 'I' for Inactive)
REMARK    1  A    between atoms: C2_2  and  N1_3 
REMARK    2  A    between atoms: N1_3  and  N2_4 
REMARK    3  A    between atoms: N2_4  and  S1_5 
REMARK    4  A    between atoms: N2_4  and  C3_6 
REMARK    5  A    between atoms: C3_6  and  C4_7 
REMARK    6  A    between atoms: C3_6  and  C10_13 
REMARK    7  A    between atoms: C13_16  and  O1_17 
ROOT
HETATM    1  C3  UNL     1      24.600   1.992  51.490  1.00  0.00     0.158 C 
ENDROOT
BRANCH   1   2
HETATM    2  N2  UNL     1      24.828   2.020  52.912  1.00  0.00    -0.160 NA
BRANCH   2   3
HETATM    3  N1  UNL     1      26.012   2.661  53.260  1.00  0.00    -0.321 N 
HETATM    4  H4  UNL     1      26.165   3.710  53.185  1.00  0.00     0.181 HD
BRANCH   3   5
HETATM    5  C2  UNL     1      27.120   1.912  53.755  1.00  0.00     0.092 C 
HETATM    6  C1  UNL     1      28.309   2.315  53.340  1.00  0.00     0.031 C 
ENDBRANCH   3   5
ENDBRANCH   2   3
BRANCH   2   7
HETATM    7  S1  UNL     1      24.943   0.341  53.451  1.00  0.00    -0.073 SA
HETATM    8  H5  UNL     1      26.156  -0.262  53.066  1.00  0.00     0.121 HD
ENDBRANCH   2   7
ENDBRANCH   1   2
BRANCH   1   9
HETATM    9  C4  UNL     1      25.215   3.084  50.735  1.00  0.00    -0.033 A 
HETATM   10  C5  UNL     1      24.685   4.367  50.731  1.00  0.00     0.009 A 
HETATM   11  C6  UNL     1      25.169   5.473  50.064  1.00  0.00     0.001 A 
HETATM   12  C7  UNL     1      26.320   5.271  49.311  1.00  0.00     0.000 A 
HETATM   13  C8  UNL     1      26.897   4.017  49.273  1.00  0.00     0.001 A 
HETATM   14  C9  UNL     1      26.353   2.955  49.970  1.00  0.00     0.009 A 
ENDBRANCH   1   9
BRANCH   1  15
HETATM   15  C10 UNL     1      23.132   2.021  51.260  1.00  0.00    -0.033 A 
HETATM   16  C11 UNL     1      22.517   1.576  50.114  1.00  0.00     0.012 A 
HETATM   17  C12 UNL     1      21.160   1.600  49.895  1.00  0.00     0.037 A 
HETATM   18  C13 UNL     1      20.331   2.100  50.873  1.00  0.00     0.068 A 
HETATM   19  C15 UNL     1      20.874   2.565  52.050  1.00  0.00     0.037 A 
HETATM   20  C16 UNL     1      22.241   2.517  52.218  1.00  0.00     0.012 A 
BRANCH  18  21
HETATM   21  O1  UNL     1      18.981   2.117  50.639  1.00  0.00    -0.356 OA
HETATM   22  C14 UNL     1      18.015   2.663  51.510  1.00  0.00     0.210 C 
ENDBRANCH  18  21
ENDBRANCH   1  15
TORSDOF 7
ENDMDL
