MODEL 1
REMARK VINA RESULT:      -7.9      0.000      0.000
REMARK  2 active torsions:
REMARK  status: ('A' for Active; 'I' for Inactive)
REMARK    1  A    between atoms: C14_18  and  O2_19 
REMARK    2  A    between atoms: C16_21  and  O3_22 
ROOT
HETATM    1  C1  UNL     1      28.603   0.885  54.530  1.00  0.00     0.210 C 
HETATM    2  O1  UNL     1      27.397   1.026  54.073  1.00  0.00    -0.353 OA
HETATM    3  C2  UNL     1      26.206   1.164  53.621  1.00  0.00     0.104 A 
HETATM    4  C3  UNL     1      25.777   2.386  53.149  1.00  0.00     0.053 A 
HETATM    5  C4  UNL     1      24.470   2.507  52.656  1.00  0.00    -0.001 A 
HETATM    6  C5  UNL     1      23.775   3.630  52.072  1.00  0.00     0.081 A 
HETATM    7  N1  UNL     1      22.580   4.031  52.494  1.00  0.00    -0.240 NA
HETATM    8  C6  UNL     1      21.847   5.025  52.036  1.00  0.00     0.234 A 
HETATM    9  N2  UNL     1      22.379   5.734  50.998  1.00  0.00    -0.241 NA
HETATM   10  C7  UNL     1      23.580   5.375  50.530  1.00  0.00     0.070 A 
HETATM   11  C8  UNL     1      24.040   6.143  49.470  1.00  0.00     0.034 A 
HETATM   12  C9  UNL     1      25.282   5.772  48.971  1.00  0.00     0.026 A 
HETATM   13  C10 UNL     1      26.095   4.744  49.401  1.00  0.00     0.035 A 
HETATM   14 CL1  UNL     1      27.635   4.381  48.688  1.00  0.00    -0.084 Cl
HETATM   15  C11 UNL     1      25.567   4.019  50.468  1.00  0.00     0.040 A 
HETATM   16  C12 UNL     1      24.353   4.321  51.016  1.00  0.00     0.024 A 
HETATM   17  C13 UNL     1      23.645   1.383  52.664  1.00  0.00     0.053 A 
HETATM   18  C14 UNL     1      24.050   0.128  53.139  1.00  0.00     0.104 A 
HETATM   19  C16 UNL     1      25.363   0.044  53.622  1.00  0.00     0.133 A 
ENDROOT
BRANCH  19  20
HETATM   20  O3  UNL     1      25.866  -1.155  54.117  1.00  0.00    -0.356 OA
HETATM   21  H13 UNL     1      26.887  -1.285  54.081  1.00  0.00     0.218 HD
ENDBRANCH  19  20
BRANCH  18  22
HETATM   22  O2  UNL     1      23.273  -1.000  53.165  1.00  0.00    -0.353 OA
HETATM   23  C15 UNL     1      22.220  -1.210  54.058  1.00  0.00     0.210 C 
ENDBRANCH  18  22
TORSDOF 2
ENDMDL
MODEL 2
REMARK VINA RESULT:      -7.7      3.680      6.008
REMARK  2 active torsions:
REMARK  status: ('A' for Active; 'I' for Inactive)
REMARK    1  A    between atoms: C14_18  and  O2_19 
REMARK    2  A    between atoms: C16_21  and  O3_22 
ROOT
HETATM    1  C1  UNL     1      23.939   5.997  51.222  1.00  0.00     0.210 C 
HETATM    2  O1  UNL     1      24.006   4.736  51.524  1.00  0.00    -0.353 OA
HETATM    3  C2  UNL     1      24.073   3.492  51.821  1.00  0.00     0.104 A 
HETATM    4  C3  UNL     1      22.979   2.841  52.348  1.00  0.00     0.053 A 
HETATM    5  C4  UNL     1      23.080   1.478  52.659  1.00  0.00    -0.001 A 
HETATM    6  C5  UNL     1      22.104   0.546  53.175  1.00  0.00     0.081 A 
HETATM    7  N1  UNL     1      22.339  -0.224  54.233  1.00  0.00    -0.240 NA
HETATM    8  C6  UNL     1      21.539  -1.113  54.784  1.00  0.00     0.234 A 
HETATM    9  N2  UNL     1      20.316  -1.266  54.197  1.00  0.00    -0.241 NA
HETATM   10  C7  UNL     1      20.024  -0.518  53.126  1.00  0.00     0.070 A 
HETATM   11  C8  UNL     1      18.766  -0.745  52.589  1.00  0.00     0.034 A 
HETATM   12  C9  UNL     1      18.458   0.021  51.471  1.00  0.00     0.026 A 
HETATM   13  C10 UNL     1      19.248   0.962  50.846  1.00  0.00     0.035 A 
HETATM   14 CL1  UNL     1      18.743   1.857  49.447  1.00  0.00    -0.084 Cl
HETATM   15  C11 UNL     1      20.496   1.135  51.442  1.00  0.00     0.040 A 
HETATM   16  C12 UNL     1      20.874   0.422  52.544  1.00  0.00     0.024 A 
HETATM   17  C13 UNL     1      24.291   0.826  52.426  1.00  0.00     0.053 A 
HETATM   18  C14 UNL     1      25.422   1.459  51.894  1.00  0.00     0.104 A 
HETATM   19  C16 UNL     1      25.283   2.821  51.593  1.00  0.00     0.133 A 
ENDROOT
BRANCH  19  20
HETATM   20  O3  UNL     1      26.345   3.545  51.061  1.00  0.00    -0.356 OA
HETATM   21  H13 UNL     1      27.161   3.697  51.671  1.00  0.00     0.218 HD
ENDBRANCH  19  20
BRANCH  18  22
HETATM   22  O2  UNL     1      26.628   0.858  51.650  1.00  0.00    -0.353 OA
HETATM   23  C15 UNL     1      27.304   0.049  52.567  1.00  0.00     0.210 C 
ENDBRANCH  18  22
TORSDOF 2
ENDMDL
MODEL 3
REMARK VINA RESULT:      -7.6      4.008      6.573
REMARK  2 active torsions:
REMARK  status: ('A' for Active; 'I' for Inactive)
REMARK    1  A    between atoms: C14_18  and  O2_19 
REMARK    2  A    between atoms: C16_21  and  O3_22 
ROOT
HETATM    1  C1  UNL     1      30.594   5.113  47.808  1.00  0.00     0.210 C 
HETATM    2  O1  UNL     1      29.349   5.250  48.152  1.00  0.00    -0.353 OA
HETATM    3  C2  UNL     1      28.122   5.387  48.491  1.00  0.00     0.104 A 
HETATM    4  C3  UNL     1      27.386   4.298  48.905  1.00  0.00     0.053 A 
HETATM    5  C4  UNL     1      26.047   4.478  49.275  1.00  0.00    -0.001 A 
HETATM    6  C5  UNL     1      25.066   3.544  49.776  1.00  0.00     0.081 A 
HETATM    7  N1  UNL     1      23.854   3.422  49.242  1.00  0.00    -0.240 NA
HETATM    8  C6  UNL     1      22.878   2.622  49.616  1.00  0.00     0.234 A 
HETATM    9  N2  UNL     1      23.138   1.817  50.688  1.00  0.00    -0.241 NA
HETATM   10  C7  UNL     1      24.341   1.898  51.268  1.00  0.00     0.070 A 
HETATM   11  C8  UNL     1      24.517   1.052  52.354  1.00  0.00     0.034 A 
HETATM   12  C9  UNL     1      25.759   1.136  52.969  1.00  0.00     0.026 A 
HETATM   13  C10 UNL     1      26.819   1.951  52.630  1.00  0.00     0.035 A 
HETATM   14 CL1  UNL     1      28.329   1.961  53.485  1.00  0.00    -0.084 Cl
HETATM   15  C11 UNL     1      26.568   2.770  51.531  1.00  0.00     0.040 A 
HETATM   16  C12 UNL     1      25.373   2.747  50.870  1.00  0.00     0.024 A 
HETATM   17  C13 UNL     1      25.501   5.760  49.209  1.00  0.00     0.053 A 
HETATM   18  C14 UNL     1      26.220   6.887  48.791  1.00  0.00     0.104 A 
HETATM   19  C16 UNL     1      27.557   6.669  48.431  1.00  0.00     0.133 A 
ENDROOT
BRANCH  19  20
HETATM   20  O3  UNL     1      28.360   7.721  48.002  1.00  0.00    -0.356 OA
HETATM   21  H13 UNL     1      28.585   8.451  48.693  1.00  0.00     0.218 HD
ENDBRANCH  19  20
BRANCH  18  22
HETATM   22  O2  UNL     1      25.724   8.161  48.712  1.00  0.00    -0.353 OA
HETATM   23  C15 UNL     1      25.712   9.069  49.774  1.00  0.00     0.210 C 
ENDBRANCH  18  22
TORSDOF 2
ENDMDL
MODEL 4
REMARK VINA RESULT:      -7.5      3.399      5.984
REMARK  2 active torsions:
REMARK  status: ('A' for Active; 'I' for Inactive)
REMARK    1  A    between atoms: C14_18  and  O2_19 
REMARK    2  A    between atoms: C16_21  and  O3_22 
ROOT
HETATM    1  C1  UNL     1      28.249   5.142  48.339  1.00  0.00     0.210 C 
HETATM    2  O1  UNL     1      27.213   4.894  49.079  1.00  0.00    -0.353 OA
HETATM    3  C2  UNL     1      26.190   4.651  49.811  1.00  0.00     0.104 A 
HETATM    4  C3  UNL     1      26.013   3.404  50.370  1.00  0.00     0.053 A 
HETATM    5  C4  UNL     1      24.887   3.168  51.171  1.00  0.00    -0.001 A 
HETATM    6  C5  UNL     1      24.471   1.995  51.904  1.00  0.00     0.081 A 
HETATM    7  N1  UNL     1      23.254   1.472  51.789  1.00  0.00    -0.240 NA
HETATM    8  C6  UNL     1      22.759   0.422  52.410  1.00  0.00     0.234 A 
HETATM    9  N2  UNL     1      23.597  -0.211  53.282  1.00  0.00    -0.241 NA
HETATM   10  C7  UNL     1      24.835   0.271  53.440  1.00  0.00     0.070 A 
HETATM   11  C8  UNL     1      25.616  -0.427  54.350  1.00  0.00     0.034 A 
HETATM   12  C9  UNL     1      26.900   0.073  54.528  1.00  0.00     0.026 A 
HETATM   13  C10 UNL     1      27.476   1.166  53.914  1.00  0.00     0.035 A 
HETATM   14 CL1  UNL     1      29.101   1.690  54.225  1.00  0.00    -0.084 Cl
HETATM   15  C11 UNL     1      26.633   1.814  53.014  1.00  0.00     0.040 A 
HETATM   16  C12 UNL     1      25.357   1.385  52.781  1.00  0.00     0.024 A 
HETATM   17  C13 UNL     1      23.978   4.207  51.371  1.00  0.00     0.053 A 
HETATM   18  C14 UNL     1      24.128   5.484  50.816  1.00  0.00     0.104 A 
HETATM   19  C16 UNL     1      25.266   5.684  50.023  1.00  0.00     0.133 A 
ENDROOT
BRANCH  19  20
HETATM   20  O3  UNL     1      25.511   6.916  49.424  1.00  0.00    -0.356 OA
HETATM   21  H13 UNL     1      24.924   7.168  48.615  1.00  0.00     0.218 HD
ENDBRANCH  19  20
BRANCH  18  22
HETATM   22  O2  UNL     1      23.261   6.531  50.987  1.00  0.00    -0.353 OA
HETATM   23  C15 UNL     1      21.874   6.436  50.846  1.00  0.00     0.210 C 
ENDBRANCH  18  22
TORSDOF 2
ENDMDL
MODEL 5
REMARK VINA RESULT:      -7.2      7.535     10.283
REMARK  2 active torsions:
REMARK  status: ('A' for Active; 'I' for Inactive)
REMARK    1  A    between atoms: C14_18  and  O2_19 
REMARK    2  A    between atoms: C16_21  and  O3_22 
ROOT
HETATM    1  C1  UNL     1      26.448   4.925  49.096  1.00  0.00     0.210 C 
HETATM    2  O1  UNL     1      27.472   5.559  48.612  1.00  0.00    -0.353 OA
HETATM    3  C2  UNL     1      28.483   6.185  48.134  1.00  0.00     0.104 A 
HETATM    4  C3  UNL     1      29.763   5.758  48.411  1.00  0.00     0.053 A 
HETATM    5  C4  UNL     1      30.850   6.459  47.871  1.00  0.00    -0.001 A 
HETATM    6  C5  UNL     1      32.271   6.221  47.957  1.00  0.00     0.081 A 
HETATM    7  N1  UNL     1      33.135   7.165  48.321  1.00  0.00    -0.240 NA
HETATM    8  C6  UNL     1      34.444   7.073  48.423  1.00  0.00     0.234 A 
HETATM    9  N2  UNL     1      34.987   5.858  48.117  1.00  0.00    -0.241 NA
HETATM   10  C7  UNL     1      34.166   4.870  47.742  1.00  0.00     0.070 A 
HETATM   11  C8  UNL     1      34.801   3.674  47.441  1.00  0.00     0.034 A 
HETATM   12  C9  UNL     1      33.958   2.645  47.041  1.00  0.00     0.026 A 
HETATM   13  C10 UNL     1      32.585   2.677  46.911  1.00  0.00     0.035 A 
HETATM   14 CL1  UNL     1      31.641   1.313  46.400  1.00  0.00    -0.084 Cl
HETATM   15  C11 UNL     1      32.019   3.909  47.231  1.00  0.00     0.040 A 
HETATM   16  C12 UNL     1      32.779   4.970  47.634  1.00  0.00     0.024 A 
HETATM   17  C13 UNL     1      30.596   7.572  47.070  1.00  0.00     0.053 A 
HETATM   18  C14 UNL     1      29.307   8.033  46.771  1.00  0.00     0.104 A 
HETATM   19  C16 UNL     1      28.246   7.306  47.327  1.00  0.00     0.133 A 
ENDROOT
BRANCH  19  20
HETATM   20  O3  UNL     1      26.926   7.679  47.093  1.00  0.00    -0.356 OA
HETATM   21  H13 UNL     1      26.532   7.450  46.169  1.00  0.00     0.218 HD
ENDBRANCH  19  20
BRANCH  18  22
HETATM   22  O2  UNL     1      29.014   9.120  45.990  1.00  0.00    -0.353 OA
HETATM   23  C15 UNL     1      29.059  10.444  46.434  1.00  0.00     0.210 C 
ENDBRANCH  18  22
TORSDOF 2
ENDMDL
MODEL 6
REMARK VINA RESULT:      -7.2      1.722      2.215
REMARK  2 active torsions:
REMARK  status: ('A' for Active; 'I' for Inactive)
REMARK    1  A    between atoms: C14_18  and  O2_19 
REMARK    2  A    between atoms: C16_21  and  O3_22 
ROOT
HETATM    1  C1  UNL     1      30.168   2.480  54.756  1.00  0.00     0.210 C 
HETATM    2  O1  UNL     1      29.067   1.992  54.271  1.00  0.00    -0.353 OA
HETATM    3  C2  UNL     1      27.981   1.510  53.792  1.00  0.00     0.104 A 
HETATM    4  C3  UNL     1      27.020   2.345  53.265  1.00  0.00     0.053 A 
HETATM    5  C4  UNL     1      25.844   1.790  52.743  1.00  0.00    -0.001 A 
HETATM    6  C5  UNL     1      24.705   2.405  52.104  1.00  0.00     0.081 A 
HETATM    7  N1  UNL     1      23.454   2.169  52.487  1.00  0.00    -0.240 NA
HETATM    8  C6  UNL     1      22.342   2.657  51.978  1.00  0.00     0.234 A 
HETATM    9  N2  UNL     1      22.488   3.511  50.923  1.00  0.00    -0.241 NA
HETATM   10  C7  UNL     1      23.725   3.785  50.492  1.00  0.00     0.070 A 
HETATM   11  C8  UNL     1      23.781   4.654  49.412  1.00  0.00     0.034 A 
HETATM   12  C9  UNL     1      25.061   4.937  48.951  1.00  0.00     0.026 A 
HETATM   13  C10 UNL     1      26.260   4.459  49.436  1.00  0.00     0.035 A 
HETATM   14 CL1  UNL     1      27.802   4.892  48.767  1.00  0.00    -0.084 Cl
HETATM   15  C11 UNL     1      26.124   3.593  50.519  1.00  0.00     0.040 A 
HETATM   16  C12 UNL     1      24.901   3.267  51.033  1.00  0.00     0.024 A 
HETATM   17  C13 UNL     1      25.685   0.405  52.779  1.00  0.00     0.053 A 
HETATM   18  C14 UNL     1      26.641  -0.471  53.310  1.00  0.00     0.104 A 
HETATM   19  C16 UNL     1      27.805   0.120  53.820  1.00  0.00     0.133 A 
ENDROOT
BRANCH  19  20
HETATM   20  O3  UNL     1      28.818  -0.660  54.370  1.00  0.00    -0.356 OA
HETATM   21  H13 UNL     1      29.646  -0.164  54.731  1.00  0.00     0.218 HD
ENDBRANCH  19  20
BRANCH  18  22
HETATM   22  O2  UNL     1      26.525  -1.835  53.364  1.00  0.00    -0.353 OA
HETATM   23  C15 UNL     1      27.014  -2.706  52.387  1.00  0.00     0.210 C 
ENDBRANCH  18  22
TORSDOF 2
ENDMDL
MODEL 7
REMARK VINA RESULT:      -7.2      3.641      6.290
REMARK  2 active torsions:
REMARK  status: ('A' for Active; 'I' for Inactive)
REMARK    1  A    between atoms: C14_18  and  O2_19 
REMARK    2  A    between atoms: C16_21  and  O3_22 
ROOT
HETATM    1  C1  UNL     1      26.698   3.153  49.714  1.00  0.00     0.210 C 
HETATM    2  O1  UNL     1      25.513   3.279  50.231  1.00  0.00    -0.353 OA
HETATM    3  C2  UNL     1      24.345   3.405  50.741  1.00  0.00     0.104 A 
HETATM    4  C3  UNL     1      23.589   2.291  51.035  1.00  0.00     0.053 A 
HETATM    5  C4  UNL     1      22.316   2.458  51.597  1.00  0.00    -0.001 A 
HETATM    6  C5  UNL     1      21.337   1.491  52.036  1.00  0.00     0.081 A 
HETATM    7  N1  UNL     1      20.067   1.529  51.644  1.00  0.00    -0.240 NA
HETATM    8  C6  UNL     1      19.087   0.718  51.984  1.00  0.00     0.234 A 
HETATM    9  N2  UNL     1      19.412  -0.289  52.847  1.00  0.00    -0.241 NA
HETATM   10  C7  UNL     1      20.676  -0.376  53.277  1.00  0.00     0.070 A 
HETATM   11  C8  UNL     1      20.916  -1.421  54.157  1.00  0.00     0.034 A 
HETATM   12  C9  UNL     1      22.224  -1.514  54.616  1.00  0.00     0.026 A 
HETATM   13  C10 UNL     1      23.291  -0.698  54.303  1.00  0.00     0.035 A 
HETATM   14 CL1  UNL     1      24.887  -0.922  54.949  1.00  0.00    -0.084 Cl
HETATM   15  C11 UNL     1      22.974   0.327  53.415  1.00  0.00     0.040 A 
HETATM   16  C12 UNL     1      21.712   0.485  52.916  1.00  0.00     0.024 A 
HETATM   17  C13 UNL     1      21.855   3.752  51.838  1.00  0.00     0.053 A 
HETATM   18  C14 UNL     1      22.598   4.904  51.549  1.00  0.00     0.104 A 
HETATM   19  C16 UNL     1      23.866   4.699  50.990  1.00  0.00     0.133 A 
ENDROOT
BRANCH  19  20
HETATM   20  O3  UNL     1      24.686   5.775  50.665  1.00  0.00    -0.356 OA
HETATM   21  H13 UNL     1      24.264   6.714  50.707  1.00  0.00     0.218 HD
ENDBRANCH  19  20
BRANCH  18  22
HETATM   22  O2  UNL     1      22.185   6.191  51.769  1.00  0.00    -0.353 OA
HETATM   23  C15 UNL     1      21.493   6.967  50.835  1.00  0.00     0.210 C 
ENDBRANCH  18  22
TORSDOF 2
ENDMDL
MODEL 8
REMARK VINA RESULT:      -6.8      4.221      6.810
REMARK  2 active torsions:
REMARK  status: ('A' for Active; 'I' for Inactive)
REMARK    1  A    between atoms: C14_18  and  O2_19 
REMARK    2  A    between atoms: C16_21  and  O3_22 
ROOT
HETATM    1  C1  UNL     1      18.162   3.608  51.574  1.00  0.00     0.210 C 
HETATM    2  O1  UNL     1      19.294   3.343  50.998  1.00  0.00    -0.353 OA
HETATM    3  C2  UNL     1      20.411   3.081  50.428  1.00  0.00     0.104 A 
HETATM    4  C3  UNL     1      21.549   2.882  51.181  1.00  0.00     0.053 A 
HETATM    5  C4  UNL     1      22.756   2.592  50.531  1.00  0.00    -0.001 A 
HETATM    6  C5  UNL     1      24.071   2.303  51.054  1.00  0.00     0.081 A 
HETATM    7  N1  UNL     1      25.162   2.939  50.639  1.00  0.00    -0.240 NA
HETATM    8  C6  UNL     1      26.407   2.756  51.029  1.00  0.00     0.234 A 
HETATM    9  N2  UNL     1      26.605   1.793  51.975  1.00  0.00    -0.241 NA
HETATM   10  C7  UNL     1      25.542   1.118  52.429  1.00  0.00     0.070 A 
HETATM   11  C8  UNL     1      25.835   0.152  53.381  1.00  0.00     0.034 A 
HETATM   12  C9  UNL     1      24.739  -0.560  53.851  1.00  0.00     0.026 A 
HETATM   13  C10 UNL     1      23.417  -0.420  53.484  1.00  0.00     0.035 A 
HETATM   14 CL1  UNL     1      22.133  -1.379  54.151  1.00  0.00    -0.084 Cl
HETATM   15  C11 UNL     1      23.201   0.568  52.526  1.00  0.00     0.040 A 
HETATM   16  C12 UNL     1      24.225   1.313  52.014  1.00  0.00     0.024 A 
HETATM   17  C13 UNL     1      22.765   2.518  49.138  1.00  0.00     0.053 A 
HETATM   18  C14 UNL     1      21.628   2.716  48.344  1.00  0.00     0.104 A 
HETATM   19  C16 UNL     1      20.439   3.002  49.029  1.00  0.00     0.133 A 
ENDROOT
BRANCH  19  20
HETATM   20  O3  UNL     1      19.251   3.217  48.336  1.00  0.00    -0.356 OA
HETATM   21  H13 UNL     1      19.235   3.999  47.666  1.00  0.00     0.218 HD
ENDBRANCH  19  20
BRANCH  18  22
HETATM   22  O2  UNL     1      21.593   2.652  46.977  1.00  0.00    -0.353 OA
HETATM   23  C15 UNL     1      21.850   3.734  46.131  1.00  0.00     0.210 C 
ENDBRANCH  18  22
TORSDOF 2
ENDMDL
MODEL 9
REMARK VINA RESULT:      -6.7      4.259      6.879
REMARK  2 active torsions:
REMARK  status: ('A' for Active; 'I' for Inactive)
REMARK    1  A    between atoms: C14_18  and  O2_19 
REMARK    2  A    between atoms: C16_21  and  O3_22 
ROOT
HETATM    1  C1  UNL     1      25.159   9.150  48.089  1.00  0.00     0.210 C 
HETATM    2  O1  UNL     1      25.613   7.969  48.378  1.00  0.00    -0.353 OA
HETATM    3  C2  UNL     1      26.062   6.803  48.662  1.00  0.00     0.104 A 
HETATM    4  C3  UNL     1      25.284   5.908  49.365  1.00  0.00     0.053 A 
HETATM    5  C4  UNL     1      25.799   4.638  49.658  1.00  0.00    -0.001 A 
HETATM    6  C5  UNL     1      25.207   3.505  50.331  1.00  0.00     0.081 A 
HETATM    7  N1  UNL     1      25.808   2.876  51.337  1.00  0.00    -0.240 NA
HETATM    8  C6  UNL     1      25.377   1.833  52.015  1.00  0.00     0.234 A 
HETATM    9  N2  UNL     1      24.164   1.331  51.640  1.00  0.00    -0.241 NA
HETATM   10  C7  UNL     1      23.514   1.923  50.631  1.00  0.00     0.070 A 
HETATM   11  C8  UNL     1      22.295   1.344  50.311  1.00  0.00     0.034 A 
HETATM   12  C9  UNL     1      21.617   1.946  49.259  1.00  0.00     0.026 A 
HETATM   13  C10 UNL     1      22.012   3.034  48.509  1.00  0.00     0.035 A 
HETATM   14 CL1  UNL     1      21.066   3.694  47.212  1.00  0.00    -0.084 Cl
HETATM   15  C11 UNL     1      23.244   3.561  48.889  1.00  0.00     0.040 A 
HETATM   16  C12 UNL     1      23.972   3.028  49.914  1.00  0.00     0.024 A 
HETATM   17  C13 UNL     1      27.088   4.323  49.228  1.00  0.00     0.053 A 
HETATM   18  C14 UNL     1      27.904   5.210  48.514  1.00  0.00     0.104 A 
HETATM   19  C16 UNL     1      27.356   6.469  48.238  1.00  0.00     0.133 A 
ENDROOT
BRANCH  19  20
HETATM   20  O3  UNL     1      28.082   7.425  47.534  1.00  0.00    -0.356 OA
HETATM   21  H13 UNL     1      28.182   7.283  46.519  1.00  0.00     0.218 HD
ENDBRANCH  19  20
BRANCH  18  22
HETATM   22  O2  UNL     1      29.173   4.941  48.074  1.00  0.00    -0.353 OA
HETATM   23  C15 UNL     1      30.320   5.598  48.528  1.00  0.00     0.210 C 
ENDBRANCH  18  22
TORSDOF 2
ENDMDL
