MODEL 1
REMARK VINA RESULT:      -7.4      0.000      0.000
REMARK  3 active torsions:
REMARK  status: ('A' for Active; 'I' for Inactive)
REMARK    1  A    between atoms: C2_2  and  C3_3 
REMARK       I    between atoms: C3_3  and  N1_5 
REMARK    2  A    between atoms: N1_5  and  C4_6 
REMARK    3  A    between atoms: C20_28  and  N7_29 
ROOT
HETATM    1  C4  UNL     1      25.371   4.937  50.188  1.00  0.00     0.068 C 
HETATM    2  C5  UNL     1      25.854   3.825  50.656  1.00  0.00     0.165 C 
HETATM    3  O2  UNL     1      25.420   2.789  51.447  1.00  0.00    -0.359 OA
HETATM    4  C6  UNL     1      24.634   2.906  52.618  1.00  0.00     0.204 C 
HETATM    5  C7  UNL     1      24.437   1.595  53.296  1.00  0.00     0.299 C 
HETATM    6  N2  UNL     1      23.796   0.543  52.594  1.00  0.00     0.090 N 
HETATM    7  C8  UNL     1      23.846  -0.721  53.384  1.00  0.00     0.310 C 
HETATM    8  C9  UNL     1      22.381   0.782  52.436  1.00  0.00     0.318 C 
HETATM    9  C10 UNL     1      22.061   1.863  51.490  1.00  0.00     0.119 C 
HETATM   10  N3  UNL     1      22.267   1.472  50.256  1.00  0.00    -0.272 NA
HETATM   11  C11 UNL     1      21.969   2.509  49.255  1.00  0.00     0.019 C 
HETATM   12  C12 UNL     1      21.512   1.926  47.973  1.00  0.00     0.066 C 
HETATM   13  C13 UNL     1      21.915   3.829  48.937  1.00  0.00     0.100 C 
HETATM   14  C14 UNL     1      22.136   5.171  49.434  1.00  0.00     0.048 C 
HETATM   15  C15 UNL     1      23.208   5.939  49.033  1.00  0.00     0.017 C 
HETATM   16  C16 UNL     1      24.318   5.870  50.067  1.00  0.00     0.007 C 
HETATM   17  C17 UNL     1      24.196   6.887  51.008  1.00  0.00     0.068 C 
HETATM   18  C18 UNL     1      22.932   7.653  50.619  1.00  0.00     0.169 C 
HETATM   19  N4  UNL     1      21.734   7.185  51.108  1.00  0.00    -0.155 NA
HETATM   20  N5  UNL     1      21.285   5.911  50.427  1.00  0.00    -0.279 N 
HETATM   21  N6  UNL     1      23.048   8.730  49.597  1.00  0.00    -0.242 NA
HETATM   22  C19 UNL     1      23.172   8.293  48.295  1.00  0.00     0.132 C 
HETATM   23  C20 UNL     1      23.201   6.824  47.824  1.00  0.00     0.294 C 
HETATM   24  H21 UNL     1      20.462   5.282  50.413  1.00  0.00     0.189 HD
ENDROOT
BRANCH   1  25
HETATM   25  N1  UNL     1      26.247   5.696  49.382  1.00  0.00    -0.321 N 
HETATM   26  C3  UNL     1      27.417   5.701  48.628  1.00  0.00     0.245 C 
HETATM   27  O1  UNL     1      28.083   4.652  48.537  1.00  0.00    -0.268 OA
HETATM   28  H4  UNL     1      25.822   6.674  49.368  1.00  0.00     0.169 HD
BRANCH  26  29
HETATM   29  C2  UNL     1      27.967   6.832  47.906  1.00  0.00     0.064 C 
HETATM   30  C1  UNL     1      27.445   7.860  48.553  1.00  0.00     0.017 C 
ENDBRANCH  26  29
ENDBRANCH   1  25
BRANCH  23  31
HETATM   31  N7  UNL     1      24.337   6.673  46.984  1.00  0.00     0.092 N 
HETATM   32  H24 UNL     1      24.002   6.856  45.990  1.00  0.00     0.314 HD
HETATM   33  H25 UNL     1      24.965   7.521  47.165  1.00  0.00     0.314 HD
ENDBRANCH  23  31
TORSDOF 3
ENDMDL
MODEL 2
REMARK VINA RESULT:      -7.3      3.960      6.761
REMARK  3 active torsions:
REMARK  status: ('A' for Active; 'I' for Inactive)
REMARK    1  A    between atoms: C2_2  and  C3_3 
REMARK       I    between atoms: C3_3  and  N1_5 
REMARK    2  A    between atoms: N1_5  and  C4_6 
REMARK    3  A    between atoms: C20_28  and  N7_29 
ROOT
HETATM    1  C4  UNL     1      21.366   0.466  52.027  1.00  0.00     0.068 C 
HETATM    2  C5  UNL     1      22.026  -0.084  53.003  1.00  0.00     0.165 C 
HETATM    3  O2  UNL     1      23.335  -0.187  53.406  1.00  0.00    -0.359 OA
HETATM    4  C6  UNL     1      24.451  -0.410  52.565  1.00  0.00     0.204 C 
HETATM    5  C7  UNL     1      25.712  -0.581  53.339  1.00  0.00     0.299 C 
HETATM    6  N2  UNL     1      26.157   0.473  54.176  1.00  0.00     0.090 N 
HETATM    7  C8  UNL     1      27.337   0.040  54.979  1.00  0.00     0.310 C 
HETATM    8  C9  UNL     1      26.664   1.591  53.416  1.00  0.00     0.318 C 
HETATM    9  C10 UNL     1      25.622   2.345  52.700  1.00  0.00     0.119 C 
HETATM   10  N3  UNL     1      24.916   3.065  53.539  1.00  0.00    -0.272 NA
HETATM   11  C11 UNL     1      23.851   3.845  52.888  1.00  0.00     0.019 C 
HETATM   12  C12 UNL     1      23.565   5.103  53.614  1.00  0.00     0.066 C 
HETATM   13  C13 UNL     1      22.953   3.958  51.874  1.00  0.00     0.100 C 
HETATM   14  C14 UNL     1      22.435   3.318  50.683  1.00  0.00     0.048 C 
HETATM   15  C15 UNL     1      21.194   2.720  50.647  1.00  0.00     0.017 C 
HETATM   16  C16 UNL     1      21.330   1.219  50.833  1.00  0.00     0.007 C 
HETATM   17  C17 UNL     1      21.459   0.568  49.611  1.00  0.00     0.068 C 
HETATM   18  C18 UNL     1      21.449   1.674  48.556  1.00  0.00     0.169 C 
HETATM   19  N4  UNL     1      22.651   2.274  48.257  1.00  0.00    -0.155 NA
HETATM   20  N5  UNL     1      23.130   3.196  49.356  1.00  0.00    -0.279 N 
HETATM   21  N6  UNL     1      20.131   2.161  48.061  1.00  0.00    -0.242 NA
HETATM   22  C19 UNL     1      19.449   2.991  48.925  1.00  0.00     0.132 C 
HETATM   23  C20 UNL     1      19.923   3.442  50.321  1.00  0.00     0.294 C 
HETATM   24  H21 UNL     1      23.893   3.876  49.527  1.00  0.00     0.189 HD
ENDROOT
BRANCH   1  25
HETATM   25  N1  UNL     1      19.967   0.283  52.052  1.00  0.00    -0.321 N 
HETATM   26  C3  UNL     1      18.896  -0.394  52.627  1.00  0.00     0.245 C 
HETATM   27  O1  UNL     1      19.121  -1.236  53.518  1.00  0.00    -0.268 OA
HETATM   28  H4  UNL     1      19.595   0.942  51.301  1.00  0.00     0.169 HD
BRANCH  26  29
HETATM   29  C2  UNL     1      17.494  -0.223  52.297  1.00  0.00     0.064 C 
HETATM   30  C1  UNL     1      17.520  -0.182  50.975  1.00  0.00     0.017 C 
ENDBRANCH  26  29
ENDBRANCH   1  25
BRANCH  23  31
HETATM   31  N7  UNL     1      18.859   3.190  51.229  1.00  0.00     0.092 N 
HETATM   32  H24 UNL     1      19.073   3.754  52.106  1.00  0.00     0.314 HD
HETATM   33  H25 UNL     1      18.001   3.701  50.843  1.00  0.00     0.314 HD
ENDBRANCH  23  31
TORSDOF 3
ENDMDL
MODEL 3
REMARK VINA RESULT:      -7.1      6.402      9.690
REMARK  3 active torsions:
REMARK  status: ('A' for Active; 'I' for Inactive)
REMARK    1  A    between atoms: C2_2  and  C3_3 
REMARK       I    between atoms: C3_3  and  N1_5 
REMARK    2  A    between atoms: N1_5  and  C4_6 
REMARK    3  A    between atoms: C20_28  and  N7_29 
ROOT
HETATM    1  C4  UNL     1      30.560   7.594  45.987  1.00  0.00     0.068 C 
HETATM    2  C5  UNL     1      29.438   8.085  45.550  1.00  0.00     0.165 C 
HETATM    3  O2  UNL     1      28.225   8.455  46.077  1.00  0.00    -0.359 OA
HETATM    4  C6  UNL     1      27.498   7.757  47.070  1.00  0.00     0.204 C 
HETATM    5  C7  UNL     1      26.168   8.373  47.331  1.00  0.00     0.299 C 
HETATM    6  N2  UNL     1      26.105   9.715  47.783  1.00  0.00     0.090 N 
HETATM    7  C8  UNL     1      24.690  10.187  47.824  1.00  0.00     0.310 C 
HETATM    8  C9  UNL     1      26.539   9.846  49.154  1.00  0.00     0.318 C 
HETATM    9  C10 UNL     1      27.986   9.651  49.341  1.00  0.00     0.119 C 
HETATM   10  N3  UNL     1      28.652  10.687  48.892  1.00  0.00    -0.272 NA
HETATM   11  C11 UNL     1      30.110  10.557  49.046  1.00  0.00     0.019 C 
HETATM   12  C12 UNL     1      30.766  11.872  49.231  1.00  0.00     0.066 C 
HETATM   13  C13 UNL     1      31.201   9.749  49.099  1.00  0.00     0.100 C 
HETATM   14  C14 UNL     1      31.653   8.375  49.033  1.00  0.00     0.048 C 
HETATM   15  C15 UNL     1      32.327   7.871  47.941  1.00  0.00     0.017 C 
HETATM   16  C16 UNL     1      31.368   7.113  47.040  1.00  0.00     0.007 C 
HETATM   17  C17 UNL     1      31.315   5.765  47.379  1.00  0.00     0.068 C 
HETATM   18  C18 UNL     1      32.245   5.610  48.583  1.00  0.00     0.169 C 
HETATM   19  N4  UNL     1      31.712   5.848  49.828  1.00  0.00    -0.155 NA
HETATM   20  N5  UNL     1      31.468   7.319  50.086  1.00  0.00    -0.279 N 
HETATM   21  N6  UNL     1      33.697   5.401  48.327  1.00  0.00    -0.242 NA
HETATM   22  C19 UNL     1      34.395   6.527  47.944  1.00  0.00     0.132 C 
HETATM   23  C20 UNL     1      33.812   7.943  47.764  1.00  0.00     0.294 C 
HETATM   24  H21 UNL     1      31.171   7.936  50.864  1.00  0.00     0.189 HD
ENDROOT
BRANCH   1  25
HETATM   25  N1  UNL     1      31.557   7.379  45.011  1.00  0.00    -0.321 N 
HETATM   26  C3  UNL     1      32.121   7.811  43.815  1.00  0.00     0.245 C 
HETATM   27  O1  UNL     1      31.638   8.808  43.244  1.00  0.00    -0.268 OA
HETATM   28  H4  UNL     1      32.077   6.509  45.344  1.00  0.00     0.169 HD
BRANCH  26  29
HETATM   29  C2  UNL     1      33.252   7.211  43.133  1.00  0.00     0.064 C 
HETATM   30  C1  UNL     1      33.405   6.074  43.790  1.00  0.00     0.017 C 
ENDBRANCH  26  29
ENDBRANCH   1  25
BRANCH  23  31
HETATM   31  N7  UNL     1      34.225   8.409  46.486  1.00  0.00     0.092 N 
HETATM   32  H24 UNL     1      35.030   9.084  46.658  1.00  0.00     0.314 HD
HETATM   33  H25 UNL     1      34.723   7.590  46.009  1.00  0.00     0.314 HD
ENDBRANCH  23  31
TORSDOF 3
ENDMDL
MODEL 4
REMARK VINA RESULT:      -7.0      1.905      6.439
REMARK  3 active torsions:
REMARK  status: ('A' for Active; 'I' for Inactive)
REMARK    1  A    between atoms: C2_2  and  C3_3 
REMARK       I    between atoms: C3_3  and  N1_5 
REMARK    2  A    between atoms: N1_5  and  C4_6 
REMARK    3  A    between atoms: C20_28  and  N7_29 
ROOT
HETATM    1  C4  UNL     1      23.523   2.709  51.236  1.00  0.00     0.068 C 
HETATM    2  C5  UNL     1      24.693   3.258  51.377  1.00  0.00     0.165 C 
HETATM    3  O2  UNL     1      25.499   4.115  50.667  1.00  0.00    -0.359 OA
HETATM    4  C6  UNL     1      25.708   4.096  49.268  1.00  0.00     0.204 C 
HETATM    5  C7  UNL     1      26.730   5.092  48.839  1.00  0.00     0.299 C 
HETATM    6  N2  UNL     1      26.506   6.467  49.103  1.00  0.00     0.090 N 
HETATM    7  C8  UNL     1      27.711   7.270  48.745  1.00  0.00     0.310 C 
HETATM    8  C9  UNL     1      25.474   7.020  48.258  1.00  0.00     0.318 C 
HETATM    9  C10 UNL     1      24.120   6.543  48.582  1.00  0.00     0.119 C 
HETATM   10  N3  UNL     1      23.692   7.095  49.692  1.00  0.00    -0.272 NA
HETATM   11  C11 UNL     1      22.340   6.658  50.078  1.00  0.00     0.019 C 
HETATM   12  C12 UNL     1      21.609   7.711  50.819  1.00  0.00     0.066 C 
HETATM   13  C13 UNL     1      21.393   5.684  50.075  1.00  0.00     0.100 C 
HETATM   14  C14 UNL     1      21.093   4.334  49.644  1.00  0.00     0.048 C 
HETATM   15  C15 UNL     1      21.035   3.274  50.523  1.00  0.00     0.017 C 
HETATM   16  C16 UNL     1      22.341   2.499  50.493  1.00  0.00     0.007 C 
HETATM   17  C17 UNL     1      22.296   1.469  49.560  1.00  0.00     0.068 C 
HETATM   18  C18 UNL     1      20.919   1.574  48.903  1.00  0.00     0.169 C 
HETATM   19  N4  UNL     1      20.794   2.426  47.830  1.00  0.00    -0.155 NA
HETATM   20  N5  UNL     1      20.816   3.882  48.238  1.00  0.00    -0.279 N 
HETATM   21  N6  UNL     1      19.769   0.904  49.571  1.00  0.00    -0.242 NA
HETATM   22  C19 UNL     1      19.276   1.553  50.683  1.00  0.00     0.132 C 
HETATM   23  C20 UNL     1      19.805   2.874  51.277  1.00  0.00     0.294 C 
HETATM   24  H21 UNL     1      20.682   4.816  47.807  1.00  0.00     0.189 HD
ENDROOT
BRANCH   1  25
HETATM   25  N1  UNL     1      23.112   1.863  52.289  1.00  0.00    -0.321 N 
HETATM   26  C3  UNL     1      23.394   0.728  53.041  1.00  0.00     0.245 C 
HETATM   27  O1  UNL     1      24.422   0.072  52.785  1.00  0.00    -0.268 OA
HETATM   28  H4  UNL     1      22.191   2.283  52.628  1.00  0.00     0.169 HD
BRANCH  26  29
HETATM   29  C2  UNL     1      22.598   0.202  54.134  1.00  0.00     0.064 C 
HETATM   30  C1  UNL     1      21.660  -0.478  53.496  1.00  0.00     0.017 C 
ENDBRANCH  26  29
ENDBRANCH   1  25
BRANCH  23  31
HETATM   31  N7  UNL     1      20.016   2.657  52.666  1.00  0.00     0.092 N 
HETATM   32  H24 UNL     1      19.147   3.019  53.162  1.00  0.00     0.314 HD
HETATM   33  H25 UNL     1      19.937   1.602  52.825  1.00  0.00     0.314 HD
ENDBRANCH  23  31
TORSDOF 3
ENDMDL
MODEL 5
REMARK VINA RESULT:      -6.8      1.825      6.274
REMARK  3 active torsions:
REMARK  status: ('A' for Active; 'I' for Inactive)
REMARK    1  A    between atoms: C2_2  and  C3_3 
REMARK       I    between atoms: C3_3  and  N1_5 
REMARK    2  A    between atoms: N1_5  and  C4_6 
REMARK    3  A    between atoms: C20_28  and  N7_29 
ROOT
HETATM    1  C4  UNL     1      24.000   3.772  50.256  1.00  0.00     0.068 C 
HETATM    2  C5  UNL     1      25.154   4.255  50.608  1.00  0.00     0.165 C 
HETATM    3  O2  UNL     1      26.134   5.039  50.051  1.00  0.00    -0.359 OA
HETATM    4  C6  UNL     1      26.606   4.963  48.718  1.00  0.00     0.204 C 
HETATM    5  C7  UNL     1      27.753   5.883  48.476  1.00  0.00     0.299 C 
HETATM    6  N2  UNL     1      27.573   7.276  48.664  1.00  0.00     0.090 N 
HETATM    7  C8  UNL     1      28.873   7.994  48.530  1.00  0.00     0.310 C 
HETATM    8  C9  UNL     1      26.759   7.863  47.626  1.00  0.00     0.318 C 
HETATM    9  C10 UNL     1      25.340   7.478  47.693  1.00  0.00     0.119 C 
HETATM   10  N3  UNL     1      24.744   8.089  48.688  1.00  0.00    -0.272 NA
HETATM   11  C11 UNL     1      23.318   7.747  48.815  1.00  0.00     0.019 C 
HETATM   12  C12 UNL     1      22.529   8.864  49.380  1.00  0.00     0.066 C 
HETATM   13  C13 UNL     1      22.328   6.831  48.648  1.00  0.00     0.100 C 
HETATM   14  C14 UNL     1      22.029   5.489  48.193  1.00  0.00     0.048 C 
HETATM   15  C15 UNL     1      21.736   4.462  49.065  1.00  0.00     0.017 C 
HETATM   16  C16 UNL     1      22.970   3.610  49.303  1.00  0.00     0.007 C 
HETATM   17  C17 UNL     1      23.038   2.555  48.398  1.00  0.00     0.068 C 
HETATM   18  C18 UNL     1      21.822   2.722  47.486  1.00  0.00     0.169 C 
HETATM   19  N4  UNL     1      21.960   3.546  46.393  1.00  0.00    -0.155 NA
HETATM   20  N5  UNL     1      21.997   5.010  46.769  1.00  0.00    -0.279 N 
HETATM   21  N6  UNL     1      20.524   2.144  47.933  1.00  0.00    -0.242 NA
HETATM   22  C19 UNL     1      19.871   2.855  48.917  1.00  0.00     0.132 C 
HETATM   23  C20 UNL     1      20.361   4.161  49.576  1.00  0.00     0.294 C 
HETATM   24  H21 UNL     1      22.009   5.936  46.302  1.00  0.00     0.189 HD
ENDROOT
BRANCH   1  25
HETATM   25  N1  UNL     1      23.341   2.986  51.225  1.00  0.00    -0.321 N 
HETATM   26  C3  UNL     1      23.373   1.828  51.996  1.00  0.00     0.245 C 
HETATM   27  O1  UNL     1      24.342   1.053  51.884  1.00  0.00    -0.268 OA
HETATM   28  H4  UNL     1      22.437   3.514  51.432  1.00  0.00     0.169 HD
BRANCH  26  29
HETATM   29  C2  UNL     1      22.368   1.406  52.953  1.00  0.00     0.064 C 
HETATM   30  C1  UNL     1      21.523   0.728  52.194  1.00  0.00     0.017 C 
ENDBRANCH  26  29
ENDBRANCH   1  25
BRANCH  23  31
HETATM   31  N7  UNL     1      20.288   3.975  50.983  1.00  0.00     0.092 N 
HETATM   32  H24 UNL     1      20.735   4.836  51.423  1.00  0.00     0.314 HD
HETATM   33  H25 UNL     1      19.260   4.098  51.254  1.00  0.00     0.314 HD
ENDBRANCH  23  31
TORSDOF 3
ENDMDL
MODEL 6
REMARK VINA RESULT:      -6.8      2.545      4.383
REMARK  3 active torsions:
REMARK  status: ('A' for Active; 'I' for Inactive)
REMARK    1  A    between atoms: C2_2  and  C3_3 
REMARK       I    between atoms: C3_3  and  N1_5 
REMARK    2  A    between atoms: N1_5  and  C4_6 
REMARK    3  A    between atoms: C20_28  and  N7_29 
ROOT
HETATM    1  C4  UNL     1      23.198   3.197  50.836  1.00  0.00     0.068 C 
HETATM    2  C5  UNL     1      22.331   2.230  50.898  1.00  0.00     0.165 C 
HETATM    3  O2  UNL     1      20.990   2.058  50.656  1.00  0.00    -0.359 OA
HETATM    4  C6  UNL     1      19.958   2.966  50.996  1.00  0.00     0.204 C 
HETATM    5  C7  UNL     1      18.607   2.419  50.693  1.00  0.00     0.299 C 
HETATM    6  N2  UNL     1      18.287   2.069  49.357  1.00  0.00     0.090 N 
HETATM    7  C8  UNL     1      16.958   1.395  49.296  1.00  0.00     0.310 C 
HETATM    8  C9  UNL     1      18.109   3.233  48.520  1.00  0.00     0.318 C 
HETATM    9  C10 UNL     1      19.358   3.956  48.233  1.00  0.00     0.119 C 
HETATM   10  N3  UNL     1      20.090   3.288  47.375  1.00  0.00    -0.272 NA
HETATM   11  C11 UNL     1      21.359   3.956  47.044  1.00  0.00     0.019 C 
HETATM   12  C12 UNL     1      21.805   3.645  45.666  1.00  0.00     0.066 C 
HETATM   13  C13 UNL     1      22.374   4.771  47.433  1.00  0.00     0.100 C 
HETATM   14  C14 UNL     1      22.890   5.572  48.523  1.00  0.00     0.048 C 
HETATM   15  C15 UNL     1      23.981   5.186  49.271  1.00  0.00     0.017 C 
HETATM   16  C16 UNL     1      23.525   4.545  50.570  1.00  0.00     0.007 C 
HETATM   17  C17 UNL     1      23.412   5.487  51.587  1.00  0.00     0.068 C 
HETATM   18  C18 UNL     1      23.769   6.827  50.943  1.00  0.00     0.169 C 
HETATM   19  N4  UNL     1      22.756   7.517  50.318  1.00  0.00    -0.155 NA
HETATM   20  N5  UNL     1      22.346   6.888  49.005  1.00  0.00    -0.279 N 
HETATM   21  N6  UNL     1      25.206   7.208  50.864  1.00  0.00    -0.242 NA
HETATM   22  C19 UNL     1      25.935   6.557  49.892  1.00  0.00     0.132 C 
HETATM   23  C20 UNL     1      25.401   5.496  48.908  1.00  0.00     0.294 C 
HETATM   24  H21 UNL     1      21.720   7.091  48.204  1.00  0.00     0.189 HD
ENDROOT
BRANCH   1  25
HETATM   25  N1  UNL     1      24.519   2.861  51.201  1.00  0.00    -0.321 N 
HETATM   26  C3  UNL     1      25.388   2.534  52.238  1.00  0.00     0.245 C 
HETATM   27  O1  UNL     1      24.947   2.478  53.402  1.00  0.00    -0.268 OA
HETATM   28  H4  UNL     1      25.067   2.884  50.286  1.00  0.00     0.169 HD
BRANCH  26  29
HETATM   29  C2  UNL     1      26.802   2.237  52.112  1.00  0.00     0.064 C 
HETATM   30  C1  UNL     1      26.800   0.925  51.947  1.00  0.00     0.017 C 
ENDBRANCH  26  29
ENDBRANCH   1  25
BRANCH  23  31
HETATM   31  N7  UNL     1      26.278   4.380  48.975  1.00  0.00     0.092 N 
HETATM   32  H24 UNL     1      27.221   4.716  48.614  1.00  0.00     0.314 HD
HETATM   33  H25 UNL     1      26.484   4.217  50.013  1.00  0.00     0.314 HD
ENDBRANCH  23  31
TORSDOF 3
ENDMDL
MODEL 7
REMARK VINA RESULT:      -6.5      1.976      6.367
REMARK  3 active torsions:
REMARK  status: ('A' for Active; 'I' for Inactive)
REMARK    1  A    between atoms: C2_2  and  C3_3 
REMARK       I    between atoms: C3_3  and  N1_5 
REMARK    2  A    between atoms: N1_5  and  C4_6 
REMARK    3  A    between atoms: C20_28  and  N7_29 
ROOT
HETATM    1  C4  UNL     1      23.985   4.322  50.449  1.00  0.00     0.068 C 
HETATM    2  C5  UNL     1      24.862   5.241  50.725  1.00  0.00     0.165 C 
HETATM    3  O2  UNL     1      25.350   6.382  50.135  1.00  0.00    -0.359 OA
HETATM    4  C6  UNL     1      25.653   6.547  48.763  1.00  0.00     0.204 C 
HETATM    5  C7  UNL     1      26.270   7.873  48.480  1.00  0.00     0.299 C 
HETATM    6  N2  UNL     1      25.544   9.052  48.783  1.00  0.00     0.090 N 
HETATM    7  C8  UNL     1      26.397  10.258  48.579  1.00  0.00     0.310 C 
HETATM    8  C9  UNL     1      24.445   9.262  47.870  1.00  0.00     0.318 C 
HETATM    9  C10 UNL     1      23.338   8.308  48.042  1.00  0.00     0.119 C 
HETATM   10  N3  UNL     1      22.659   8.582  49.130  1.00  0.00    -0.272 NA
HETATM   11  C11 UNL     1      21.534   7.662  49.365  1.00  0.00     0.019 C 
HETATM   12  C12 UNL     1      20.419   8.323  50.081  1.00  0.00     0.066 C 
HETATM   13  C13 UNL     1      21.009   6.417  49.227  1.00  0.00     0.100 C 
HETATM   14  C14 UNL     1      21.252   5.087  48.709  1.00  0.00     0.048 C 
HETATM   15  C15 UNL     1      21.521   4.012  49.529  1.00  0.00     0.017 C 
HETATM   16  C16 UNL     1      23.017   3.761  49.588  1.00  0.00     0.007 C 
HETATM   17  C17 UNL     1      23.417   2.858  48.608  1.00  0.00     0.068 C 
HETATM   18  C18 UNL     1      22.148   2.513  47.829  1.00  0.00     0.169 C 
HETATM   19  N4  UNL     1      21.800   3.344  46.788  1.00  0.00    -0.155 NA
HETATM   20  N5  UNL     1      21.260   4.676  47.263  1.00  0.00    -0.279 N 
HETATM   21  N6  UNL     1      21.275   1.427  48.352  1.00  0.00    -0.242 NA
HETATM   22  C19 UNL     1      20.501   1.768  49.442  1.00  0.00     0.132 C 
HETATM   23  C20 UNL     1      20.469   3.141  50.143  1.00  0.00     0.294 C 
HETATM   24  H21 UNL     1      20.828   5.529  46.865  1.00  0.00     0.189 HD
ENDROOT
BRANCH   1  25
HETATM   25  N1  UNL     1      23.835   3.307  51.418  1.00  0.00    -0.321 N 
HETATM   26  C3  UNL     1      24.395   2.182  52.015  1.00  0.00     0.245 C 
HETATM   27  O1  UNL     1      25.508   1.781  51.625  1.00  0.00    -0.268 OA
HETATM   28  H4  UNL     1      22.880   3.492  51.856  1.00  0.00     0.169 HD
BRANCH  26  29
HETATM   29  C2  UNL     1      23.808   1.395  53.083  1.00  0.00     0.064 C 
HETATM   30  C1  UNL     1      23.045   0.544  52.418  1.00  0.00     0.017 C 
ENDBRANCH  26  29
ENDBRANCH   1  25
BRANCH  23  31
HETATM   31  N7  UNL     1      20.644   2.908  51.535  1.00  0.00     0.092 N 
HETATM   32  H24 UNL     1      21.629   3.234  51.772  1.00  0.00     0.314 HD
HETATM   33  H25 UNL     1      20.043   3.634  52.043  1.00  0.00     0.314 HD
ENDBRANCH  23  31
TORSDOF 3
ENDMDL
MODEL 8
REMARK VINA RESULT:      -6.4      3.341      6.197
REMARK  3 active torsions:
REMARK  status: ('A' for Active; 'I' for Inactive)
REMARK    1  A    between atoms: C2_2  and  C3_3 
REMARK       I    between atoms: C3_3  and  N1_5 
REMARK    2  A    between atoms: N1_5  and  C4_6 
REMARK    3  A    between atoms: C20_28  and  N7_29 
ROOT
HETATM    1  C4  UNL     1      20.060   3.061  51.257  1.00  0.00     0.068 C 
HETATM    2  C5  UNL     1      20.629   2.600  52.332  1.00  0.00     0.165 C 
HETATM    3  O2  UNL     1      21.840   2.053  52.678  1.00  0.00    -0.359 OA
HETATM    4  C6  UNL     1      22.578   1.113  51.919  1.00  0.00     0.204 C 
HETATM    5  C7  UNL     1      23.794   0.642  52.638  1.00  0.00     0.299 C 
HETATM    6  N2  UNL     1      24.784   1.585  53.014  1.00  0.00     0.090 N 
HETATM    7  C8  UNL     1      25.829   0.939  53.858  1.00  0.00     0.310 C 
HETATM    8  C9  UNL     1      25.528   2.072  51.876  1.00  0.00     0.318 C 
HETATM    9  C10 UNL     1      24.752   2.954  50.990  1.00  0.00     0.119 C 
HETATM   10  N3  UNL     1      24.579   4.129  51.546  1.00  0.00    -0.272 NA
HETATM   11  C11 UNL     1      23.806   5.063  50.712  1.00  0.00     0.019 C 
HETATM   12  C12 UNL     1      24.200   6.471  50.947  1.00  0.00     0.066 C 
HETATM   13  C13 UNL     1      22.842   5.251  49.773  1.00  0.00     0.100 C 
HETATM   14  C14 UNL     1      21.881   4.581  48.921  1.00  0.00     0.048 C 
HETATM   15  C15 UNL     1      20.525   4.619  49.166  1.00  0.00     0.017 C 
HETATM   16  C16 UNL     1      20.086   3.350  49.875  1.00  0.00     0.007 C 
HETATM   17  C17 UNL     1      19.692   2.374  48.967  1.00  0.00     0.068 C 
HETATM   18  C18 UNL     1      19.910   2.991  47.585  1.00  0.00     0.169 C 
HETATM   19  N4  UNL     1      21.163   2.870  47.029  1.00  0.00    -0.155 NA
HETATM   20  N5  UNL     1      22.183   3.767  47.695  1.00  0.00    -0.279 N 
HETATM   21  N6  UNL     1      18.826   3.837  47.015  1.00  0.00    -0.242 NA
HETATM   22  C19 UNL     1      18.723   5.103  47.553  1.00  0.00     0.132 C 
HETATM   23  C20 UNL     1      19.611   5.695  48.666  1.00  0.00     0.294 C 
HETATM   24  H21 UNL     1      23.172   4.052  47.569  1.00  0.00     0.189 HD
ENDROOT
BRANCH   1  25
HETATM   25  N1  UNL     1      18.741   3.538  51.418  1.00  0.00    -0.321 N 
HETATM   26  C3  UNL     1      17.399   3.207  51.566  1.00  0.00     0.245 C 
HETATM   27  O1  UNL     1      17.070   2.005  51.579  1.00  0.00    -0.268 OA
HETATM   28  H4  UNL     1      18.836   4.601  51.407  1.00  0.00     0.169 HD
BRANCH  26  29
HETATM   29  C2  UNL     1      16.296   4.137  51.717  1.00  0.00     0.064 C 
HETATM   30  C1  UNL     1      15.803   4.189  50.491  1.00  0.00     0.017 C 
ENDBRANCH  26  29
ENDBRANCH   1  25
BRANCH  23  31
HETATM   31  N7  UNL     1      18.744   6.232  49.657  1.00  0.00     0.092 N 
HETATM   32  H24 UNL     1      19.157   5.956  50.598  1.00  0.00     0.314 HD
HETATM   33  H25 UNL     1      18.895   7.291  49.652  1.00  0.00     0.314 HD
ENDBRANCH  23  31
TORSDOF 3
ENDMDL
MODEL 9
REMARK VINA RESULT:      -6.3      3.068      5.717
REMARK  3 active torsions:
REMARK  status: ('A' for Active; 'I' for Inactive)
REMARK    1  A    between atoms: C2_2  and  C3_3 
REMARK       I    between atoms: C3_3  and  N1_5 
REMARK    2  A    between atoms: N1_5  and  C4_6 
REMARK    3  A    between atoms: C20_28  and  N7_29 
ROOT
HETATM    1  C4  UNL     1      23.058   5.241  48.366  1.00  0.00     0.068 C 
HETATM    2  C5  UNL     1      22.709   5.684  47.194  1.00  0.00     0.165 C 
HETATM    3  O2  UNL     1      21.913   5.270  46.153  1.00  0.00    -0.359 OA
HETATM    4  C6  UNL     1      21.817   3.950  45.651  1.00  0.00     0.204 C 
HETATM    5  C7  UNL     1      20.947   3.871  44.444  1.00  0.00     0.299 C 
HETATM    6  N2  UNL     1      19.590   4.266  44.545  1.00  0.00     0.090 N 
HETATM    7  C8  UNL     1      18.944   4.266  43.200  1.00  0.00     0.310 C 
HETATM    8  C9  UNL     1      18.802   3.315  45.293  1.00  0.00     0.318 C 
HETATM    9  C10 UNL     1      19.101   3.297  46.733  1.00  0.00     0.119 C 
HETATM   10  N3  UNL     1      18.610   4.362  47.319  1.00  0.00    -0.272 NA
HETATM   11  C11 UNL     1      18.876   4.410  48.766  1.00  0.00     0.019 C 
HETATM   12  C12 UNL     1      17.808   5.125  49.501  1.00  0.00     0.066 C 
HETATM   13  C13 UNL     1      19.690   4.088  49.805  1.00  0.00     0.100 C 
HETATM   14  C14 UNL     1      20.927   3.429  50.171  1.00  0.00     0.048 C 
HETATM   15  C15 UNL     1      22.052   4.129  50.550  1.00  0.00     0.017 C 
HETATM   16  C16 UNL     1      23.008   4.256  49.377  1.00  0.00     0.007 C 
HETATM   17  C17 UNL     1      23.916   3.203  49.348  1.00  0.00     0.068 C 
HETATM   18  C18 UNL     1      23.537   2.306  50.526  1.00  0.00     0.169 C 
HETATM   19  N4  UNL     1      22.568   1.353  50.308  1.00  0.00    -0.155 NA
HETATM   20  N5  UNL     1      21.182   1.949  50.193  1.00  0.00    -0.279 N 
HETATM   21  N6  UNL     1      24.091   2.635  51.868  1.00  0.00    -0.242 NA
HETATM   22  C19 UNL     1      23.496   3.705  52.504  1.00  0.00     0.132 C 
HETATM   23  C20 UNL     1      22.339   4.563  51.954  1.00  0.00     0.294 C 
HETATM   24  H21 UNL     1      20.199   1.628  50.112  1.00  0.00     0.189 HD
ENDROOT
BRANCH   1  25
HETATM   25  N1  UNL     1      23.937   6.068  49.097  1.00  0.00    -0.321 N 
HETATM   26  C3  UNL     1      25.250   6.488  49.280  1.00  0.00     0.245 C 
HETATM   27  O1  UNL     1      26.145   6.011  48.555  1.00  0.00    -0.268 OA
HETATM   28  H4  UNL     1      23.315   6.559  49.811  1.00  0.00     0.169 HD
BRANCH  26  29
HETATM   29  C2  UNL     1      25.714   7.459  50.253  1.00  0.00     0.064 C 
HETATM   30  C1  UNL     1      24.761   8.374  50.213  1.00  0.00     0.017 C 
ENDBRANCH  26  29
ENDBRANCH   1  25
BRANCH  23  31
HETATM   31  N7  UNL     1      22.729   5.925  52.076  1.00  0.00     0.092 N 
HETATM   32  H24 UNL     1      22.522   6.382  51.138  1.00  0.00     0.314 HD
HETATM   33  H25 UNL     1      22.007   6.392  52.713  1.00  0.00     0.314 HD
ENDBRANCH  23  31
TORSDOF 3
ENDMDL
