MODEL 1
REMARK VINA RESULT:      -9.0      0.000      0.000
REMARK  4 active torsions:
REMARK  status: ('A' for Active; 'I' for Inactive)
REMARK    1  A    between atoms: C7_7  and  C8_8 
REMARK    2  A    between atoms: C8_8  and  N1_9 
REMARK    3  A    between atoms: N1_9  and  C9_10 
REMARK    4  A    between atoms: N2_12  and  C11_13 
ROOT
HETATM    1  C9  UNL     1      26.949   2.401  51.935  1.00  0.00     0.133 C 
HETATM    2  C10 UNL     1      26.130   1.359  51.903  1.00  0.00     0.142 C 
HETATM    3  N2  UNL     1      25.688   0.236  52.636  1.00  0.00    -0.334 N 
HETATM    4  C16 UNL     1      26.262  -1.061  52.732  1.00  0.00     0.211 C 
HETATM    5  N3  UNL     1      26.990  -1.051  53.799  1.00  0.00    -0.235 NA
HETATM    6  C17 UNL     1      27.130   0.056  54.638  1.00  0.00     0.257 C 
HETATM    7  N4  UNL     1      27.712   1.193  54.810  1.00  0.00    -0.152 NA
HETATM    8  N5  UNL     1      28.594   1.596  53.805  1.00  0.00    -0.217 N 
HETATM    9  N6  UNL     1      27.727   2.506  53.143  1.00  0.00    -0.268 N 
HETATM   10  H18 UNL     1      29.311   1.835  53.098  1.00  0.00     0.210 HD
HETATM   11  H19 UNL     1      27.540   3.483  53.518  1.00  0.00     0.190 HD
ENDROOT
BRANCH   1  12
HETATM   12  N1  UNL     1      27.138   3.395  50.936  1.00  0.00    -0.370 N 
HETATM   13  H10 UNL     1      27.741   4.209  51.100  1.00  0.00     0.161 HD
BRANCH  12  14
HETATM   14  C8  UNL     1      26.429   3.179  49.690  1.00  0.00     0.160 C 
BRANCH  14  15
HETATM   15  C7  UNL     1      25.750   4.387  49.203  1.00  0.00    -0.035 A 
HETATM   16  C2  UNL     1      24.378   4.442  49.032  1.00  0.00    -0.054 A 
HETATM   17  C1  UNL     1      23.537   3.260  49.342  1.00  0.00     0.049 C 
HETATM   18  C3  UNL     1      23.760   5.592  48.572  1.00  0.00     0.007 A 
HETATM   19  C4  UNL     1      24.477   6.738  48.262  1.00  0.00     0.001 A 
HETATM   20  C5  UNL     1      25.846   6.689  48.430  1.00  0.00     0.001 A 
HETATM   21  C6  UNL     1      26.453   5.545  48.887  1.00  0.00     0.009 A 
ENDBRANCH  14  15
ENDBRANCH  12  14
ENDBRANCH   1  12
BRANCH   3  22
HETATM   22  C11 UNL     1      24.528   0.339  53.398  1.00  0.00     0.158 A 
HETATM   23  C12 UNL     1      23.542  -0.718  53.404  1.00  0.00     0.004 A 
HETATM   24  C13 UNL     1      22.293  -0.319  53.157  1.00  0.00    -0.000 A 
HETATM   25  C14 UNL     1      22.399   1.124  52.962  1.00  0.00     0.021 A 
HETATM   26  C15 UNL     1      23.663   1.524  53.094  1.00  0.00     0.038 A 
HETATM   27 CL1  UNL     1      24.070   3.203  52.910  1.00  0.00    -0.086 Cl
ENDBRANCH   3  22
TORSDOF 4
ENDMDL
MODEL 2
REMARK VINA RESULT:      -8.8      0.516      1.486
REMARK  4 active torsions:
REMARK  status: ('A' for Active; 'I' for Inactive)
REMARK    1  A    between atoms: C7_7  and  C8_8 
REMARK    2  A    between atoms: C8_8  and  N1_9 
REMARK    3  A    between atoms: N1_9  and  C9_10 
REMARK    4  A    between atoms: N2_12  and  C11_13 
ROOT
HETATM    1  C9  UNL     1      26.695   2.394  52.045  1.00  0.00     0.133 C 
HETATM    2  C10 UNL     1      25.899   1.339  51.964  1.00  0.00     0.142 C 
HETATM    3  N2  UNL     1      25.450   0.196  52.661  1.00  0.00    -0.334 N 
HETATM    4  C16 UNL     1      26.045  -1.092  52.759  1.00  0.00     0.211 C 
HETATM    5  N3  UNL     1      26.729  -1.086  53.854  1.00  0.00    -0.235 NA
HETATM    6  C17 UNL     1      26.815   0.009  54.716  1.00  0.00     0.257 C 
HETATM    7  N4  UNL     1      27.367   1.154  54.929  1.00  0.00    -0.152 NA
HETATM    8  N5  UNL     1      28.280   1.590  53.966  1.00  0.00    -0.217 N 
HETATM    9  N6  UNL     1      27.423   2.494  53.284  1.00  0.00    -0.268 N 
HETATM   10  H18 UNL     1      29.020   1.853  53.292  1.00  0.00     0.210 HD
HETATM   11  H19 UNL     1      27.202   3.461  53.667  1.00  0.00     0.190 HD
ENDROOT
BRANCH   1  12
HETATM   12  N1  UNL     1      26.905   3.409  51.070  1.00  0.00    -0.370 N 
HETATM   13  H10 UNL     1      27.340   4.305  51.316  1.00  0.00     0.161 HD
BRANCH  12  14
HETATM   14  C8  UNL     1      26.467   3.089  49.725  1.00  0.00     0.160 C 
BRANCH  14  15
HETATM   15  C7  UNL     1      25.275   3.845  49.319  1.00  0.00    -0.035 A 
HETATM   16  C2  UNL     1      25.344   5.166  48.912  1.00  0.00    -0.054 A 
HETATM   17  C1  UNL     1      26.648   5.870  48.872  1.00  0.00     0.049 C 
HETATM   18  C3  UNL     1      24.206   5.858  48.533  1.00  0.00     0.007 A 
HETATM   19  C4  UNL     1      22.950   5.269  48.543  1.00  0.00     0.001 A 
HETATM   20  C5  UNL     1      22.875   3.952  48.949  1.00  0.00     0.001 A 
HETATM   21  C6  UNL     1      24.008   3.271  49.322  1.00  0.00     0.009 A 
ENDBRANCH  14  15
ENDBRANCH  12  14
ENDBRANCH   1  12
BRANCH   3  22
HETATM   22  C11 UNL     1      24.259   0.264  53.378  1.00  0.00     0.158 A 
HETATM   23  C12 UNL     1      23.324  -0.838  53.380  1.00  0.00     0.004 A 
HETATM   24  C13 UNL     1      22.067  -0.507  53.077  1.00  0.00    -0.000 A 
HETATM   25  C14 UNL     1      22.113   0.933  52.843  1.00  0.00     0.021 A 
HETATM   26  C15 UNL     1      23.351   1.397  53.007  1.00  0.00     0.038 A 
HETATM   27 CL1  UNL     1      23.685   3.088  52.787  1.00  0.00    -0.086 Cl
ENDBRANCH   3  22
TORSDOF 4
ENDMDL
MODEL 3
REMARK VINA RESULT:      -8.4      1.550      2.214
REMARK  4 active torsions:
REMARK  status: ('A' for Active; 'I' for Inactive)
REMARK    1  A    between atoms: C7_7  and  C8_8 
REMARK    2  A    between atoms: C8_8  and  N1_9 
REMARK    3  A    between atoms: N1_9  and  C9_10 
REMARK    4  A    between atoms: N2_12  and  C11_13 
ROOT
HETATM    1  C9  UNL     1      24.920   2.417  51.524  1.00  0.00     0.133 C 
HETATM    2  C10 UNL     1      24.438   1.231  51.864  1.00  0.00     0.142 C 
HETATM    3  N2  UNL     1      24.479   0.228  52.858  1.00  0.00    -0.334 N 
HETATM    4  C16 UNL     1      25.403  -0.840  53.023  1.00  0.00     0.211 C 
HETATM    5  N3  UNL     1      26.288  -0.418  53.864  1.00  0.00    -0.235 NA
HETATM    6  C17 UNL     1      26.268   0.849  54.450  1.00  0.00     0.257 C 
HETATM    7  N4  UNL     1      26.527   2.101  54.286  1.00  0.00    -0.152 NA
HETATM    8  N5  UNL     1      27.050   2.467  53.044  1.00  0.00    -0.217 N 
HETATM    9  N6  UNL     1      25.853   2.973  52.472  1.00  0.00    -0.268 N 
HETATM   10  H18 UNL     1      27.523   2.705  52.155  1.00  0.00     0.210 HD
HETATM   11  H19 UNL     1      25.473   3.935  52.715  1.00  0.00     0.190 HD
ENDROOT
BRANCH   1  12
HETATM   12  N1  UNL     1      24.628   3.180  50.359  1.00  0.00    -0.370 N 
HETATM   13  H10 UNL     1      24.366   2.727  49.476  1.00  0.00     0.161 HD
BRANCH  12  14
HETATM   14  C8  UNL     1      24.725   4.618  50.508  1.00  0.00     0.160 C 
BRANCH  14  15
HETATM   15  C7  UNL     1      25.833   5.198  49.736  1.00  0.00    -0.035 A 
HETATM   16  C2  UNL     1      25.917   6.555  49.476  1.00  0.00    -0.054 A 
HETATM   17  C1  UNL     1      24.874   7.480  49.977  1.00  0.00     0.049 C 
HETATM   18  C3  UNL     1      26.972   7.077  48.746  1.00  0.00     0.007 A 
HETATM   19  C4  UNL     1      27.987   6.277  48.243  1.00  0.00     0.001 A 
HETATM   20  C5  UNL     1      27.907   4.924  48.500  1.00  0.00     0.001 A 
HETATM   21  C6  UNL     1      26.859   4.411  49.225  1.00  0.00     0.009 A 
ENDBRANCH  14  15
ENDBRANCH  12  14
ENDBRANCH   1  12
BRANCH   3  22
HETATM   22  C11 UNL     1      23.505   0.219  53.851  1.00  0.00     0.158 A 
HETATM   23  C12 UNL     1      23.195  -0.988  54.583  1.00  0.00     0.004 A 
HETATM   24  C13 UNL     1      21.899  -1.304  54.620  1.00  0.00    -0.000 A 
HETATM   25  C14 UNL     1      21.241  -0.245  53.859  1.00  0.00     0.021 A 
HETATM   26  C15 UNL     1      22.134   0.636  53.410  1.00  0.00     0.038 A 
HETATM   27 CL1  UNL     1      21.615   2.002  52.471  1.00  0.00    -0.086 Cl
ENDBRANCH   3  22
TORSDOF 4
ENDMDL
MODEL 4
REMARK VINA RESULT:      -8.3      3.128      5.855
REMARK  4 active torsions:
REMARK  status: ('A' for Active; 'I' for Inactive)
REMARK    1  A    between atoms: C7_7  and  C8_8 
REMARK    2  A    between atoms: C8_8  and  N1_9 
REMARK    3  A    between atoms: N1_9  and  C9_10 
REMARK    4  A    between atoms: N2_12  and  C11_13 
ROOT
HETATM    1  C9  UNL     1      24.168   2.455  52.010  1.00  0.00     0.133 C 
HETATM    2  C10 UNL     1      23.103   2.090  52.708  1.00  0.00     0.142 C 
HETATM    3  N2  UNL     1      21.763   1.658  52.598  1.00  0.00    -0.334 N 
HETATM    4  C16 UNL     1      20.577   2.430  52.450  1.00  0.00     0.211 C 
HETATM    5  N3  UNL     1      20.333   2.469  51.182  1.00  0.00    -0.235 NA
HETATM    6  C17 UNL     1      21.126   1.849  50.215  1.00  0.00     0.257 C 
HETATM    7  N4  UNL     1      22.210   1.924  49.521  1.00  0.00    -0.152 NA
HETATM    8  N5  UNL     1      23.009   3.048  49.739  1.00  0.00    -0.217 N 
HETATM    9  N6  UNL     1      23.975   2.437  50.582  1.00  0.00    -0.268 N 
HETATM   10  H18 UNL     1      23.540   3.930  49.846  1.00  0.00     0.210 HD
HETATM   11  H19 UNL     1      24.755   1.826  50.197  1.00  0.00     0.190 HD
ENDROOT
BRANCH   1  12
HETATM   12  N1  UNL     1      25.442   2.853  52.501  1.00  0.00    -0.370 N 
HETATM   13  H10 UNL     1      25.533   3.445  53.335  1.00  0.00     0.161 HD
BRANCH  12  14
HETATM   14  C8  UNL     1      26.584   2.370  51.750  1.00  0.00     0.160 C 
BRANCH  14  15
HETATM   15  C7  UNL     1      27.166   1.148  52.321  1.00  0.00    -0.035 A 
HETATM   16  C2  UNL     1      28.212   1.185  53.228  1.00  0.00    -0.054 A 
HETATM   17  C1  UNL     1      28.785   2.483  53.657  1.00  0.00     0.049 C 
HETATM   18  C3  UNL     1      28.743   0.019  53.753  1.00  0.00     0.007 A 
HETATM   19  C4  UNL     1      28.262  -1.233  53.401  1.00  0.00     0.001 A 
HETATM   20  C5  UNL     1      27.220  -1.275  52.497  1.00  0.00     0.001 A 
HETATM   21  C6  UNL     1      26.696  -0.115  51.980  1.00  0.00     0.009 A 
ENDBRANCH  14  15
ENDBRANCH  12  14
ENDBRANCH   1  12
BRANCH   3  22
HETATM   22  C11 UNL     1      21.485   0.295  52.633  1.00  0.00     0.158 A 
HETATM   23  C12 UNL     1      20.144  -0.188  52.875  1.00  0.00     0.004 A 
HETATM   24  C13 UNL     1      20.044  -1.098  53.846  1.00  0.00    -0.000 A 
HETATM   25  C14 UNL     1      21.412  -1.273  54.328  1.00  0.00     0.021 A 
HETATM   26  C15 UNL     1      22.252  -0.490  53.653  1.00  0.00     0.038 A 
HETATM   27 CL1  UNL     1      23.948  -0.503  54.028  1.00  0.00    -0.086 Cl
ENDBRANCH   3  22
TORSDOF 4
ENDMDL
MODEL 5
REMARK VINA RESULT:      -8.0      3.089      6.290
REMARK  4 active torsions:
REMARK  status: ('A' for Active; 'I' for Inactive)
REMARK    1  A    between atoms: C7_7  and  C8_8 
REMARK    2  A    between atoms: C8_8  and  N1_9 
REMARK    3  A    between atoms: N1_9  and  C9_10 
REMARK    4  A    between atoms: N2_12  and  C11_13 
ROOT
HETATM    1  C9  UNL     1      23.685  -0.297  53.618  1.00  0.00     0.133 C 
HETATM    2  C10 UNL     1      23.369   0.478  52.591  1.00  0.00     0.142 C 
HETATM    3  N2  UNL     1      22.292   1.105  51.927  1.00  0.00    -0.334 N 
HETATM    4  C16 UNL     1      21.408   0.577  50.946  1.00  0.00     0.211 C 
HETATM    5  N3  UNL     1      20.361   0.176  51.589  1.00  0.00    -0.235 NA
HETATM    6  C17 UNL     1      20.208   0.279  52.973  1.00  0.00     0.257 C 
HETATM    7  N4  UNL     1      20.514  -0.230  54.117  1.00  0.00    -0.152 NA
HETATM    8  N5  UNL     1      21.339  -1.356  54.094  1.00  0.00    -0.217 N 
HETATM    9  N6  UNL     1      22.560  -0.707  54.420  1.00  0.00    -0.268 N 
HETATM   10  H18 UNL     1      21.873  -2.242  54.053  1.00  0.00     0.210 HD
HETATM   11  H19 UNL     1      22.800  -0.420  55.414  1.00  0.00     0.190 HD
ENDROOT
BRANCH   1  12
HETATM   12  N1  UNL     1      24.975  -0.756  54.004  1.00  0.00    -0.370 N 
HETATM   13  H10 UNL     1      25.217  -0.904  54.990  1.00  0.00     0.161 HD
BRANCH  12  14
HETATM   14  C8  UNL     1      25.908  -0.995  52.920  1.00  0.00     0.160 C 
BRANCH  14  15
HETATM   15  C7  UNL     1      27.249  -0.461  53.194  1.00  0.00    -0.035 A 
HETATM   16  C2  UNL     1      28.374  -1.267  53.201  1.00  0.00    -0.054 A 
HETATM   17  C1  UNL     1      28.257  -2.719  52.929  1.00  0.00     0.049 C 
HETATM   18  C3  UNL     1      29.628  -0.740  53.462  1.00  0.00     0.007 A 
HETATM   19  C4  UNL     1      29.820   0.608  53.725  1.00  0.00     0.001 A 
HETATM   20  C5  UNL     1      28.701   1.416  53.719  1.00  0.00     0.001 A 
HETATM   21  C6  UNL     1      27.460   0.887  53.460  1.00  0.00     0.009 A 
ENDBRANCH  14  15
ENDBRANCH  12  14
ENDBRANCH   1  12
BRANCH   3  22
HETATM   22  C11 UNL     1      21.994   2.432  52.223  1.00  0.00     0.158 A 
HETATM   23  C12 UNL     1      21.221   3.245  51.311  1.00  0.00     0.004 A 
HETATM   24  C13 UNL     1      21.774   4.419  51.002  1.00  0.00    -0.000 A 
HETATM   25  C14 UNL     1      23.030   4.441  51.747  1.00  0.00     0.021 A 
HETATM   26  C15 UNL     1      23.179   3.320  52.450  1.00  0.00     0.038 A 
HETATM   27 CL1  UNL     1      24.595   3.088  53.430  1.00  0.00    -0.086 Cl
ENDBRANCH   3  22
TORSDOF 4
ENDMDL
MODEL 6
REMARK VINA RESULT:      -7.8      3.001      6.149
REMARK  4 active torsions:
REMARK  status: ('A' for Active; 'I' for Inactive)
REMARK    1  A    between atoms: C7_7  and  C8_8 
REMARK    2  A    between atoms: C8_8  and  N1_9 
REMARK    3  A    between atoms: N1_9  and  C9_10 
REMARK    4  A    between atoms: N2_12  and  C11_13 
ROOT
HETATM    1  C9  UNL     1      24.600   3.035  52.076  1.00  0.00     0.133 C 
HETATM    2  C10 UNL     1      23.503   2.375  51.734  1.00  0.00     0.142 C 
HETATM    3  N2  UNL     1      22.131   2.525  51.434  1.00  0.00    -0.334 N 
HETATM    4  C16 UNL     1      21.017   2.590  52.317  1.00  0.00     0.211 C 
HETATM    5  N3  UNL     1      20.786   3.846  52.506  1.00  0.00    -0.235 NA
HETATM    6  C17 UNL     1      21.528   4.874  51.922  1.00  0.00     0.257 C 
HETATM    7  N4  UNL     1      22.619   5.560  51.973  1.00  0.00    -0.152 NA
HETATM    8  N5  UNL     1      23.511   5.230  52.996  1.00  0.00    -0.217 N 
HETATM    9  N6  UNL     1      24.415   4.457  52.221  1.00  0.00    -0.268 N 
HETATM   10  H18 UNL     1      24.115   5.035  53.813  1.00  0.00     0.210 HD
HETATM   11  H19 UNL     1      25.141   4.904  51.587  1.00  0.00     0.190 HD
ENDROOT
BRANCH   1  12
HETATM   12  N1  UNL     1      25.901   2.509  52.309  1.00  0.00    -0.370 N 
HETATM   13  H10 UNL     1      26.686   2.729  51.687  1.00  0.00     0.161 HD
BRANCH  12  14
HETATM   14  C8  UNL     1      26.034   1.654  53.473  1.00  0.00     0.160 C 
BRANCH  14  15
HETATM   15  C7  UNL     1      27.305   0.917  53.496  1.00  0.00    -0.035 A 
HETATM   16  C2  UNL     1      27.379  -0.431  53.188  1.00  0.00    -0.054 A 
HETATM   17  C1  UNL     1      26.156  -1.183  52.820  1.00  0.00     0.049 C 
HETATM   18  C3  UNL     1      28.588  -1.104  53.217  1.00  0.00     0.007 A 
HETATM   19  C4  UNL     1      29.776  -0.470  53.551  1.00  0.00     0.001 A 
HETATM   20  C5  UNL     1      29.707   0.873  53.858  1.00  0.00     0.001 A 
HETATM   21  C6  UNL     1      28.504   1.536  53.828  1.00  0.00     0.009 A 
ENDBRANCH  14  15
ENDBRANCH  12  14
ENDBRANCH   1  12
BRANCH   3  22
HETATM   22  C11 UNL     1      21.736   2.629  50.104  1.00  0.00     0.158 A 
HETATM   23  C12 UNL     1      21.112   1.519  49.421  1.00  0.00     0.004 A 
HETATM   24  C13 UNL     1      21.668   1.196  48.252  1.00  0.00    -0.000 A 
HETATM   25  C14 UNL     1      22.766   2.145  48.094  1.00  0.00     0.021 A 
HETATM   26  C15 UNL     1      22.827   2.973  49.136  1.00  0.00     0.038 A 
HETATM   27 CL1  UNL     1      24.049   4.206  49.200  1.00  0.00    -0.086 Cl
ENDBRANCH   3  22
TORSDOF 4
ENDMDL
MODEL 7
REMARK VINA RESULT:      -7.8      2.641      7.032
REMARK  4 active torsions:
REMARK  status: ('A' for Active; 'I' for Inactive)
REMARK    1  A    between atoms: C7_7  and  C8_8 
REMARK    2  A    between atoms: C8_8  and  N1_9 
REMARK    3  A    between atoms: N1_9  and  C9_10 
REMARK    4  A    between atoms: N2_12  and  C11_13 
ROOT
HETATM    1  C9  UNL     1      25.665   2.819  51.131  1.00  0.00     0.133 C 
HETATM    2  C10 UNL     1      25.403   3.564  50.067  1.00  0.00     0.142 C 
HETATM    3  N2  UNL     1      24.673   4.684  49.614  1.00  0.00    -0.334 N 
HETATM    4  C16 UNL     1      23.322   4.763  49.176  1.00  0.00     0.211 C 
HETATM    5  N3  UNL     1      22.635   5.133  50.206  1.00  0.00    -0.235 NA
HETATM    6  C17 UNL     1      23.187   5.386  51.463  1.00  0.00     0.257 C 
HETATM    7  N4  UNL     1      23.637   4.862  52.552  1.00  0.00    -0.152 NA
HETATM    8  N5  UNL     1      23.616   3.468  52.624  1.00  0.00    -0.217 N 
HETATM    9  N6  UNL     1      24.987   3.239  52.330  1.00  0.00    -0.268 N 
HETATM   10  H18 UNL     1      23.507   2.441  52.696  1.00  0.00     0.210 HD
HETATM   11  H19 UNL     1      25.750   3.372  53.058  1.00  0.00     0.190 HD
ENDROOT
BRANCH   1  12
HETATM   12  N1  UNL     1      26.517   1.683  51.215  1.00  0.00    -0.370 N 
HETATM   13  H10 UNL     1      27.225   1.491  50.498  1.00  0.00     0.161 HD
BRANCH  12  14
HETATM   14  C8  UNL     1      26.316   0.830  52.371  1.00  0.00     0.160 C 
BRANCH  14  15
HETATM   15  C7  UNL     1      27.561   0.215  52.849  1.00  0.00    -0.035 A 
HETATM   16  C2  UNL     1      27.753  -1.156  52.845  1.00  0.00    -0.054 A 
HETATM   17  C1  UNL     1      26.688  -2.060  52.349  1.00  0.00     0.049 C 
HETATM   18  C3  UNL     1      28.936  -1.712  53.301  1.00  0.00     0.007 A 
HETATM   19  C4  UNL     1      29.979  -0.933  53.781  1.00  0.00     0.001 A 
HETATM   20  C5  UNL     1      29.792   0.434  53.787  1.00  0.00     0.001 A 
HETATM   21  C6  UNL     1      28.616   0.980  53.333  1.00  0.00     0.009 A 
ENDBRANCH  14  15
ENDBRANCH  12  14
ENDBRANCH   1  12
BRANCH   3  22
HETATM   22  C11 UNL     1      25.301   5.925  49.558  1.00  0.00     0.158 A 
HETATM   23  C12 UNL     1      24.601   7.096  49.081  1.00  0.00     0.004 A 
HETATM   24  C13 UNL     1      25.238   7.780  48.129  1.00  0.00    -0.000 A 
HETATM   25  C14 UNL     1      26.479   7.042  47.914  1.00  0.00     0.021 A 
HETATM   26  C15 UNL     1      26.540   5.980  48.716  1.00  0.00     0.038 A 
HETATM   27 CL1  UNL     1      27.918   4.925  48.663  1.00  0.00    -0.086 Cl
ENDBRANCH   3  22
TORSDOF 4
ENDMDL
MODEL 8
REMARK VINA RESULT:      -7.7      3.073      6.670
REMARK  4 active torsions:
REMARK  status: ('A' for Active; 'I' for Inactive)
REMARK    1  A    between atoms: C7_7  and  C8_8 
REMARK    2  A    between atoms: C8_8  and  N1_9 
REMARK    3  A    between atoms: N1_9  and  C9_10 
REMARK    4  A    between atoms: N2_12  and  C11_13 
ROOT
HETATM    1  C9  UNL     1      23.701   4.517  52.043  1.00  0.00     0.133 C 
HETATM    2  C10 UNL     1      22.607   4.401  51.305  1.00  0.00     0.142 C 
HETATM    3  N2  UNL     1      21.854   5.016  50.281  1.00  0.00    -0.334 N 
HETATM    4  C16 UNL     1      20.879   6.048  50.374  1.00  0.00     0.211 C 
HETATM    5  N3  UNL     1      21.506   7.152  50.139  1.00  0.00    -0.235 NA
HETATM    6  C17 UNL     1      22.870   7.231  49.855  1.00  0.00     0.257 C 
HETATM    7  N4  UNL     1      24.061   7.221  50.349  1.00  0.00    -0.152 NA
HETATM    8  N5  UNL     1      24.156   7.076  51.735  1.00  0.00    -0.217 N 
HETATM    9  N6  UNL     1      24.483   5.695  51.762  1.00  0.00    -0.268 N 
HETATM   10  H18 UNL     1      24.204   7.062  52.768  1.00  0.00     0.210 HD
HETATM   11  H19 UNL     1      25.463   5.342  51.551  1.00  0.00     0.190 HD
ENDROOT
BRANCH   1  12
HETATM   12  N1  UNL     1      24.174   3.634  53.053  1.00  0.00    -0.370 N 
HETATM   13  H10 UNL     1      24.807   3.958  53.792  1.00  0.00     0.161 HD
BRANCH  12  14
HETATM   14  C8  UNL     1      23.702   2.266  52.963  1.00  0.00     0.160 C 
BRANCH  14  15
HETATM   15  C7  UNL     1      24.794   1.296  52.803  1.00  0.00    -0.035 A 
HETATM   16  C2  UNL     1      24.660  -0.031  53.174  1.00  0.00    -0.054 A 
HETATM   17  C1  UNL     1      23.387  -0.521  53.754  1.00  0.00     0.049 C 
HETATM   18  C3  UNL     1      25.703  -0.926  53.013  1.00  0.00     0.007 A 
HETATM   19  C4  UNL     1      26.925  -0.545  52.478  1.00  0.00     0.001 A 
HETATM   20  C5  UNL     1      27.064   0.777  52.107  1.00  0.00     0.001 A 
HETATM   21  C6  UNL     1      26.025   1.661  52.268  1.00  0.00     0.009 A 
ENDBRANCH  14  15
ENDBRANCH  12  14
ENDBRANCH   1  12
BRANCH   3  22
HETATM   22  C11 UNL     1      22.037   4.604  48.964  1.00  0.00     0.158 A 
HETATM   23  C12 UNL     1      20.936   4.091  48.182  1.00  0.00     0.004 A 
HETATM   24  C13 UNL     1      21.168   2.916  47.593  1.00  0.00    -0.000 A 
HETATM   25  C14 UNL     1      22.532   2.571  47.985  1.00  0.00     0.021 A 
HETATM   26  C15 UNL     1      23.049   3.517  48.767  1.00  0.00     0.038 A 
HETATM   27 CL1  UNL     1      24.667   3.354  49.378  1.00  0.00    -0.086 Cl
ENDBRANCH   3  22
TORSDOF 4
ENDMDL
MODEL 9
REMARK VINA RESULT:      -7.7      3.026      7.435
REMARK  4 active torsions:
REMARK  status: ('A' for Active; 'I' for Inactive)
REMARK    1  A    between atoms: C7_7  and  C8_8 
REMARK    2  A    between atoms: C8_8  and  N1_9 
REMARK    3  A    between atoms: N1_9  and  C9_10 
REMARK    4  A    between atoms: N2_12  and  C11_13 
ROOT
HETATM    1  C9  UNL     1      23.163   3.101  50.577  1.00  0.00     0.133 C 
HETATM    2  C10 UNL     1      23.832   3.678  49.590  1.00  0.00     0.142 C 
HETATM    3  N2  UNL     1      24.229   4.926  49.061  1.00  0.00    -0.334 N 
HETATM    4  C16 UNL     1      23.515   5.809  48.204  1.00  0.00     0.211 C 
HETATM    5  N3  UNL     1      22.952   6.677  48.977  1.00  0.00    -0.235 NA
HETATM    6  C17 UNL     1      23.071   6.677  50.368  1.00  0.00     0.257 C 
HETATM    7  N4  UNL     1      22.666   6.145  51.470  1.00  0.00    -0.152 NA
HETATM    8  N5  UNL     1      21.709   5.134  51.355  1.00  0.00    -0.217 N 
HETATM    9  N6  UNL     1      22.581   4.025  51.518  1.00  0.00    -0.268 N 
HETATM   10  H18 UNL     1      20.935   4.454  51.257  1.00  0.00     0.210 HD
HETATM   11  H19 UNL     1      22.940   3.723  52.472  1.00  0.00     0.190 HD
ENDROOT
BRANCH   1  12
HETATM   12  N1  UNL     1      22.961   1.711  50.803  1.00  0.00    -0.370 N 
HETATM   13  H10 UNL     1      22.320   1.163  50.219  1.00  0.00     0.161 HD
BRANCH  12  14
HETATM   14  C8  UNL     1      23.715   1.136  51.899  1.00  0.00     0.160 C 
BRANCH  14  15
HETATM   15  C7  UNL     1      22.883   0.330  52.803  1.00  0.00    -0.035 A 
HETATM   16  C2  UNL     1      23.428  -0.431  53.823  1.00  0.00    -0.054 A 
HETATM   17  C1  UNL     1      24.894  -0.456  54.037  1.00  0.00     0.049 C 
HETATM   18  C3  UNL     1      22.623  -1.182  54.662  1.00  0.00     0.007 A 
HETATM   19  C4  UNL     1      21.242  -1.211  54.526  1.00  0.00     0.001 A 
HETATM   20  C5  UNL     1      20.694  -0.454  53.511  1.00  0.00     0.001 A 
HETATM   21  C6  UNL     1      21.498   0.289  52.681  1.00  0.00     0.009 A 
ENDBRANCH  14  15
ENDBRANCH  12  14
ENDBRANCH   1  12
BRANCH   3  22
HETATM   22  C11 UNL     1      25.488   5.427  49.377  1.00  0.00     0.158 A 
HETATM   23  C12 UNL     1      26.122   6.430  48.553  1.00  0.00     0.004 A 
HETATM   24  C13 UNL     1      27.367   6.138  48.174  1.00  0.00    -0.000 A 
HETATM   25  C14 UNL     1      27.637   4.834  48.772  1.00  0.00     0.021 A 
HETATM   26  C15 UNL     1      26.582   4.406  49.463  1.00  0.00     0.038 A 
HETATM   27 CL1  UNL     1      26.637   2.874  50.279  1.00  0.00    -0.086 Cl
ENDBRANCH   3  22
TORSDOF 4
ENDMDL
