MODEL 1
REMARK VINA RESULT:      -7.3      0.000      0.000
REMARK  8 active torsions:
REMARK  status: ('A' for Active; 'I' for Inactive)
REMARK       I    between atoms: C2_3  and  N2_5 
REMARK    1  A    between atoms: N2_5  and  P1_6 
REMARK    2  A    between atoms: P1_6  and  C3_7 
REMARK    3  A    between atoms: C3_7  and  C4_8 
REMARK    4  A    between atoms: C5_9  and  N3_10 
REMARK    5  A    between atoms: N3_10  and  C6_11 
REMARK    6  A    between atoms: C9_14  and  O2_15 
REMARK    7  A    between atoms: O2_15  and  C10_16 
REMARK    8  A    between atoms: C10_16  and  C11_17 
ROOT
HETATM    1  N1  UNL     1      12.281   4.643  54.467  1.00  0.00    -0.186 NA
HETATM    2  C1  UNL     1      13.240   4.288  53.883  1.00  0.00     0.162 C 
HETATM    3  C2  UNL     1      14.428   3.859  53.185  1.00  0.00     0.326 C 
HETATM    4  O1  UNL     1      15.534   4.416  53.422  1.00  0.00    -0.256 OA
HETATM    5  N2  UNL     1      14.361   2.807  52.228  1.00  0.00    -0.315 N 
HETATM    6  H1  UNL     1      13.421   2.392  52.080  1.00  0.00     0.169 HD
ENDROOT
BRANCH   5   7
HETATM    7  P1  UNL     1      15.951   2.430  51.479  1.00  0.00     0.063 P 
BRANCH   7   8
HETATM    8  C3  UNL     1      16.570   0.908  51.722  1.00  0.00     0.036 C 
BRANCH   8   9
HETATM    9  C4  UNL     1      17.944   0.877  51.176  1.00  0.00     0.020 C 
HETATM   10  C5  UNL     1      18.710   1.932  51.139  1.00  0.00     0.088 C 
BRANCH  10  11
HETATM   11  N3  UNL     1      20.042   1.910  50.611  1.00  0.00    -0.366 N 
HETATM   12  H5  UNL     1      20.101   2.197  49.614  1.00  0.00     0.165 HD
BRANCH  11  13
HETATM   13  C6  UNL     1      21.196   1.536  51.350  1.00  0.00     0.033 A 
HETATM   14  C7  UNL     1      21.419   0.204  51.575  1.00  0.00     0.032 A 
HETATM   15  C8  UNL     1      22.528  -0.141  52.285  1.00  0.00     0.041 A 
HETATM   16  C9  UNL     1      23.459   0.697  52.809  1.00  0.00     0.091 A 
HETATM   17  C17 UNL     1      23.204   2.059  52.561  1.00  0.00     0.069 A 
HETATM   18 CL1  UNL     1      24.176   3.427  53.074  1.00  0.00    -0.081 Cl
HETATM   19  C18 UNL     1      22.087   2.482  51.840  1.00  0.00     0.056 A 
BRANCH  16  20
HETATM   20  O2  UNL     1      24.597   0.618  53.519  1.00  0.00    -0.345 OA
BRANCH  20  21
HETATM   21  C10 UNL     1      25.401  -0.471  53.795  1.00  0.00     0.214 C 
BRANCH  21  22
HETATM   22  C11 UNL     1      26.852  -0.173  53.807  1.00  0.00    -0.031 A 
HETATM   23  C12 UNL     1      27.629  -1.226  53.301  1.00  0.00     0.009 A 
HETATM   24  C13 UNL     1      29.005  -1.219  53.213  1.00  0.00     0.004 A 
HETATM   25  C14 UNL     1      29.697  -0.108  53.647  1.00  0.00     0.042 A 
HETATM   26  C15 UNL     1      28.951   0.937  54.149  1.00  0.00     0.117 A 
HETATM   27  F1  UNL     1      29.504   2.092  54.613  1.00  0.00    -0.206 F 
HETATM   28  C16 UNL     1      27.578   0.917  54.231  1.00  0.00     0.051 A 
ENDBRANCH  21  22
ENDBRANCH  20  21
ENDBRANCH  16  20
ENDBRANCH  11  13
ENDBRANCH  10  11
ENDBRANCH   8   9
ENDBRANCH   7   8
ENDBRANCH   5   7
TORSDOF 8
ENDMDL
MODEL 2
REMARK VINA RESULT:      -6.8      7.770     10.687
REMARK  8 active torsions:
REMARK  status: ('A' for Active; 'I' for Inactive)
REMARK       I    between atoms: C2_3  and  N2_5 
REMARK    1  A    between atoms: N2_5  and  P1_6 
REMARK    2  A    between atoms: P1_6  and  C3_7 
REMARK    3  A    between atoms: C3_7  and  C4_8 
REMARK    4  A    between atoms: C5_9  and  N3_10 
REMARK    5  A    between atoms: N3_10  and  C6_11 
REMARK    6  A    between atoms: C9_14  and  O2_15 
REMARK    7  A    between atoms: O2_15  and  C10_16 
REMARK    8  A    between atoms: C10_16  and  C11_17 
ROOT
HETATM    1  N1  UNL     1      31.916   7.670  44.373  1.00  0.00    -0.186 NA
HETATM    2  C1  UNL     1      31.428   8.334  45.216  1.00  0.00     0.162 C 
HETATM    3  C2  UNL     1      30.816   9.156  46.231  1.00  0.00     0.326 C 
HETATM    4  O1  UNL     1      30.328  10.277  45.924  1.00  0.00    -0.256 OA
HETATM    5  N2  UNL     1      30.758   8.708  47.582  1.00  0.00    -0.315 N 
HETATM    6  H1  UNL     1      31.177   7.777  47.766  1.00  0.00     0.169 HD
ENDROOT
BRANCH   5   7
HETATM    7  P1  UNL     1      29.954   9.881  48.681  1.00  0.00     0.063 P 
BRANCH   7   8
HETATM    8  C3  UNL     1      28.611   9.360  49.508  1.00  0.00     0.036 C 
BRANCH   8   9
HETATM    9  C4  UNL     1      28.186   8.068  48.928  1.00  0.00     0.020 C 
HETATM   10  C5  UNL     1      26.938   7.689  48.894  1.00  0.00     0.088 C 
BRANCH  10  11
HETATM   11  N3  UNL     1      26.518   6.438  48.333  1.00  0.00    -0.366 N 
HETATM   12  H5  UNL     1      26.534   6.420  47.295  1.00  0.00     0.165 HD
BRANCH  11  13
HETATM   13  C6  UNL     1      26.113   5.310  49.094  1.00  0.00     0.033 A 
HETATM   14  C7  UNL     1      26.967   4.243  49.178  1.00  0.00     0.032 A 
HETATM   15  C8  UNL     1      26.567   3.166  49.910  1.00  0.00     0.041 A 
HETATM   16  C9  UNL     1      25.395   3.022  50.580  1.00  0.00     0.091 A 
HETATM   17  C17 UNL     1      24.538   4.134  50.476  1.00  0.00     0.069 A 
HETATM   18 CL1  UNL     1      22.950   4.316  51.201  1.00  0.00    -0.081 Cl
HETATM   19  C18 UNL     1      24.885   5.269  49.743  1.00  0.00     0.056 A 
BRANCH  16  20
HETATM   20  O2  UNL     1      24.781   2.104  51.345  1.00  0.00    -0.345 OA
BRANCH  20  21
HETATM   21  C10 UNL     1      25.020   1.729  52.652  1.00  0.00     0.214 C 
BRANCH  21  22
HETATM   22  C11 UNL     1      26.118   0.749  52.817  1.00  0.00    -0.031 A 
HETATM   23  C12 UNL     1      27.329   1.346  53.199  1.00  0.00     0.009 A 
HETATM   24  C13 UNL     1      28.512   0.669  53.404  1.00  0.00     0.004 A 
HETATM   25  C14 UNL     1      28.538  -0.699  53.229  1.00  0.00     0.042 A 
HETATM   26  C15 UNL     1      27.358  -1.304  52.852  1.00  0.00     0.117 A 
HETATM   27  F1  UNL     1      27.241  -2.645  52.643  1.00  0.00    -0.206 F 
HETATM   28  C16 UNL     1      26.185  -0.615  52.651  1.00  0.00     0.051 A 
ENDBRANCH  21  22
ENDBRANCH  20  21
ENDBRANCH  16  20
ENDBRANCH  11  13
ENDBRANCH  10  11
ENDBRANCH   8   9
ENDBRANCH   7   8
ENDBRANCH   5   7
TORSDOF 8
ENDMDL
MODEL 3
REMARK VINA RESULT:      -6.7      2.211      2.431
REMARK  8 active torsions:
REMARK  status: ('A' for Active; 'I' for Inactive)
REMARK       I    between atoms: C2_3  and  N2_5 
REMARK    1  A    between atoms: N2_5  and  P1_6 
REMARK    2  A    between atoms: P1_6  and  C3_7 
REMARK    3  A    between atoms: C3_7  and  C4_8 
REMARK    4  A    between atoms: C5_9  and  N3_10 
REMARK    5  A    between atoms: N3_10  and  C6_11 
REMARK    6  A    between atoms: C9_14  and  O2_15 
REMARK    7  A    between atoms: O2_15  and  C10_16 
REMARK    8  A    between atoms: C10_16  and  C11_17 
ROOT
HETATM    1  N1  UNL     1      12.039   3.368  53.250  1.00  0.00    -0.186 NA
HETATM    2  C1  UNL     1      12.772   2.517  52.896  1.00  0.00     0.162 C 
HETATM    3  C2  UNL     1      13.652   1.462  52.452  1.00  0.00     0.326 C 
HETATM    4  O1  UNL     1      13.214   0.286  52.333  1.00  0.00    -0.256 OA
HETATM    5  N2  UNL     1      15.014   1.742  52.148  1.00  0.00    -0.315 N 
HETATM    6  H1  UNL     1      15.309   2.730  52.267  1.00  0.00     0.169 HD
ENDROOT
BRANCH   5   7
HETATM    7  P1  UNL     1      15.931   0.291  51.614  1.00  0.00     0.063 P 
BRANCH   7   8
HETATM    8  C3  UNL     1      15.638  -1.137  52.412  1.00  0.00     0.036 C 
BRANCH   8   9
HETATM    9  C4  UNL     1      16.872  -1.527  53.127  1.00  0.00     0.020 C 
HETATM   10  C5  UNL     1      18.008  -0.910  52.956  1.00  0.00     0.088 C 
BRANCH  10  11
HETATM   11  N3  UNL     1      19.209  -1.283  53.645  1.00  0.00    -0.366 N 
HETATM   12  H5  UNL     1      19.090  -2.094  54.282  1.00  0.00     0.165 HD
BRANCH  11  13
HETATM   13  C6  UNL     1      20.460  -0.628  53.496  1.00  0.00     0.033 A 
HETATM   14  C7  UNL     1      21.576  -1.239  54.003  1.00  0.00     0.032 A 
HETATM   15  C8  UNL     1      22.770  -0.601  53.855  1.00  0.00     0.041 A 
HETATM   16  C9  UNL     1      22.990   0.595  53.251  1.00  0.00     0.091 A 
HETATM   17  C17 UNL     1      21.826   1.197  52.738  1.00  0.00     0.069 A 
HETATM   18 CL1  UNL     1      21.714   2.733  51.897  1.00  0.00    -0.081 Cl
HETATM   19  C18 UNL     1      20.571   0.600  52.855  1.00  0.00     0.056 A 
BRANCH  16  20
HETATM   20  O2  UNL     1      24.024   1.409  52.980  1.00  0.00    -0.345 OA
BRANCH  20  21
HETATM   21  C10 UNL     1      25.031   1.290  52.043  1.00  0.00     0.214 C 
BRANCH  21  22
HETATM   22  C11 UNL     1      26.395   1.216  52.616  1.00  0.00    -0.031 A 
HETATM   23  C12 UNL     1      26.761  -0.086  52.990  1.00  0.00     0.009 A 
HETATM   24  C13 UNL     1      27.966  -0.433  53.563  1.00  0.00     0.004 A 
HETATM   25  C14 UNL     1      28.902   0.552  53.799  1.00  0.00     0.042 A 
HETATM   26  C15 UNL     1      28.561   1.838  53.440  1.00  0.00     0.117 A 
HETATM   27  F1  UNL     1      29.388   2.906  53.617  1.00  0.00    -0.206 F 
HETATM   28  C16 UNL     1      27.355   2.170  52.869  1.00  0.00     0.051 A 
ENDBRANCH  21  22
ENDBRANCH  20  21
ENDBRANCH  16  20
ENDBRANCH  11  13
ENDBRANCH  10  11
ENDBRANCH   8   9
ENDBRANCH   7   8
ENDBRANCH   5   7
TORSDOF 8
ENDMDL
MODEL 4
REMARK VINA RESULT:      -6.6      4.026      5.139
REMARK  8 active torsions:
REMARK  status: ('A' for Active; 'I' for Inactive)
REMARK       I    between atoms: C2_3  and  N2_5 
REMARK    1  A    between atoms: N2_5  and  P1_6 
REMARK    2  A    between atoms: P1_6  and  C3_7 
REMARK    3  A    between atoms: C3_7  and  C4_8 
REMARK    4  A    between atoms: C5_9  and  N3_10 
REMARK    5  A    between atoms: N3_10  and  C6_11 
REMARK    6  A    between atoms: C9_14  and  O2_15 
REMARK    7  A    between atoms: O2_15  and  C10_16 
REMARK    8  A    between atoms: C10_16  and  C11_17 
ROOT
HETATM    1  N1  UNL     1      23.274   0.298  52.698  1.00  0.00    -0.186 NA
HETATM    2  C1  UNL     1      22.486   0.643  51.893  1.00  0.00     0.162 C 
HETATM    3  C2  UNL     1      21.517   1.043  50.901  1.00  0.00     0.326 C 
HETATM    4  O1  UNL     1      21.339   0.335  49.873  1.00  0.00    -0.256 OA
HETATM    5  N2  UNL     1      20.759   2.235  51.075  1.00  0.00    -0.315 N 
HETATM    6  H1  UNL     1      20.954   2.771  51.943  1.00  0.00     0.169 HD
ENDROOT
BRANCH   5   7
HETATM    7  P1  UNL     1      19.612   2.547  49.727  1.00  0.00     0.063 P 
BRANCH   7   8
HETATM    8  C3  UNL     1      19.880   3.891  48.789  1.00  0.00     0.036 C 
BRANCH   8   9
HETATM    9  C4  UNL     1      21.244   4.387  49.073  1.00  0.00     0.020 C 
HETATM   10  C5  UNL     1      22.308   3.866  48.528  1.00  0.00     0.088 C 
BRANCH  10  11
HETATM   11  N3  UNL     1      23.634   4.341  48.798  1.00  0.00    -0.366 N 
HETATM   12  H5  UNL     1      23.920   5.142  48.202  1.00  0.00     0.165 HD
BRANCH  11  13
HETATM   13  C6  UNL     1      24.501   3.794  49.780  1.00  0.00     0.033 A 
HETATM   14  C7  UNL     1      25.688   3.249  49.366  1.00  0.00     0.032 A 
HETATM   15  C8  UNL     1      26.511   2.727  50.317  1.00  0.00     0.041 A 
HETATM   16  C9  UNL     1      26.290   2.680  51.655  1.00  0.00     0.091 A 
HETATM   17  C17 UNL     1      25.064   3.247  52.050  1.00  0.00     0.069 A 
HETATM   18 CL1  UNL     1      24.435   3.370  53.685  1.00  0.00    -0.081 Cl
HETATM   19  C18 UNL     1      24.174   3.800  51.130  1.00  0.00     0.056 A 
BRANCH  16  20
HETATM   20  O2  UNL     1      26.912   2.240  52.762  1.00  0.00    -0.345 OA
BRANCH  20  21
HETATM   21  C10 UNL     1      26.605   1.183  53.596  1.00  0.00     0.214 C 
BRANCH  21  22
HETATM   22  C11 UNL     1      27.489   0.004  53.440  1.00  0.00    -0.031 A 
HETATM   23  C12 UNL     1      26.846  -1.081  52.827  1.00  0.00     0.009 A 
HETATM   24  C13 UNL     1      27.431  -2.304  52.576  1.00  0.00     0.004 A 
HETATM   25  C14 UNL     1      28.744  -2.506  52.945  1.00  0.00     0.042 A 
HETATM   26  C15 UNL     1      29.393  -1.451  53.550  1.00  0.00     0.117 A 
HETATM   27  F1  UNL     1      30.688  -1.512  53.966  1.00  0.00    -0.206 F 
HETATM   28  C16 UNL     1      28.797  -0.236  53.795  1.00  0.00     0.051 A 
ENDBRANCH  21  22
ENDBRANCH  20  21
ENDBRANCH  16  20
ENDBRANCH  11  13
ENDBRANCH  10  11
ENDBRANCH   8   9
ENDBRANCH   7   8
ENDBRANCH   5   7
TORSDOF 8
ENDMDL
MODEL 5
REMARK VINA RESULT:      -6.5      7.468     10.280
REMARK  8 active torsions:
REMARK  status: ('A' for Active; 'I' for Inactive)
REMARK       I    between atoms: C2_3  and  N2_5 
REMARK    1  A    between atoms: N2_5  and  P1_6 
REMARK    2  A    between atoms: P1_6  and  C3_7 
REMARK    3  A    between atoms: C3_7  and  C4_8 
REMARK    4  A    between atoms: C5_9  and  N3_10 
REMARK    5  A    between atoms: N3_10  and  C6_11 
REMARK    6  A    between atoms: C9_14  and  O2_15 
REMARK    7  A    between atoms: O2_15  and  C10_16 
REMARK    8  A    between atoms: C10_16  and  C11_17 
ROOT
HETATM    1  N1  UNL     1      29.211  12.617  45.571  1.00  0.00    -0.186 NA
HETATM    2  C1  UNL     1      28.942  11.697  46.256  1.00  0.00     0.162 C 
HETATM    3  C2  UNL     1      28.618  10.556  47.078  1.00  0.00     0.326 C 
HETATM    4  O1  UNL     1      28.181   9.500  46.545  1.00  0.00    -0.256 OA
HETATM    5  N2  UNL     1      28.789  10.613  48.490  1.00  0.00    -0.315 N 
HETATM    6  H1  UNL     1      29.153  11.511  48.864  1.00  0.00     0.169 HD
ENDROOT
BRANCH   5   7
HETATM    7  P1  UNL     1      28.329   9.087  49.321  1.00  0.00     0.063 P 
BRANCH   7   8
HETATM    8  C3  UNL     1      26.847   9.040  50.069  1.00  0.00     0.036 C 
BRANCH   8   9
HETATM    9  C4  UNL     1      26.258   7.703  49.841  1.00  0.00     0.020 C 
HETATM   10  C5  UNL     1      26.783   6.834  49.022  1.00  0.00     0.088 C 
BRANCH  10  11
HETATM   11  N3  UNL     1      26.217   5.536  48.795  1.00  0.00    -0.366 N 
HETATM   12  H5  UNL     1      26.125   5.291  47.791  1.00  0.00     0.165 HD
BRANCH  11  13
HETATM   13  C6  UNL     1      25.811   4.644  49.822  1.00  0.00     0.033 A 
HETATM   14  C7  UNL     1      26.602   3.558  50.088  1.00  0.00     0.032 A 
HETATM   15  C8  UNL     1      26.201   2.709  51.075  1.00  0.00     0.041 A 
HETATM   16  C9  UNL     1      25.086   2.813  51.842  1.00  0.00     0.091 A 
HETATM   17  C17 UNL     1      24.294   3.938  51.547  1.00  0.00     0.069 A 
HETATM   18 CL1  UNL     1      22.790   4.405  52.322  1.00  0.00    -0.081 Cl
HETATM   19  C18 UNL     1      24.645   4.848  50.550  1.00  0.00     0.056 A 
BRANCH  16  20
HETATM   20  O2  UNL     1      24.486   2.142  52.840  1.00  0.00    -0.345 OA
BRANCH  20  21
HETATM   21  C10 UNL     1      24.417   0.785  53.085  1.00  0.00     0.214 C 
BRANCH  21  22
HETATM   22  C11 UNL     1      23.046   0.273  53.314  1.00  0.00    -0.031 A 
HETATM   23  C12 UNL     1      23.020  -0.881  54.111  1.00  0.00     0.009 A 
HETATM   24  C13 UNL     1      21.879  -1.570  54.463  1.00  0.00     0.004 A 
HETATM   25  C14 UNL     1      20.658  -1.115  54.015  1.00  0.00     0.042 A 
HETATM   26  C15 UNL     1      20.662   0.018  53.229  1.00  0.00     0.117 A 
HETATM   27  F1  UNL     1      19.529   0.575  52.717  1.00  0.00    -0.206 F 
HETATM   28  C16 UNL     1      21.808   0.696  52.885  1.00  0.00     0.051 A 
ENDBRANCH  21  22
ENDBRANCH  20  21
ENDBRANCH  16  20
ENDBRANCH  11  13
ENDBRANCH  10  11
ENDBRANCH   8   9
ENDBRANCH   7   8
ENDBRANCH   5   7
TORSDOF 8
ENDMDL
MODEL 6
REMARK VINA RESULT:      -6.5      2.551      3.510
REMARK  8 active torsions:
REMARK  status: ('A' for Active; 'I' for Inactive)
REMARK       I    between atoms: C2_3  and  N2_5 
REMARK    1  A    between atoms: N2_5  and  P1_6 
REMARK    2  A    between atoms: P1_6  and  C3_7 
REMARK    3  A    between atoms: C3_7  and  C4_8 
REMARK    4  A    between atoms: C5_9  and  N3_10 
REMARK    5  A    between atoms: N3_10  and  C6_11 
REMARK    6  A    between atoms: C9_14  and  O2_15 
REMARK    7  A    between atoms: O2_15  and  C10_16 
REMARK    8  A    between atoms: C10_16  and  C11_17 
ROOT
HETATM    1  N1  UNL     1      13.429   4.671  53.964  1.00  0.00    -0.186 NA
HETATM    2  C1  UNL     1      13.101   3.546  53.840  1.00  0.00     0.162 C 
HETATM    3  C2  UNL     1      12.688   2.169  53.709  1.00  0.00     0.326 C 
HETATM    4  O1  UNL     1      12.494   1.469  54.739  1.00  0.00    -0.256 OA
HETATM    5  N2  UNL     1      12.497   1.595  52.420  1.00  0.00    -0.315 N 
HETATM    6  H1  UNL     1      12.673   2.225  51.615  1.00  0.00     0.169 HD
ENDROOT
BRANCH   5   7
HETATM    7  P1  UNL     1      11.983  -0.126  52.483  1.00  0.00     0.063 P 
BRANCH   7   8
HETATM    8  C3  UNL     1      13.080  -1.272  51.989  1.00  0.00     0.036 C 
BRANCH   8   9
HETATM    9  C4  UNL     1      14.256  -0.572  51.428  1.00  0.00     0.020 C 
HETATM   10  C5  UNL     1      15.481  -0.914  51.716  1.00  0.00     0.088 C 
BRANCH  10  11
HETATM   11  N3  UNL     1      16.625  -0.240  51.176  1.00  0.00    -0.366 N 
HETATM   12  H5  UNL     1      16.442   0.233  50.270  1.00  0.00     0.165 HD
BRANCH  11  13
HETATM   13  C6  UNL     1      17.904  -0.203  51.792  1.00  0.00     0.033 A 
HETATM   14  C7  UNL     1      18.114  -0.981  52.899  1.00  0.00     0.032 A 
HETATM   15  C8  UNL     1      19.344  -0.936  53.482  1.00  0.00     0.041 A 
HETATM   16  C9  UNL     1      20.410  -0.193  53.087  1.00  0.00     0.091 A 
HETATM   17  C17 UNL     1      20.164   0.595  51.947  1.00  0.00     0.069 A 
HETATM   18 CL1  UNL     1      21.292   1.677  51.149  1.00  0.00    -0.081 Cl
HETATM   19  C18 UNL     1      18.929   0.597  51.301  1.00  0.00     0.056 A 
BRANCH  16  20
HETATM   20  O2  UNL     1      21.680   0.024  53.468  1.00  0.00    -0.345 OA
BRANCH  20  21
HETATM   21  C10 UNL     1      22.779  -0.811  53.425  1.00  0.00     0.214 C 
BRANCH  21  22
HETATM   22  C11 UNL     1      24.074  -0.130  53.653  1.00  0.00    -0.031 A 
HETATM   23  C12 UNL     1      24.145   1.128  53.037  1.00  0.00     0.009 A 
HETATM   24  C13 UNL     1      25.240   1.964  53.075  1.00  0.00     0.004 A 
HETATM   25  C14 UNL     1      26.365   1.561  53.763  1.00  0.00     0.042 A 
HETATM   26  C15 UNL     1      26.316   0.326  54.374  1.00  0.00     0.117 A 
HETATM   27  F1  UNL     1      27.355  -0.196  55.083  1.00  0.00    -0.206 F 
HETATM   28  C16 UNL     1      25.217  -0.498  54.327  1.00  0.00     0.051 A 
ENDBRANCH  21  22
ENDBRANCH  20  21
ENDBRANCH  16  20
ENDBRANCH  11  13
ENDBRANCH  10  11
ENDBRANCH   8   9
ENDBRANCH   7   8
ENDBRANCH   5   7
TORSDOF 8
ENDMDL
MODEL 7
REMARK VINA RESULT:      -6.5      7.115     10.120
REMARK  8 active torsions:
REMARK  status: ('A' for Active; 'I' for Inactive)
REMARK       I    between atoms: C2_3  and  N2_5 
REMARK    1  A    between atoms: N2_5  and  P1_6 
REMARK    2  A    between atoms: P1_6  and  C3_7 
REMARK    3  A    between atoms: C3_7  and  C4_8 
REMARK    4  A    between atoms: C5_9  and  N3_10 
REMARK    5  A    between atoms: N3_10  and  C6_11 
REMARK    6  A    between atoms: C9_14  and  O2_15 
REMARK    7  A    between atoms: O2_15  and  C10_16 
REMARK    8  A    between atoms: C10_16  and  C11_17 
ROOT
HETATM    1  N1  UNL     1      29.391   9.510  44.221  1.00  0.00    -0.186 NA
HETATM    2  C1  UNL     1      29.137   9.520  45.372  1.00  0.00     0.162 C 
HETATM    3  C2  UNL     1      28.849   9.529  46.786  1.00  0.00     0.326 C 
HETATM    4  O1  UNL     1      29.565   8.860  47.579  1.00  0.00    -0.256 OA
HETATM    5  N2  UNL     1      27.758  10.291  47.293  1.00  0.00    -0.315 N 
HETATM    6  H1  UNL     1      27.210  10.818  46.587  1.00  0.00     0.169 HD
ENDROOT
BRANCH   5   7
HETATM    7  P1  UNL     1      27.577  10.164  49.077  1.00  0.00     0.063 P 
BRANCH   7   8
HETATM    8  C3  UNL     1      26.230   9.382  49.656  1.00  0.00     0.036 C 
BRANCH   8   9
HETATM    9  C4  UNL     1      26.584   7.965  49.886  1.00  0.00     0.020 C 
HETATM   10  C5  UNL     1      26.579   7.075  48.932  1.00  0.00     0.088 C 
BRANCH  10  11
HETATM   11  N3  UNL     1      26.920   5.699  49.149  1.00  0.00    -0.366 N 
HETATM   12  H5  UNL     1      27.912   5.478  48.938  1.00  0.00     0.165 HD
BRANCH  11  13
HETATM   13  C6  UNL     1      26.014   4.707  49.606  1.00  0.00     0.033 A 
HETATM   14  C7  UNL     1      24.693   4.828  49.267  1.00  0.00     0.032 A 
HETATM   15  C8  UNL     1      23.834   3.869  49.712  1.00  0.00     0.041 A 
HETATM   16  C9  UNL     1      24.138   2.785  50.470  1.00  0.00     0.091 A 
HETATM   17  C17 UNL     1      25.502   2.687  50.803  1.00  0.00     0.069 A 
HETATM   18 CL1  UNL     1      26.269   1.432  51.761  1.00  0.00    -0.081 Cl
HETATM   19  C18 UNL     1      26.437   3.632  50.380  1.00  0.00     0.056 A 
BRANCH  16  20
HETATM   20  O2  UNL     1      23.508   1.734  51.020  1.00  0.00    -0.345 OA
BRANCH  20  21
HETATM   21  C10 UNL     1      22.473   1.694  51.935  1.00  0.00     0.214 C 
BRANCH  21  22
HETATM   22  C11 UNL     1      22.565   0.586  52.914  1.00  0.00    -0.031 A 
HETATM   23  C12 UNL     1      21.394  -0.184  52.977  1.00  0.00     0.009 A 
HETATM   24  C13 UNL     1      21.204  -1.263  53.814  1.00  0.00     0.004 A 
HETATM   25  C14 UNL     1      22.223  -1.637  54.663  1.00  0.00     0.042 A 
HETATM   26  C15 UNL     1      23.381  -0.892  54.617  1.00  0.00     0.117 A 
HETATM   27  F1  UNL     1      24.465  -1.150  55.401  1.00  0.00    -0.206 F 
HETATM   28  C16 UNL     1      23.557   0.182  53.777  1.00  0.00     0.051 A 
ENDBRANCH  21  22
ENDBRANCH  20  21
ENDBRANCH  16  20
ENDBRANCH  11  13
ENDBRANCH  10  11
ENDBRANCH   8   9
ENDBRANCH   7   8
ENDBRANCH   5   7
TORSDOF 8
ENDMDL
MODEL 8
REMARK VINA RESULT:      -6.5      5.302      9.579
REMARK  8 active torsions:
REMARK  status: ('A' for Active; 'I' for Inactive)
REMARK       I    between atoms: C2_3  and  N2_5 
REMARK    1  A    between atoms: N2_5  and  P1_6 
REMARK    2  A    between atoms: P1_6  and  C3_7 
REMARK    3  A    between atoms: C3_7  and  C4_8 
REMARK    4  A    between atoms: C5_9  and  N3_10 
REMARK    5  A    between atoms: N3_10  and  C6_11 
REMARK    6  A    between atoms: C9_14  and  O2_15 
REMARK    7  A    between atoms: O2_15  and  C10_16 
REMARK    8  A    between atoms: C10_16  and  C11_17 
ROOT
HETATM    1  N1  UNL     1      22.644   3.535  50.893  1.00  0.00    -0.186 NA
HETATM    2  C1  UNL     1      23.243   2.789  51.581  1.00  0.00     0.162 C 
HETATM    3  C2  UNL     1      23.977   1.892  52.440  1.00  0.00     0.326 C 
HETATM    4  O1  UNL     1      24.828   2.351  53.249  1.00  0.00    -0.256 OA
HETATM    5  N2  UNL     1      23.747   0.488  52.380  1.00  0.00    -0.315 N 
HETATM    6  H1  UNL     1      23.034   0.177  51.693  1.00  0.00     0.169 HD
ENDROOT
BRANCH   5   7
HETATM    7  P1  UNL     1      24.764  -0.444  53.532  1.00  0.00     0.063 P 
BRANCH   7   8
HETATM    8  C3  UNL     1      24.095  -0.835  55.002  1.00  0.00     0.036 C 
BRANCH   8   9
HETATM    9  C4  UNL     1      22.716  -1.316  54.767  1.00  0.00     0.020 C 
HETATM   10  C5  UNL     1      21.685  -0.518  54.763  1.00  0.00     0.088 C 
BRANCH  10  11
HETATM   11  N3  UNL     1      20.345  -0.977  54.536  1.00  0.00    -0.366 N 
HETATM   12  H5  UNL     1      19.970  -1.565  55.306  1.00  0.00     0.165 HD
BRANCH  11  13
HETATM   13  C6  UNL     1      19.575  -0.677  53.382  1.00  0.00     0.033 A 
HETATM   14  C7  UNL     1      18.295  -1.161  53.313  1.00  0.00     0.032 A 
HETATM   15  C8  UNL     1      17.566  -0.867  52.200  1.00  0.00     0.041 A 
HETATM   16  C9  UNL     1      17.967  -0.136  51.129  1.00  0.00     0.091 A 
HETATM   17  C17 UNL     1      19.285   0.348  51.229  1.00  0.00     0.069 A 
HETATM   18 CL1  UNL     1      20.144   1.324  50.050  1.00  0.00    -0.081 Cl
HETATM   19  C18 UNL     1      20.087   0.085  52.339  1.00  0.00     0.056 A 
BRANCH  16  20
HETATM   20  O2  UNL     1      17.466   0.284  49.955  1.00  0.00    -0.345 OA
BRANCH  20  21
HETATM   21  C10 UNL     1      16.298   0.967  49.678  1.00  0.00     0.214 C 
BRANCH  21  22
HETATM   22  C11 UNL     1      15.883   1.922  50.732  1.00  0.00    -0.031 A 
HETATM   23  C12 UNL     1      16.657   3.092  50.744  1.00  0.00     0.009 A 
HETATM   24  C13 UNL     1      16.496   4.135  51.631  1.00  0.00     0.004 A 
HETATM   25  C14 UNL     1      15.508   4.051  52.589  1.00  0.00     0.042 A 
HETATM   26  C15 UNL     1      14.738   2.909  52.595  1.00  0.00     0.117 A 
HETATM   27  F1  UNL     1      13.730   2.694  53.486  1.00  0.00    -0.206 F 
HETATM   28  C16 UNL     1      14.909   1.875  51.704  1.00  0.00     0.051 A 
ENDBRANCH  21  22
ENDBRANCH  20  21
ENDBRANCH  16  20
ENDBRANCH  11  13
ENDBRANCH  10  11
ENDBRANCH   8   9
ENDBRANCH   7   8
ENDBRANCH   5   7
TORSDOF 8
ENDMDL
MODEL 9
REMARK VINA RESULT:      -6.4      6.693     10.321
REMARK  8 active torsions:
REMARK  status: ('A' for Active; 'I' for Inactive)
REMARK       I    between atoms: C2_3  and  N2_5 
REMARK    1  A    between atoms: N2_5  and  P1_6 
REMARK    2  A    between atoms: P1_6  and  C3_7 
REMARK    3  A    between atoms: C3_7  and  C4_8 
REMARK    4  A    between atoms: C5_9  and  N3_10 
REMARK    5  A    between atoms: N3_10  and  C6_11 
REMARK    6  A    between atoms: C9_14  and  O2_15 
REMARK    7  A    between atoms: O2_15  and  C10_16 
REMARK    8  A    between atoms: C10_16  and  C11_17 
ROOT
HETATM    1  N1  UNL     1      29.681   8.529  44.991  1.00  0.00    -0.186 NA
HETATM    2  C1  UNL     1      29.243   8.654  46.078  1.00  0.00     0.162 C 
HETATM    3  C2  UNL     1      28.728   8.810  47.417  1.00  0.00     0.326 C 
HETATM    4  O1  UNL     1      29.426   8.455  48.405  1.00  0.00    -0.256 OA
HETATM    5  N2  UNL     1      27.434   9.363  47.631  1.00  0.00    -0.315 N 
HETATM    6  H1  UNL     1      26.913   9.635  46.775  1.00  0.00     0.169 HD
ENDROOT
BRANCH   5   7
HETATM    7  P1  UNL     1      26.989   9.470  49.369  1.00  0.00     0.063 P 
BRANCH   7   8
HETATM    8  C3  UNL     1      25.509   8.864  49.819  1.00  0.00     0.036 C 
BRANCH   8   9
HETATM    9  C4  UNL     1      25.712   7.500  50.353  1.00  0.00     0.020 C 
HETATM   10  C5  UNL     1      25.936   6.470  49.585  1.00  0.00     0.088 C 
BRANCH  10  11
HETATM   11  N3  UNL     1      26.134   5.145  50.096  1.00  0.00    -0.366 N 
HETATM   12  H5  UNL     1      27.096   4.972  50.445  1.00  0.00     0.165 HD
BRANCH  11  13
HETATM   13  C6  UNL     1      25.132   4.139  50.136  1.00  0.00     0.033 A 
HETATM   14  C7  UNL     1      24.232   4.079  49.106  1.00  0.00     0.032 A 
HETATM   15  C8  UNL     1      23.276   3.110  49.157  1.00  0.00     0.041 A 
HETATM   16  C9  UNL     1      23.106   2.177  50.128  1.00  0.00     0.091 A 
HETATM   17  C17 UNL     1      24.046   2.264  51.172  1.00  0.00     0.069 A 
HETATM   18 CL1  UNL     1      24.146   1.237  52.592  1.00  0.00    -0.081 Cl
HETATM   19  C18 UNL     1      25.051   3.231  51.184  1.00  0.00     0.056 A 
BRANCH  16  20
HETATM   20  O2  UNL     1      22.281   1.154  50.407  1.00  0.00    -0.345 OA
BRANCH  20  21
HETATM   21  C10 UNL     1      20.901   1.091  50.385  1.00  0.00     0.214 C 
BRANCH  21  22
HETATM   22  C11 UNL     1      20.307   0.312  51.496  1.00  0.00    -0.031 A 
HETATM   23  C12 UNL     1      18.923   0.132  51.357  1.00  0.00     0.009 A 
HETATM   24  C13 UNL     1      18.120  -0.539  52.255  1.00  0.00     0.004 A 
HETATM   25  C14 UNL     1      18.693  -1.084  53.385  1.00  0.00     0.042 A 
HETATM   26  C15 UNL     1      20.052  -0.916  53.541  1.00  0.00     0.117 A 
HETATM   27  F1  UNL     1      20.746  -1.401  54.608  1.00  0.00    -0.206 F 
HETATM   28  C16 UNL     1      20.841  -0.245  52.636  1.00  0.00     0.051 A 
ENDBRANCH  21  22
ENDBRANCH  20  21
ENDBRANCH  16  20
ENDBRANCH  11  13
ENDBRANCH  10  11
ENDBRANCH   8   9
ENDBRANCH   7   8
ENDBRANCH   5   7
TORSDOF 8
ENDMDL
