MODEL 1
REMARK VINA RESULT:      -9.8      0.000      0.000
REMARK  4 active torsions:
REMARK  status: ('A' for Active; 'I' for Inactive)
REMARK    1  A    between atoms: C2_2  and  C3_3 
REMARK    2  A    between atoms: C8_9  and  N1_10 
REMARK    3  A    between atoms: N1_10  and  C9_11 
REMARK    4  A    between atoms: C14_16  and  N2_17 
ROOT
HETATM    1  C9  UNL     1      24.225   3.946  50.775  1.00  0.00     0.114 C 
HETATM    2  C10 UNL     1      24.411   4.369  49.420  1.00  0.00     0.015 C 
HETATM    3  C11 UNL     1      23.174   4.708  48.597  1.00  0.00     0.012 C 
HETATM    4  C12 UNL     1      23.050   6.048  48.964  1.00  0.00    -0.021 C 
HETATM    5  C13 UNL     1      23.735   6.918  50.030  1.00  0.00     0.092 C 
HETATM    6  C14 UNL     1      25.152   6.397  50.337  1.00  0.00     0.248 C 
HETATM    7  N3  UNL     1      24.952   5.182  51.192  1.00  0.00    -0.340 N 
HETATM    8  C15 UNL     1      25.775   5.948  48.974  1.00  0.00     0.072 A 
HETATM    9  C16 UNL     1      25.224   6.857  47.960  1.00  0.00     0.051 C 
HETATM   10  C17 UNL     1      26.405   7.616  47.339  1.00  0.00    -0.025 C 
HETATM   11  C18 UNL     1      27.758   7.672  47.253  1.00  0.00    -0.003 C 
HETATM   12  C19 UNL     1      28.255   6.553  48.136  1.00  0.00     0.008 C 
HETATM   13  C20 UNL     1      27.188   6.002  48.719  1.00  0.00    -0.040 A 
HETATM   14  C21 UNL     1      27.255   4.477  48.939  1.00  0.00     0.017 A 
HETATM   15  C22 UNL     1      25.911   4.527  49.150  1.00  0.00    -0.026 A 
HETATM   16  H16 UNL     1      25.398   5.304  52.173  1.00  0.00     0.163 HD
ENDROOT
BRANCH   1  17
HETATM   17  N1  UNL     1      23.802   3.112  51.924  1.00  0.00    -0.342 N 
HETATM   18  H9  UNL     1      22.959   3.398  52.467  1.00  0.00     0.167 HD
BRANCH  17  19
HETATM   19  C8  UNL     1      24.707   1.990  52.074  1.00  0.00     0.040 A 
HETATM   20  C3  UNL     1      24.103   0.919  52.693  1.00  0.00    -0.030 A 
HETATM   21  C4  UNL     1      24.832  -0.256  52.907  1.00  0.00     0.033 A 
HETATM   22  C5  UNL     1      26.150  -0.332  52.497  1.00  0.00     0.034 A 
HETATM   23 CL1  UNL     1      27.099  -1.778  52.744  1.00  0.00    -0.084 Cl
HETATM   24  C6  UNL     1      26.739   0.756  51.879  1.00  0.00     0.026 A 
HETATM   25  C7  UNL     1      26.034   1.937  51.653  1.00  0.00     0.032 A 
BRANCH  20  26
HETATM   26  C2  UNL     1      22.712   0.887  53.190  1.00  0.00     0.036 C 
HETATM   27  C1  UNL     1      22.526  -0.409  53.982  1.00  0.00     0.010 C 
ENDBRANCH  20  26
ENDBRANCH  17  19
ENDBRANCH   1  17
BRANCH   6  28
HETATM   28  N2  UNL     1      25.925   7.360  50.926  1.00  0.00     0.109 N 
HETATM   29  H14 UNL     1      26.489   7.091  51.774  1.00  0.00     0.316 HD
HETATM   30  H15 UNL     1      26.591   7.913  50.317  1.00  0.00     0.316 HD
ENDBRANCH   6  28
TORSDOF 4
ENDMDL
MODEL 2
REMARK VINA RESULT:      -9.3      1.720      2.585
REMARK  4 active torsions:
REMARK  status: ('A' for Active; 'I' for Inactive)
REMARK    1  A    between atoms: C2_2  and  C3_3 
REMARK    2  A    between atoms: C8_9  and  N1_10 
REMARK    3  A    between atoms: N1_10  and  C9_11 
REMARK    4  A    between atoms: C14_16  and  N2_17 
ROOT
HETATM    1  C9  UNL     1      25.129   2.866  51.197  1.00  0.00     0.114 C 
HETATM    2  C10 UNL     1      24.795   3.261  49.862  1.00  0.00     0.015 C 
HETATM    3  C11 UNL     1      23.443   2.832  49.304  1.00  0.00     0.012 C 
HETATM    4  C12 UNL     1      22.683   3.903  49.774  1.00  0.00    -0.021 C 
HETATM    5  C13 UNL     1      22.971   5.052  50.752  1.00  0.00     0.092 C 
HETATM    6  C14 UNL     1      24.471   5.404  50.760  1.00  0.00     0.248 C 
HETATM    7  N3  UNL     1      25.131   4.317  51.555  1.00  0.00    -0.340 N 
HETATM    8  C15 UNL     1      24.967   5.307  49.279  1.00  0.00     0.072 A 
HETATM    9  C16 UNL     1      23.831   5.720  48.445  1.00  0.00     0.051 C 
HETATM   10  C17 UNL     1      24.267   6.972  47.670  1.00  0.00    -0.025 C 
HETATM   11  C18 UNL     1      25.326   7.753  47.343  1.00  0.00    -0.003 C 
HETATM   12  C19 UNL     1      26.509   7.128  48.044  1.00  0.00     0.008 C 
HETATM   13  C20 UNL     1      26.046   6.111  48.774  1.00  0.00    -0.040 A 
HETATM   14  C21 UNL     1      26.971   4.881  48.878  1.00  0.00     0.017 A 
HETATM   15  C22 UNL     1      25.885   4.200  49.334  1.00  0.00    -0.026 A 
HETATM   16  H16 UNL     1      25.614   4.707  52.443  1.00  0.00     0.163 HD
ENDROOT
BRANCH   1  17
HETATM   17  N1  UNL     1      25.454   1.991  52.347  1.00  0.00    -0.342 N 
HETATM   18  H9  UNL     1      26.425   2.004  52.728  1.00  0.00     0.167 HD
BRANCH  17  19
HETATM   19  C8  UNL     1      24.278   1.241  52.739  1.00  0.00     0.040 A 
HETATM   20  C3  UNL     1      24.603   0.095  53.429  1.00  0.00    -0.030 A 
HETATM   21  C4  UNL     1      23.583  -0.744  53.894  1.00  0.00     0.033 A 
HETATM   22  C5  UNL     1      22.262  -0.417  53.656  1.00  0.00     0.034 A 
HETATM   23 CL1  UNL     1      20.956  -1.434  54.217  1.00  0.00    -0.084 Cl
HETATM   24  C6  UNL     1      21.956   0.738  52.959  1.00  0.00     0.026 A 
HETATM   25  C7  UNL     1      22.953   1.590  52.486  1.00  0.00     0.032 A 
BRANCH  20  26
HETATM   26  C2  UNL     1      25.973  -0.368  53.727  1.00  0.00     0.036 C 
HETATM   27  C1  UNL     1      26.387  -1.349  52.628  1.00  0.00     0.010 C 
ENDBRANCH  20  26
ENDBRANCH  17  19
ENDBRANCH   1  17
BRANCH   6  28
HETATM   28  N2  UNL     1      24.691   6.658  51.260  1.00  0.00     0.109 N 
HETATM   29  H14 UNL     1      25.426   7.254  50.797  1.00  0.00     0.316 HD
HETATM   30  H15 UNL     1      23.860   7.301  51.391  1.00  0.00     0.316 HD
ENDBRANCH   6  28
TORSDOF 4
ENDMDL
MODEL 3
REMARK VINA RESULT:      -9.1      1.507      2.144
REMARK  4 active torsions:
REMARK  status: ('A' for Active; 'I' for Inactive)
REMARK    1  A    between atoms: C2_2  and  C3_3 
REMARK    2  A    between atoms: C8_9  and  N1_10 
REMARK    3  A    between atoms: N1_10  and  C9_11 
REMARK    4  A    between atoms: C14_16  and  N2_17 
ROOT
HETATM    1  C9  UNL     1      23.819   5.473  50.394  1.00  0.00     0.114 C 
HETATM    2  C10 UNL     1      24.302   5.642  49.057  1.00  0.00     0.015 C 
HETATM    3  C11 UNL     1      23.388   6.325  48.046  1.00  0.00     0.012 C 
HETATM    4  C12 UNL     1      23.751   7.646  48.309  1.00  0.00    -0.021 C 
HETATM    5  C13 UNL     1      24.597   8.309  49.407  1.00  0.00     0.092 C 
HETATM    6  C14 UNL     1      25.662   7.335  49.945  1.00  0.00     0.248 C 
HETATM    7  N3  UNL     1      24.917   6.385  50.836  1.00  0.00    -0.340 N 
HETATM    8  C15 UNL     1      26.209   6.537  48.716  1.00  0.00     0.072 A 
HETATM    9  C16 UNL     1      26.164   7.466  47.579  1.00  0.00     0.051 C 
HETATM   10  C17 UNL     1      27.607   7.654  47.089  1.00  0.00    -0.025 C 
HETATM   11  C18 UNL     1      28.878   7.191  47.195  1.00  0.00    -0.003 C 
HETATM   12  C19 UNL     1      28.806   6.072  48.207  1.00  0.00     0.008 C 
HETATM   13  C20 UNL     1      27.552   6.029  48.663  1.00  0.00    -0.040 A 
HETATM   14  C21 UNL     1      27.001   4.624  48.984  1.00  0.00     0.017 A 
HETATM   15  C22 UNL     1      25.766   5.197  48.996  1.00  0.00    -0.026 A 
HETATM   16  H16 UNL     1      25.266   6.440  51.861  1.00  0.00     0.163 HD
ENDROOT
BRANCH   1  17
HETATM   17  N1  UNL     1      22.986   4.991  51.520  1.00  0.00    -0.342 N 
HETATM   18  H9  UNL     1      22.180   5.575  51.832  1.00  0.00     0.167 HD
BRANCH  17  19
HETATM   19  C8  UNL     1      23.491   3.718  51.994  1.00  0.00     0.040 A 
HETATM   20  C3  UNL     1      22.946   2.658  51.305  1.00  0.00    -0.030 A 
HETATM   21  C4  UNL     1      23.335   1.353  51.626  1.00  0.00     0.033 A 
HETATM   22  C5  UNL     1      24.258   1.138  52.632  1.00  0.00     0.034 A 
HETATM   23 CL1  UNL     1      24.772  -0.474  53.068  1.00  0.00    -0.084 Cl
HETATM   24  C6  UNL     1      24.792   2.216  53.313  1.00  0.00     0.026 A 
HETATM   25  C7  UNL     1      24.423   3.526  53.011  1.00  0.00     0.032 A 
BRANCH  20  26
HETATM   26  C2  UNL     1      21.941   2.760  50.228  1.00  0.00     0.036 C 
HETATM   27  C1  UNL     1      22.603   2.313  48.923  1.00  0.00     0.010 C 
ENDBRANCH  20  26
ENDBRANCH  17  19
ENDBRANCH   1  17
BRANCH   6  28
HETATM   28  N2  UNL     1      26.676   7.997  50.579  1.00  0.00     0.109 N 
HETATM   29  H14 UNL     1      27.378   8.512  49.986  1.00  0.00     0.316 HD
HETATM   30  H15 UNL     1      26.428   8.672  51.357  1.00  0.00     0.316 HD
ENDBRANCH   6  28
TORSDOF 4
ENDMDL
MODEL 4
REMARK VINA RESULT:      -9.0      2.021      2.935
REMARK  4 active torsions:
REMARK  status: ('A' for Active; 'I' for Inactive)
REMARK    1  A    between atoms: C2_2  and  C3_3 
REMARK    2  A    between atoms: C8_9  and  N1_10 
REMARK    3  A    between atoms: N1_10  and  C9_11 
REMARK    4  A    between atoms: C14_16  and  N2_17 
ROOT
HETATM    1  C9  UNL     1      24.339   5.657  50.889  1.00  0.00     0.114 C 
HETATM    2  C10 UNL     1      24.532   5.829  49.481  1.00  0.00     0.015 C 
HETATM    3  C11 UNL     1      23.386   6.418  48.666  1.00  0.00     0.012 C 
HETATM    4  C12 UNL     1      23.690   7.768  48.839  1.00  0.00    -0.021 C 
HETATM    5  C13 UNL     1      24.682   8.519  49.740  1.00  0.00     0.092 C 
HETATM    6  C14 UNL     1      25.905   7.640  50.065  1.00  0.00     0.248 C 
HETATM    7  N3  UNL     1      25.428   6.659  51.095  1.00  0.00    -0.340 N 
HETATM    8  C15 UNL     1      26.258   6.855  48.758  1.00  0.00     0.072 A 
HETATM    9  C16 UNL     1      25.917   7.750  47.645  1.00  0.00     0.051 C 
HETATM   10  C17 UNL     1      27.215   8.033  46.875  1.00  0.00    -0.025 C 
HETATM   11  C18 UNL     1      28.514   7.669  46.730  1.00  0.00    -0.003 C 
HETATM   12  C19 UNL     1      28.731   6.573  47.746  1.00  0.00     0.008 C 
HETATM   13  C20 UNL     1      27.600   6.447  48.444  1.00  0.00    -0.040 A 
HETATM   14  C21 UNL     1      27.234   5.014  48.880  1.00  0.00     0.017 A 
HETATM   15  C22 UNL     1      25.986   5.493  49.133  1.00  0.00    -0.026 A 
HETATM   16  H16 UNL     1      25.967   6.765  52.029  1.00  0.00     0.163 HD
ENDROOT
BRANCH   1  17
HETATM   17  N1  UNL     1      23.785   5.142  52.163  1.00  0.00    -0.342 N 
HETATM   18  H9  UNL     1      24.070   5.602  53.055  1.00  0.00     0.167 HD
BRANCH  17  19
HETATM   19  C8  UNL     1      22.897   4.028  51.896  1.00  0.00     0.040 A 
HETATM   20  C3  UNL     1      23.480   2.820  52.200  1.00  0.00    -0.030 A 
HETATM   21  C4  UNL     1      22.755   1.637  52.013  1.00  0.00     0.033 A 
HETATM   22  C5  UNL     1      21.464   1.691  51.525  1.00  0.00     0.034 A 
HETATM   23 CL1  UNL     1      20.522   0.241  51.275  1.00  0.00    -0.084 Cl
HETATM   24  C6  UNL     1      20.897   2.916  51.224  1.00  0.00     0.026 A 
HETATM   25  C7  UNL     1      21.597   4.109  51.402  1.00  0.00     0.032 A 
BRANCH  20  26
HETATM   26  C2  UNL     1      24.854   2.633  52.709  1.00  0.00     0.036 C 
HETATM   27  C1  UNL     1      25.733   2.188  51.537  1.00  0.00     0.010 C 
ENDBRANCH  20  26
ENDBRANCH  17  19
ENDBRANCH   1  17
BRANCH   6  28
HETATM   28  N2  UNL     1      26.970   8.391  50.478  1.00  0.00     0.109 N 
HETATM   29  H14 UNL     1      26.941   9.430  50.304  1.00  0.00     0.316 HD
HETATM   30  H15 UNL     1      27.300   8.290  51.479  1.00  0.00     0.316 HD
ENDBRANCH   6  28
TORSDOF 4
ENDMDL
MODEL 5
REMARK VINA RESULT:      -8.8      1.898      2.914
REMARK  4 active torsions:
REMARK  status: ('A' for Active; 'I' for Inactive)
REMARK    1  A    between atoms: C2_2  and  C3_3 
REMARK    2  A    between atoms: C8_9  and  N1_10 
REMARK    3  A    between atoms: N1_10  and  C9_11 
REMARK    4  A    between atoms: C14_16  and  N2_17 
ROOT
HETATM    1  C9  UNL     1      24.776   3.017  52.553  1.00  0.00     0.114 C 
HETATM    2  C10 UNL     1      24.414   2.889  51.173  1.00  0.00     0.015 C 
HETATM    3  C11 UNL     1      23.341   1.871  50.806  1.00  0.00     0.012 C 
HETATM    4  C12 UNL     1      22.222   2.684  50.989  1.00  0.00    -0.021 C 
HETATM    5  C13 UNL     1      22.021   4.079  51.599  1.00  0.00     0.092 C 
HETATM    6  C14 UNL     1      23.296   4.932  51.454  1.00  0.00     0.248 C 
HETATM    7  N3  UNL     1      24.242   4.412  52.495  1.00  0.00    -0.340 N 
HETATM    8  C15 UNL     1      23.891   4.621  50.042  1.00  0.00     0.072 A 
HETATM    9  C16 UNL     1      22.741   4.357  49.168  1.00  0.00     0.051 C 
HETATM   10  C17 UNL     1      22.757   5.422  48.061  1.00  0.00    -0.025 C 
HETATM   11  C18 UNL     1      23.491   6.410  47.491  1.00  0.00    -0.003 C 
HETATM   12  C19 UNL     1      24.769   6.464  48.294  1.00  0.00     0.008 C 
HETATM   13  C20 UNL     1      24.647   5.588  49.295  1.00  0.00    -0.040 A 
HETATM   14  C21 UNL     1      25.938   4.847  49.700  1.00  0.00     0.017 A 
HETATM   15  C22 UNL     1      25.135   3.974  50.367  1.00  0.00    -0.026 A 
HETATM   16  H16 UNL     1      24.497   5.174  53.222  1.00  0.00     0.163 HD
ENDROOT
BRANCH   1  17
HETATM   17  N1  UNL     1      25.313   2.663  53.887  1.00  0.00    -0.342 N 
HETATM   18  H9  UNL     1      24.810   3.003  54.735  1.00  0.00     0.167 HD
BRANCH  17  19
HETATM   19  C8  UNL     1      26.509   1.860  53.736  1.00  0.00     0.040 A 
HETATM   20  C3  UNL     1      26.268   0.525  53.970  1.00  0.00    -0.030 A 
HETATM   21  C4  UNL     1      27.315  -0.396  53.855  1.00  0.00     0.033 A 
HETATM   22  C5  UNL     1      28.580   0.040  53.510  1.00  0.00     0.034 A 
HETATM   23 CL1  UNL     1      29.918  -1.074  53.356  1.00  0.00    -0.084 Cl
HETATM   24  C6  UNL     1      28.802   1.386  53.282  1.00  0.00     0.026 A 
HETATM   25  C7  UNL     1      27.777   2.324  53.389  1.00  0.00     0.032 A 
BRANCH  20  26
HETATM   26  C2  UNL     1      24.968  -0.056  54.361  1.00  0.00     0.036 C 
HETATM   27  C1  UNL     1      24.352  -0.707  53.120  1.00  0.00     0.010 C 
ENDBRANCH  20  26
ENDBRANCH  17  19
ENDBRANCH   1  17
BRANCH   6  28
HETATM   28  N2  UNL     1      23.026   6.267  51.580  1.00  0.00     0.109 N 
HETATM   29  H14 UNL     1      22.158   6.642  51.115  1.00  0.00     0.316 HD
HETATM   30  H15 UNL     1      23.022   6.691  52.550  1.00  0.00     0.316 HD
ENDBRANCH   6  28
TORSDOF 4
ENDMDL
MODEL 6
REMARK VINA RESULT:      -8.6      2.904      7.509
REMARK  4 active torsions:
REMARK  status: ('A' for Active; 'I' for Inactive)
REMARK    1  A    between atoms: C2_2  and  C3_3 
REMARK    2  A    between atoms: C8_9  and  N1_10 
REMARK    3  A    between atoms: N1_10  and  C9_11 
REMARK    4  A    between atoms: C14_16  and  N2_17 
ROOT
HETATM    1  C9  UNL     1      24.064   2.844  50.570  1.00  0.00     0.114 C 
HETATM    2  C10 UNL     1      23.585   2.772  51.917  1.00  0.00     0.015 C 
HETATM    3  C11 UNL     1      22.861   3.987  52.487  1.00  0.00     0.012 C 
HETATM    4  C12 UNL     1      21.574   3.675  52.049  1.00  0.00    -0.021 C 
HETATM    5  C13 UNL     1      21.013   2.613  51.090  1.00  0.00     0.092 C 
HETATM    6  C14 UNL     1      21.914   1.363  51.067  1.00  0.00     0.248 C 
HETATM    7  N3  UNL     1      23.105   1.746  50.241  1.00  0.00    -0.340 N 
HETATM    8  C15 UNL     1      22.388   1.119  52.538  1.00  0.00     0.072 A 
HETATM    9  C16 UNL     1      21.280   1.558  53.397  1.00  0.00     0.051 C 
HETATM   10  C17 UNL     1      20.807   0.331  54.191  1.00  0.00    -0.025 C 
HETATM   11  C18 UNL     1      21.101  -0.952  54.519  1.00  0.00    -0.003 C 
HETATM   12  C19 UNL     1      22.387  -1.260  53.788  1.00  0.00     0.008 C 
HETATM   13  C20 UNL     1      22.686  -0.193  53.043  1.00  0.00    -0.040 A 
HETATM   14  C21 UNL     1      24.188   0.128  52.902  1.00  0.00     0.017 A 
HETATM   15  C22 UNL     1      23.805   1.352  52.448  1.00  0.00    -0.026 A 
HETATM   16  H16 UNL     1      23.192   1.129  49.354  1.00  0.00     0.163 HD
ENDROOT
BRANCH   1  17
HETATM   17  N1  UNL     1      24.855   3.285  49.398  1.00  0.00    -0.342 N 
HETATM   18  H9  UNL     1      25.364   2.566  48.838  1.00  0.00     0.167 HD
BRANCH  17  19
HETATM   19  C8  UNL     1      24.758   4.724  49.255  1.00  0.00     0.040 A 
HETATM   20  C3  UNL     1      25.985   5.303  49.024  1.00  0.00    -0.030 A 
HETATM   21  C4  UNL     1      26.072   6.689  48.850  1.00  0.00     0.033 A 
HETATM   22  C5  UNL     1      24.929   7.463  48.911  1.00  0.00     0.034 A 
HETATM   23 CL1  UNL     1      24.989   9.197  48.699  1.00  0.00    -0.084 Cl
HETATM   24  C6  UNL     1      23.706   6.861  49.144  1.00  0.00     0.026 A 
HETATM   25  C7  UNL     1      23.592   5.483  49.321  1.00  0.00     0.032 A 
BRANCH  20  26
HETATM   26  C2  UNL     1      27.274   4.586  48.957  1.00  0.00     0.036 C 
HETATM   27  C1  UNL     1      28.307   5.534  48.343  1.00  0.00     0.010 C 
ENDBRANCH  20  26
ENDBRANCH  17  19
ENDBRANCH   1  17
BRANCH   6  28
HETATM   28  N2  UNL     1      21.245   0.269  50.589  1.00  0.00     0.109 N 
HETATM   29  H14 UNL     1      20.255   0.401  50.257  1.00  0.00     0.316 HD
HETATM   30  H15 UNL     1      21.710  -0.317  49.840  1.00  0.00     0.316 HD
ENDBRANCH   6  28
TORSDOF 4
ENDMDL
MODEL 7
REMARK VINA RESULT:      -8.1      6.607      8.700
REMARK  4 active torsions:
REMARK  status: ('A' for Active; 'I' for Inactive)
REMARK    1  A    between atoms: C2_2  and  C3_3 
REMARK    2  A    between atoms: C8_9  and  N1_10 
REMARK    3  A    between atoms: N1_10  and  C9_11 
REMARK    4  A    between atoms: C14_16  and  N2_17 
ROOT
HETATM    1  C9  UNL     1      31.171   7.692  48.749  1.00  0.00     0.114 C 
HETATM    2  C10 UNL     1      30.610   8.538  47.740  1.00  0.00     0.015 C 
HETATM    3  C11 UNL     1      29.941   7.878  46.540  1.00  0.00     0.012 C 
HETATM    4  C12 UNL     1      28.663   7.731  47.080  1.00  0.00    -0.021 C 
HETATM    5  C13 UNL     1      28.087   7.913  48.492  1.00  0.00     0.092 C 
HETATM    6  C14 UNL     1      28.896   8.956  49.287  1.00  0.00     0.248 C 
HETATM    7  N3  UNL     1      30.158   8.255  49.692  1.00  0.00    -0.340 N 
HETATM    8  C15 UNL     1      29.264  10.101  48.286  1.00  0.00     0.072 A 
HETATM    9  C16 UNL     1      28.141  10.189  47.343  1.00  0.00     0.051 C 
HETATM   10  C17 UNL     1      27.536  11.593  47.487  1.00  0.00    -0.025 C 
HETATM   11  C18 UNL     1      27.718  12.823  48.028  1.00  0.00    -0.003 C 
HETATM   12  C19 UNL     1      29.019  12.729  48.789  1.00  0.00     0.008 C 
HETATM   13  C20 UNL     1      29.438  11.464  48.707  1.00  0.00    -0.040 A 
HETATM   14  C21 UNL     1      30.964  11.266  48.615  1.00  0.00     0.017 A 
HETATM   15  C22 UNL     1      30.696   9.995  48.208  1.00  0.00    -0.026 A 
HETATM   16  H16 UNL     1      30.254   8.194  50.770  1.00  0.00     0.163 HD
ENDROOT
BRANCH   1  17
HETATM   17  N1  UNL     1      32.060   6.695  49.390  1.00  0.00    -0.342 N 
HETATM   18  H9  UNL     1      32.147   6.697  50.429  1.00  0.00     0.167 HD
BRANCH  17  19
HETATM   19  C8  UNL     1      32.672   5.861  48.375  1.00  0.00     0.040 A 
HETATM   20  C3  UNL     1      33.936   6.293  48.046  1.00  0.00    -0.030 A 
HETATM   21  C4  UNL     1      34.678   5.592  47.087  1.00  0.00     0.033 A 
HETATM   22  C5  UNL     1      34.135   4.476  46.480  1.00  0.00     0.034 A 
HETATM   23 CL1  UNL     1      35.023   3.570  45.278  1.00  0.00    -0.084 Cl
HETATM   24  C6  UNL     1      32.863   4.059  46.824  1.00  0.00     0.026 A 
HETATM   25  C7  UNL     1      32.104   4.738  47.776  1.00  0.00     0.032 A 
BRANCH  20  26
HETATM   26  C2  UNL     1      34.613   7.478  48.610  1.00  0.00     0.036 C 
HETATM   27  C1  UNL     1      34.650   8.558  47.526  1.00  0.00     0.010 C 
ENDBRANCH  20  26
ENDBRANCH  17  19
ENDBRANCH   1  17
BRANCH   6  28
HETATM   28  N2  UNL     1      28.181   9.450  50.343  1.00  0.00     0.109 N 
HETATM   29  H14 UNL     1      27.381   8.874  50.712  1.00  0.00     0.316 HD
HETATM   30  H15 UNL     1      28.710   9.768  51.203  1.00  0.00     0.316 HD
ENDBRANCH   6  28
TORSDOF 4
ENDMDL
MODEL 8
REMARK VINA RESULT:      -8.0      3.616      6.154
REMARK  4 active torsions:
REMARK  status: ('A' for Active; 'I' for Inactive)
REMARK    1  A    between atoms: C2_2  and  C3_3 
REMARK    2  A    between atoms: C8_9  and  N1_10 
REMARK    3  A    between atoms: N1_10  and  C9_11 
REMARK    4  A    between atoms: C14_16  and  N2_17 
ROOT
HETATM    1  C9  UNL     1      28.721   6.646  48.214  1.00  0.00     0.114 C 
HETATM    2  C10 UNL     1      29.162   7.495  47.148  1.00  0.00     0.015 C 
HETATM    3  C11 UNL     1      28.103   8.183  46.295  1.00  0.00     0.012 C 
HETATM    4  C12 UNL     1      27.921   9.321  47.081  1.00  0.00    -0.021 C 
HETATM    5  C13 UNL     1      28.398   9.720  48.486  1.00  0.00     0.092 C 
HETATM    6  C14 UNL     1      29.729   9.026  48.833  1.00  0.00     0.248 C 
HETATM    7  N3  UNL     1      29.365   7.608  49.159  1.00  0.00    -0.340 N 
HETATM    8  C15 UNL     1      30.595   9.030  47.529  1.00  0.00     0.072 A 
HETATM    9  C16 UNL     1      30.249  10.268  46.819  1.00  0.00     0.051 C 
HETATM   10  C17 UNL     1      31.531  11.108  46.719  1.00  0.00    -0.025 C 
HETATM   11  C18 UNL     1      32.876  11.094  46.896  1.00  0.00    -0.003 C 
HETATM   12  C19 UNL     1      33.192   9.706  47.402  1.00  0.00     0.008 C 
HETATM   13  C20 UNL     1      32.031   9.066  47.560  1.00  0.00    -0.040 A 
HETATM   14  C21 UNL     1      32.046   7.558  47.239  1.00  0.00     0.017 A 
HETATM   15  C22 UNL     1      30.687   7.628  47.217  1.00  0.00    -0.026 A 
HETATM   16  H16 UNL     1      29.619   7.355  50.181  1.00  0.00     0.163 HD
ENDROOT
BRANCH   1  17
HETATM   17  N1  UNL     1      28.085   5.501  48.906  1.00  0.00    -0.342 N 
HETATM   18  H9  UNL     1      28.697   4.769  49.327  1.00  0.00     0.167 HD
BRANCH  17  19
HETATM   19  C8  UNL     1      26.644   5.637  48.855  1.00  0.00     0.040 A 
HETATM   20  C3  UNL     1      26.003   4.461  49.171  1.00  0.00    -0.030 A 
HETATM   21  C4  UNL     1      24.604   4.419  49.182  1.00  0.00     0.033 A 
HETATM   22  C5  UNL     1      23.879   5.554  48.875  1.00  0.00     0.034 A 
HETATM   23 CL1  UNL     1      22.131   5.548  48.875  1.00  0.00    -0.084 Cl
HETATM   24  C6  UNL     1      24.542   6.726  48.558  1.00  0.00     0.026 A 
HETATM   25  C7  UNL     1      25.934   6.795  48.541  1.00  0.00     0.032 A 
BRANCH  20  26
HETATM   26  C2  UNL     1      26.666   3.183  49.497  1.00  0.00     0.036 C 
HETATM   27  C1  UNL     1      26.363   2.856  50.962  1.00  0.00     0.010 C 
ENDBRANCH  20  26
ENDBRANCH  17  19
ENDBRANCH   1  17
BRANCH   6  28
HETATM   28  N2  UNL     1      30.383   9.670  49.847  1.00  0.00     0.109 N 
HETATM   29  H14 UNL     1      30.966  10.513  49.604  1.00  0.00     0.316 HD
HETATM   30  H15 UNL     1      29.827   9.958  50.701  1.00  0.00     0.316 HD
ENDBRANCH   6  28
TORSDOF 4
ENDMDL
MODEL 9
REMARK VINA RESULT:      -8.0      3.126      3.917
REMARK  4 active torsions:
REMARK  status: ('A' for Active; 'I' for Inactive)
REMARK    1  A    between atoms: C2_2  and  C3_3 
REMARK    2  A    between atoms: C8_9  and  N1_10 
REMARK    3  A    between atoms: N1_10  and  C9_11 
REMARK    4  A    between atoms: C14_16  and  N2_17 
ROOT
HETATM    1  C9  UNL     1      23.650   3.888  50.427  1.00  0.00     0.114 C 
HETATM    2  C10 UNL     1      24.021   4.382  49.136  1.00  0.00     0.015 C 
HETATM    3  C11 UNL     1      22.914   4.872  48.210  1.00  0.00     0.012 C 
HETATM    4  C12 UNL     1      22.847   6.191  48.658  1.00  0.00    -0.021 C 
HETATM    5  C13 UNL     1      23.465   6.932  49.854  1.00  0.00     0.092 C 
HETATM    6  C14 UNL     1      24.796   6.281  50.275  1.00  0.00     0.248 C 
HETATM    7  N3  UNL     1      24.412   5.032  51.012  1.00  0.00    -0.340 N 
HETATM    8  C15 UNL     1      25.538   5.873  48.960  1.00  0.00     0.072 A 
HETATM    9  C16 UNL     1      25.174   6.886  47.960  1.00  0.00     0.051 C 
HETATM   10  C17 UNL     1      26.471   7.587  47.530  1.00  0.00    -0.025 C 
HETATM   11  C18 UNL     1      27.825   7.541  47.598  1.00  0.00    -0.003 C 
HETATM   12  C19 UNL     1      28.135   6.330  48.445  1.00  0.00     0.008 C 
HETATM   13  C20 UNL     1      26.971   5.830  48.866  1.00  0.00    -0.040 A 
HETATM   14  C21 UNL     1      26.901   4.293  48.979  1.00  0.00     0.017 A 
HETATM   15  C22 UNL     1      25.550   4.437  49.045  1.00  0.00    -0.026 A 
HETATM   16  H16 UNL     1      24.750   5.054  52.041  1.00  0.00     0.163 HD
ENDROOT
BRANCH   1  17
HETATM   17  N1  UNL     1      23.039   3.018  51.459  1.00  0.00    -0.342 N 
HETATM   18  H9  UNL     1      23.666   2.508  52.119  1.00  0.00     0.167 HD
BRANCH  17  19
HETATM   19  C8  UNL     1      21.596   3.052  51.336  1.00  0.00     0.040 A 
HETATM   20  C3  UNL     1      21.123   2.041  50.532  1.00  0.00    -0.030 A 
HETATM   21  C4  UNL     1      19.745   1.919  50.314  1.00  0.00     0.033 A 
HETATM   22  C5  UNL     1      18.874   2.813  50.906  1.00  0.00     0.034 A 
HETATM   23 CL1  UNL     1      17.147   2.700  50.662  1.00  0.00    -0.084 Cl
HETATM   24  C6  UNL     1      19.370   3.823  51.710  1.00  0.00     0.026 A 
HETATM   25  C7  UNL     1      20.737   3.965  51.943  1.00  0.00     0.032 A 
BRANCH  20  26
HETATM   26  C2  UNL     1      21.954   1.040  49.832  1.00  0.00     0.036 C 
HETATM   27  C1  UNL     1      21.800   1.272  48.327  1.00  0.00     0.010 C 
ENDBRANCH  20  26
ENDBRANCH  17  19
ENDBRANCH   1  17
BRANCH   6  28
HETATM   28  N2  UNL     1      25.563   7.138  51.015  1.00  0.00     0.109 N 
HETATM   29  H14 UNL     1      26.431   7.536  50.569  1.00  0.00     0.316 HD
HETATM   30  H15 UNL     1      25.091   7.964  51.480  1.00  0.00     0.316 HD
ENDBRANCH   6  28
TORSDOF 4
ENDMDL
