MODEL 1
REMARK VINA RESULT:      -8.1      0.000      0.000
REMARK  0 active torsions:
REMARK  status: ('A' for Active; 'I' for Inactive)
ROOT
HETATM    1  C1  UNL     1      28.038   5.608  48.375  1.00  0.00     0.017 C 
HETATM    2  C2  UNL     1      28.019   7.057  47.921  1.00  0.00     0.038 A 
HETATM    3  C3  UNL     1      27.275   7.816  48.950  1.00  0.00    -0.020 A 
HETATM    4  C4  UNL     1      27.581   8.838  49.726  1.00  0.00    -0.004 A 
HETATM    5  C5  UNL     1      28.920   9.356  49.566  1.00  0.00    -0.002 A 
HETATM    6  C6  UNL     1      29.642   8.738  48.674  1.00  0.00     0.007 A 
HETATM    7  C7  UNL     1      29.404   7.597  47.762  1.00  0.00     0.081 A 
HETATM    8  C8  UNL     1      29.608   8.066  46.344  1.00  0.00     0.116 C 
HETATM    9  S1  UNL     1      31.199   7.671  45.639  1.00  0.00    -0.134 SA
HETATM   10  C9  UNL     1      32.569   8.497  46.388  1.00  0.00     0.102 C 
HETATM   11  C10 UNL     1      33.569   7.618  46.519  1.00  0.00     0.171 C 
HETATM   12  N1  UNL     1      33.798   6.268  46.226  1.00  0.00    -0.223 NA
HETATM   13  C11 UNL     1      33.068   5.251  46.500  1.00  0.00     0.079 C 
HETATM   14  C12 UNL     1      33.837   4.111  45.939  1.00  0.00     0.045 C 
HETATM   15  C13 UNL     1      34.941   3.716  46.522  1.00  0.00    -0.024 C 
HETATM   16  C14 UNL     1      34.865   3.408  47.790  1.00  0.00     0.012 C 
HETATM   17  C15 UNL     1      34.563   4.716  48.357  1.00  0.00    -0.001 C 
HETATM   18  C16 UNL     1      35.017   5.939  48.155  1.00  0.00    -0.000 C 
HETATM   19  C17 UNL     1      35.102   7.434  48.372  1.00  0.00     0.205 C 
HETATM   20  O1  UNL     1      34.786   8.040  47.098  1.00  0.00    -0.330 OA
HETATM   21  C18 UNL     1      31.776   4.993  47.179  1.00  0.00     0.169 C 
HETATM   22  N2  UNL     1      31.523   6.198  47.472  1.00  0.00    -0.189 NA
HETATM   23  N3  UNL     1      30.372   6.567  48.153  1.00  0.00    -0.299 N 
HETATM   24  H19 UNL     1      30.168   6.056  49.039  1.00  0.00     0.183 HD
ENDROOT
TORSDOF 0
ENDMDL
MODEL 2
REMARK VINA RESULT:      -8.0      8.412     11.379
REMARK  0 active torsions:
REMARK  status: ('A' for Active; 'I' for Inactive)
ROOT
HETATM    1  C1  UNL     1      24.560   0.126  53.319  1.00  0.00     0.017 C 
HETATM    2  C2  UNL     1      23.162  -0.338  52.948  1.00  0.00     0.038 A 
HETATM    3  C3  UNL     1      22.533  -0.833  54.192  1.00  0.00    -0.020 A 
HETATM    4  C4  UNL     1      21.442  -0.499  54.854  1.00  0.00    -0.004 A 
HETATM    5  C5  UNL     1      20.670   0.574  54.273  1.00  0.00    -0.002 A 
HETATM    6  C6  UNL     1      21.161   1.065  53.169  1.00  0.00     0.007 A 
HETATM    7  C7  UNL     1      22.359   0.772  52.352  1.00  0.00     0.081 A 
HETATM    8  C8  UNL     1      21.911   0.390  50.965  1.00  0.00     0.116 C 
HETATM    9  S1  UNL     1      21.999   1.697  49.754  1.00  0.00    -0.134 SA
HETATM   10  C9  UNL     1      20.886   3.041  50.028  1.00  0.00     0.102 C 
HETATM   11  C10 UNL     1      21.538   4.184  49.786  1.00  0.00     0.171 C 
HETATM   12  N1  UNL     1      22.824   4.571  49.387  1.00  0.00    -0.223 NA
HETATM   13  C11 UNL     1      23.957   4.198  49.855  1.00  0.00     0.079 C 
HETATM   14  C12 UNL     1      24.937   4.949  49.030  1.00  0.00     0.045 C 
HETATM   15  C13 UNL     1      25.078   6.241  49.195  1.00  0.00    -0.024 C 
HETATM   16  C14 UNL     1      25.348   6.659  50.404  1.00  0.00     0.012 C 
HETATM   17  C15 UNL     1      24.109   6.304  51.083  1.00  0.00    -0.001 C 
HETATM   18  C16 UNL     1      22.827   6.406  50.783  1.00  0.00    -0.000 C 
HETATM   19  C17 UNL     1      21.339   6.252  51.010  1.00  0.00     0.205 C 
HETATM   20  O1  UNL     1      20.857   5.411  49.937  1.00  0.00    -0.330 OA
HETATM   21  C18 UNL     1      24.446   3.289  50.918  1.00  0.00     0.169 C 
HETATM   22  N2  UNL     1      23.309   2.909  51.320  1.00  0.00    -0.189 NA
HETATM   23  N3  UNL     1      23.156   2.003  52.360  1.00  0.00    -0.299 N 
HETATM   24  H19 UNL     1      23.665   2.217  53.245  1.00  0.00     0.183 HD
ENDROOT
TORSDOF 0
ENDMDL
MODEL 3
REMARK VINA RESULT:      -7.9      7.857      9.767
REMARK  0 active torsions:
REMARK  status: ('A' for Active; 'I' for Inactive)
ROOT
HETATM    1  C1  UNL     1      26.111   4.740  49.460  1.00  0.00     0.017 C 
HETATM    2  C2  UNL     1      24.655   4.631  49.876  1.00  0.00     0.038 A 
HETATM    3  C3  UNL     1      23.858   4.582  48.630  1.00  0.00    -0.020 A 
HETATM    4  C4  UNL     1      23.009   3.706  48.128  1.00  0.00    -0.004 A 
HETATM    5  C5  UNL     1      22.780   2.532  48.937  1.00  0.00    -0.002 A 
HETATM    6  C6  UNL     1      23.448   2.501  50.056  1.00  0.00     0.007 A 
HETATM    7  C7  UNL     1      24.414   3.413  50.708  1.00  0.00     0.081 A 
HETATM    8  C8  UNL     1      23.862   3.815  52.052  1.00  0.00     0.116 C 
HETATM    9  S1  UNL     1      24.520   2.908  53.441  1.00  0.00    -0.134 SA
HETATM   10  C9  UNL     1      24.089   1.196  53.482  1.00  0.00     0.102 C 
HETATM   11  C10 UNL     1      25.173   0.498  53.842  1.00  0.00     0.171 C 
HETATM   12  N1  UNL     1      26.504   0.767  54.181  1.00  0.00    -0.223 NA
HETATM   13  C11 UNL     1      27.361   1.492  53.562  1.00  0.00     0.079 C 
HETATM   14  C12 UNL     1      28.579   1.386  54.405  1.00  0.00     0.045 C 
HETATM   15  C13 UNL     1      29.260   0.267  54.434  1.00  0.00    -0.024 C 
HETATM   16  C14 UNL     1      29.669  -0.209  53.287  1.00  0.00     0.012 C 
HETATM   17  C15 UNL     1      28.389  -0.538  52.672  1.00  0.00    -0.001 C 
HETATM   18  C16 UNL     1      27.279  -1.114  53.097  1.00  0.00    -0.000 C 
HETATM   19  C17 UNL     1      25.867  -1.645  52.982  1.00  0.00     0.205 C 
HETATM   20  O1  UNL     1      25.084  -0.907  53.947  1.00  0.00    -0.330 OA
HETATM   21  C18 UNL     1      27.399   2.314  52.330  1.00  0.00     0.169 C 
HETATM   22  N2  UNL     1      26.203   2.100  51.975  1.00  0.00    -0.189 NA
HETATM   23  N3  UNL     1      25.663   2.653  50.823  1.00  0.00    -0.299 N 
HETATM   24  H19 UNL     1      26.203   2.518  49.942  1.00  0.00     0.183 HD
ENDROOT
TORSDOF 0
ENDMDL
MODEL 4
REMARK VINA RESULT:      -7.8      9.534     12.384
REMARK  0 active torsions:
REMARK  status: ('A' for Active; 'I' for Inactive)
ROOT
HETATM    1  C1  UNL     1      25.134  -0.734  55.174  1.00  0.00     0.017 C 
HETATM    2  C2  UNL     1      26.143   0.285  54.675  1.00  0.00     0.038 A 
HETATM    3  C3  UNL     1      27.401  -0.451  54.419  1.00  0.00    -0.020 A 
HETATM    4  C4  UNL     1      28.155  -0.619  53.349  1.00  0.00    -0.004 A 
HETATM    5  C5  UNL     1      27.686   0.040  52.153  1.00  0.00    -0.002 A 
HETATM    6  C6  UNL     1      26.579   0.713  52.297  1.00  0.00     0.007 A 
HETATM    7  C7  UNL     1      25.664   0.964  53.433  1.00  0.00     0.081 A 
HETATM    8  C8  UNL     1      25.583   2.451  53.664  1.00  0.00     0.116 C 
HETATM    9  S1  UNL     1      24.150   3.250  52.961  1.00  0.00    -0.134 SA
HETATM   10  C9  UNL     1      24.094   3.255  51.196  1.00  0.00     0.102 C 
HETATM   11  C10 UNL     1      22.841   2.981  50.814  1.00  0.00     0.171 C 
HETATM   12  N1  UNL     1      21.615   2.704  51.431  1.00  0.00    -0.223 NA
HETATM   13  C11 UNL     1      21.355   1.864  52.363  1.00  0.00     0.079 C 
HETATM   14  C12 UNL     1      19.896   2.032  52.584  1.00  0.00     0.045 C 
HETATM   15  C13 UNL     1      19.043   1.596  51.691  1.00  0.00    -0.024 C 
HETATM   16  C14 UNL     1      19.133   0.337  51.349  1.00  0.00     0.012 C 
HETATM   17  C15 UNL     1      20.433   0.341  50.689  1.00  0.00    -0.001 C 
HETATM   18  C16 UNL     1      21.035   1.146  49.834  1.00  0.00    -0.000 C 
HETATM   19  C17 UNL     1      22.161   1.622  48.942  1.00  0.00     0.205 C 
HETATM   20  O1  UNL     1      22.536   2.927  49.436  1.00  0.00    -0.330 OA
HETATM   21  C18 UNL     1      22.104   0.874  53.171  1.00  0.00     0.169 C 
HETATM   22  N2  UNL     1      23.235   1.082  52.644  1.00  0.00    -0.189 NA
HETATM   23  N3  UNL     1      24.373   0.391  53.037  1.00  0.00    -0.299 N 
HETATM   24  H19 UNL     1      24.305  -0.649  53.057  1.00  0.00     0.183 HD
ENDROOT
TORSDOF 0
ENDMDL
MODEL 5
REMARK VINA RESULT:      -7.4      2.795      4.262
REMARK  0 active torsions:
REMARK  status: ('A' for Active; 'I' for Inactive)
ROOT
HETATM    1  C1  UNL     1      26.060   4.201  49.334  1.00  0.00     0.017 C 
HETATM    2  C2  UNL     1      25.131   5.377  49.092  1.00  0.00     0.038 A 
HETATM    3  C3  UNL     1      24.168   5.399  50.215  1.00  0.00    -0.020 A 
HETATM    4  C4  UNL     1      23.858   6.298  51.129  1.00  0.00    -0.004 A 
HETATM    5  C5  UNL     1      24.593   7.539  51.051  1.00  0.00    -0.002 A 
HETATM    6  C6  UNL     1      25.463   7.599  50.082  1.00  0.00     0.007 A 
HETATM    7  C7  UNL     1      25.888   6.664  49.016  1.00  0.00     0.081 A 
HETATM    8  C8  UNL     1      25.647   7.319  47.681  1.00  0.00     0.116 C 
HETATM    9  S1  UNL     1      27.087   8.063  46.933  1.00  0.00    -0.134 SA
HETATM   10  C9  UNL     1      27.736   9.460  47.797  1.00  0.00     0.102 C 
HETATM   11  C10 UNL     1      29.071   9.366  47.806  1.00  0.00     0.171 C 
HETATM   12  N1  UNL     1      30.044   8.481  47.325  1.00  0.00    -0.223 NA
HETATM   13  C11 UNL     1      30.103   7.207  47.448  1.00  0.00     0.079 C 
HETATM   14  C12 UNL     1      31.354   6.848  46.733  1.00  0.00     0.045 C 
HETATM   15  C13 UNL     1      32.517   7.144  47.258  1.00  0.00    -0.024 C 
HETATM   16  C14 UNL     1      32.749   6.711  48.469  1.00  0.00     0.012 C 
HETATM   17  C15 UNL     1      31.767   7.486  49.215  1.00  0.00    -0.001 C 
HETATM   18  C16 UNL     1      31.370   8.745  49.192  1.00  0.00    -0.000 C 
HETATM   19  C17 UNL     1      30.552   9.944  49.620  1.00  0.00     0.205 C 
HETATM   20  O1  UNL     1      29.828  10.372  48.444  1.00  0.00    -0.330 OA
HETATM   21  C18 UNL     1      29.292   6.139  48.077  1.00  0.00     0.169 C 
HETATM   22  N2  UNL     1      28.388   6.894  48.538  1.00  0.00    -0.189 NA
HETATM   23  N3  UNL     1      27.310   6.402  49.260  1.00  0.00    -0.299 N 
HETATM   24  H19 UNL     1      27.532   5.776  50.064  1.00  0.00     0.183 HD
ENDROOT
TORSDOF 0
ENDMDL
MODEL 6
REMARK VINA RESULT:      -7.3      6.462      9.985
REMARK  0 active torsions:
REMARK  status: ('A' for Active; 'I' for Inactive)
ROOT
HETATM    1  C1  UNL     1      27.578   5.159  48.565  1.00  0.00     0.017 C 
HETATM    2  C2  UNL     1      27.135   6.594  48.787  1.00  0.00     0.038 A 
HETATM    3  C3  UNL     1      27.525   7.352  47.578  1.00  0.00    -0.020 A 
HETATM    4  C4  UNL     1      26.852   8.064  46.695  1.00  0.00    -0.004 A 
HETATM    5  C5  UNL     1      25.429   8.145  46.921  1.00  0.00    -0.002 A 
HETATM    6  C6  UNL     1      25.005   7.500  47.972  1.00  0.00     0.007 A 
HETATM    7  C7  UNL     1      25.661   6.681  49.015  1.00  0.00     0.081 A 
HETATM    8  C8  UNL     1      25.389   7.307  50.359  1.00  0.00     0.116 C 
HETATM    9  S1  UNL     1      24.062   6.558  51.288  1.00  0.00    -0.134 SA
HETATM   10  C9  UNL     1      22.456   6.751  50.579  1.00  0.00     0.102 C 
HETATM   11  C10 UNL     1      21.803   5.589  50.695  1.00  0.00     0.171 C 
HETATM   12  N1  UNL     1      22.056   4.313  51.214  1.00  0.00    -0.223 NA
HETATM   13  C11 UNL     1      23.069   3.552  51.019  1.00  0.00     0.079 C 
HETATM   14  C12 UNL     1      22.758   2.348  51.830  1.00  0.00     0.045 C 
HETATM   15  C13 UNL     1      21.820   1.520  51.440  1.00  0.00    -0.024 C 
HETATM   16  C14 UNL     1      21.925   1.029  50.234  1.00  0.00     0.012 C 
HETATM   17  C15 UNL     1      21.740   2.240  49.444  1.00  0.00    -0.001 C 
HETATM   18  C16 UNL     1      20.914   3.268  49.506  1.00  0.00    -0.000 C 
HETATM   19  C17 UNL     1      20.322   4.592  49.074  1.00  0.00     0.205 C 
HETATM   20  O1  UNL     1      20.485   5.486  50.197  1.00  0.00    -0.330 OA
HETATM   21  C18 UNL     1      24.333   3.605  50.249  1.00  0.00     0.169 C 
HETATM   22  N2  UNL     1      24.152   4.752  49.749  1.00  0.00    -0.189 NA
HETATM   23  N3  UNL     1      25.074   5.342  48.896  1.00  0.00    -0.299 N 
HETATM   24  H19 UNL     1      25.388   4.772  48.081  1.00  0.00     0.183 HD
ENDROOT
TORSDOF 0
ENDMDL
MODEL 7
REMARK VINA RESULT:      -7.0      1.979      3.471
REMARK  0 active torsions:
REMARK  status: ('A' for Active; 'I' for Inactive)
ROOT
HETATM    1  C1  UNL     1      28.002   8.578  46.565  1.00  0.00     0.017 C 
HETATM    2  C2  UNL     1      28.271   7.963  47.927  1.00  0.00     0.038 A 
HETATM    3  C3  UNL     1      27.080   7.156  48.272  1.00  0.00    -0.020 A 
HETATM    4  C4  UNL     1      26.897   5.881  48.558  1.00  0.00    -0.004 A 
HETATM    5  C5  UNL     1      28.089   5.066  48.540  1.00  0.00    -0.002 A 
HETATM    6  C6  UNL     1      29.185   5.707  48.243  1.00  0.00     0.007 A 
HETATM    7  C7  UNL     1      29.501   7.114  47.909  1.00  0.00     0.081 A 
HETATM    8  C8  UNL     1      30.494   7.634  48.916  1.00  0.00     0.116 C 
HETATM    9  S1  UNL     1      32.194   7.631  48.372  1.00  0.00    -0.134 SA
HETATM   10  C9  UNL     1      32.891   6.028  48.121  1.00  0.00     0.102 C 
HETATM   11  C10 UNL     1      33.618   6.056  46.997  1.00  0.00     0.171 C 
HETATM   12  N1  UNL     1      33.953   6.993  46.012  1.00  0.00    -0.223 NA
HETATM   13  C11 UNL     1      33.183   7.782  45.357  1.00  0.00     0.079 C 
HETATM   14  C12 UNL     1      34.118   8.519  44.470  1.00  0.00     0.045 C 
HETATM   15  C13 UNL     1      34.676   7.908  43.454  1.00  0.00    -0.024 C 
HETATM   16  C14 UNL     1      33.876   7.326  42.599  1.00  0.00     0.012 C 
HETATM   17  C15 UNL     1      33.322   6.273  43.440  1.00  0.00    -0.001 C 
HETATM   18  C16 UNL     1      33.827   5.430  44.323  1.00  0.00    -0.000 C 
HETATM   19  C17 UNL     1      33.794   4.312  45.341  1.00  0.00     0.205 C 
HETATM   20  O1  UNL     1      34.282   4.884  46.576  1.00  0.00    -0.330 OA
HETATM   21  C18 UNL     1      31.734   8.080  45.296  1.00  0.00     0.169 C 
HETATM   22  N2  UNL     1      31.376   7.246  46.177  1.00  0.00    -0.189 NA
HETATM   23  N3  UNL     1      30.049   7.086  46.549  1.00  0.00    -0.299 N 
HETATM   24  H19 UNL     1      29.363   6.932  45.778  1.00  0.00     0.183 HD
ENDROOT
TORSDOF 0
ENDMDL
MODEL 8
REMARK VINA RESULT:      -6.6     10.460     12.035
REMARK  0 active torsions:
REMARK  status: ('A' for Active; 'I' for Inactive)
ROOT
HETATM    1  C1  UNL     1      22.032   3.617  45.975  1.00  0.00     0.017 C 
HETATM    2  C2  UNL     1      20.747   4.369  46.269  1.00  0.00     0.038 A 
HETATM    3  C3  UNL     1      19.744   3.899  45.287  1.00  0.00    -0.020 A 
HETATM    4  C4  UNL     1      18.561   3.327  45.399  1.00  0.00    -0.004 A 
HETATM    5  C5  UNL     1      18.113   3.092  46.752  1.00  0.00    -0.002 A 
HETATM    6  C6  UNL     1      18.944   3.480  47.678  1.00  0.00     0.007 A 
HETATM    7  C7  UNL     1      20.277   4.123  47.666  1.00  0.00     0.081 A 
HETATM    8  C8  UNL     1      20.187   5.429  48.412  1.00  0.00     0.116 C 
HETATM    9  S1  UNL     1      20.761   5.378  50.101  1.00  0.00    -0.134 SA
HETATM   10  C9  UNL     1      19.785   4.387  51.188  1.00  0.00     0.102 C 
HETATM   11  C10 UNL     1      20.610   3.691  51.979  1.00  0.00     0.171 C 
HETATM   12  N1  UNL     1      21.992   3.555  52.157  1.00  0.00    -0.223 NA
HETATM   13  C11 UNL     1      22.900   3.344  51.277  1.00  0.00     0.079 C 
HETATM   14  C12 UNL     1      24.151   3.296  52.075  1.00  0.00     0.045 C 
HETATM   15  C13 UNL     1      24.395   2.269  52.850  1.00  0.00    -0.024 C 
HETATM   16  C14 UNL     1      24.370   1.086  52.294  1.00  0.00     0.012 C 
HETATM   17  C15 UNL     1      22.958   0.994  51.945  1.00  0.00    -0.001 C 
HETATM   18  C16 UNL     1      21.830   1.291  52.564  1.00  0.00    -0.000 C 
HETATM   19  C17 UNL     1      20.330   1.413  52.719  1.00  0.00     0.205 C 
HETATM   20  O1  UNL     1      20.066   2.816  52.944  1.00  0.00    -0.330 OA
HETATM   21  C18 UNL     1      22.965   3.156  49.809  1.00  0.00     0.169 C 
HETATM   22  N2  UNL     1      21.723   3.267  49.593  1.00  0.00    -0.189 NA
HETATM   23  N3  UNL     1      21.183   3.171  48.319  1.00  0.00    -0.299 N 
HETATM   24  H19 UNL     1      21.449   2.331  47.760  1.00  0.00     0.183 HD
ENDROOT
TORSDOF 0
ENDMDL
MODEL 9
REMARK VINA RESULT:      -6.5     18.389     20.830
REMARK  0 active torsions:
REMARK  status: ('A' for Active; 'I' for Inactive)
ROOT
HETATM    1  C1  UNL     1      17.254  -1.176  53.405  1.00  0.00     0.017 C 
HETATM    2  C2  UNL     1      16.585  -2.153  52.456  1.00  0.00     0.038 A 
HETATM    3  C3  UNL     1      16.752  -3.500  53.044  1.00  0.00    -0.020 A 
HETATM    4  C4  UNL     1      15.905  -4.438  53.423  1.00  0.00    -0.004 A 
HETATM    5  C5  UNL     1      14.508  -4.120  53.241  1.00  0.00    -0.002 A 
HETATM    6  C6  UNL     1      14.277  -2.945  52.725  1.00  0.00     0.007 A 
HETATM    7  C7  UNL     1      15.137  -1.830  52.271  1.00  0.00     0.081 A 
HETATM    8  C8  UNL     1      14.855  -1.569  50.814  1.00  0.00     0.116 C 
HETATM    9  S1  UNL     1      13.748  -0.207  50.490  1.00  0.00    -0.134 SA
HETATM   10  C9  UNL     1      12.087  -0.453  51.039  1.00  0.00     0.102 C 
HETATM   11  C10 UNL     1      11.655   0.684  51.597  1.00  0.00     0.171 C 
HETATM   12  N1  UNL     1      12.163   1.966  51.845  1.00  0.00    -0.223 NA
HETATM   13  C11 UNL     1      13.277   2.299  52.385  1.00  0.00     0.079 C 
HETATM   14  C12 UNL     1      13.238   3.784  52.370  1.00  0.00     0.045 C 
HETATM   15  C13 UNL     1      12.434   4.425  53.181  1.00  0.00    -0.024 C 
HETATM   16  C14 UNL     1      12.538   4.158  54.456  1.00  0.00     0.012 C 
HETATM   17  C15 UNL     1      12.091   2.771  54.468  1.00  0.00    -0.001 C 
HETATM   18  C16 UNL     1      11.105   2.112  53.888  1.00  0.00    -0.000 C 
HETATM   19  C17 UNL     1      10.262   0.901  53.553  1.00  0.00     0.205 C 
HETATM   20  O1  UNL     1      10.345   0.743  52.119  1.00  0.00    -0.330 OA
HETATM   21  C18 UNL     1      14.456   1.608  52.956  1.00  0.00     0.169 C 
HETATM   22  N2  UNL     1      14.043   0.428  52.758  1.00  0.00    -0.189 NA
HETATM   23  N3  UNL     1      14.786  -0.686  53.120  1.00  0.00    -0.299 N 
HETATM   24  H19 UNL     1      15.137  -0.716  54.102  1.00  0.00     0.183 HD
ENDROOT
TORSDOF 0
ENDMDL
