MODEL 1
REMARK VINA RESULT:      -7.6      0.000      0.000
REMARK  6 active torsions:
REMARK  status: ('A' for Active; 'I' for Inactive)
REMARK    1  A    between atoms: C2_2  and  O1_3 
REMARK    2  A    between atoms: O1_3  and  C3_4 
REMARK    3  A    between atoms: C3_4  and  C4_5 
REMARK    4  A    between atoms: C4_5  and  C5_7 
REMARK    5  A    between atoms: C5_7  and  C6_8 
REMARK    6  A    between atoms: C6_8  and  C7_9 
ROOT
HETATM    1  C7  UNL     1      23.360   0.999  52.514  1.00  0.00    -0.051 C 
HETATM    2  C8  UNL     1      22.807   1.328  51.173  1.00  0.00     0.027 C 
HETATM    3  C9  UNL     1      21.647   1.171  50.572  1.00  0.00     0.040 C 
HETATM    4  C10 UNL     1      21.172   1.534  49.276  1.00  0.00     0.097 C 
HETATM    5  N1  UNL     1      20.807   1.835  48.241  1.00  0.00    -0.192 NA
HETATM    6  C11 UNL     1      20.799   0.247  51.360  1.00  0.00     0.169 C 
HETATM    7  N2  UNL     1      19.735   0.921  52.020  1.00  0.00    -0.389 N 
HETATM    8  C12 UNL     1      19.225  -0.263  52.709  1.00  0.00     0.001 C 
HETATM    9  C13 UNL     1      17.831  -0.335  52.308  1.00  0.00     0.068 C 
HETATM   10  C14 UNL     1      19.815  -1.143  53.535  1.00  0.00     0.027 C 
HETATM   11  C15 UNL     1      21.152  -1.314  54.105  1.00  0.00     0.040 C 
HETATM   12  C16 UNL     1      22.375  -0.737  54.151  1.00  0.00     0.098 C 
HETATM   13  F1  UNL     1      23.438  -1.274  54.837  1.00  0.00    -0.210 F 
HETATM   14  C17 UNL     1      22.789   0.594  53.756  1.00  0.00     0.108 C 
HETATM   15  H13 UNL     1      19.310   1.858  52.124  1.00  0.00     0.159 HD
ENDROOT
BRANCH   1  16
HETATM   16  C6  UNL     1      24.631   1.414  52.470  1.00  0.00     0.009 C 
BRANCH  16  17
HETATM   17  C5  UNL     1      25.886   0.731  52.624  1.00  0.00     0.022 C 
BRANCH  17  18
HETATM   18  C4  UNL     1      26.486  -0.150  53.405  1.00  0.00     0.035 C 
HETATM   19 CL1  UNL     1      26.549  -1.570  52.392  1.00  0.00    -0.087 Cl
BRANCH  18  20
HETATM   20  C3  UNL     1      26.930   0.137  54.767  1.00  0.00     0.218 C 
BRANCH  20  21
HETATM   21  O1  UNL     1      28.205  -0.266  55.054  1.00  0.00    -0.386 OA
BRANCH  21  22
HETATM   22  C2  UNL     1      29.194   0.255  54.241  1.00  0.00     0.163 C 
HETATM   23  C1  UNL     1      29.988  -0.939  53.698  1.00  0.00     0.033 C 
ENDBRANCH  21  22
ENDBRANCH  20  21
ENDBRANCH  18  20
ENDBRANCH  17  18
ENDBRANCH  16  17
ENDBRANCH   1  16
TORSDOF 6
ENDMDL
MODEL 2
REMARK VINA RESULT:      -7.5      3.836      5.237
REMARK  6 active torsions:
REMARK  status: ('A' for Active; 'I' for Inactive)
REMARK    1  A    between atoms: C2_2  and  O1_3 
REMARK    2  A    between atoms: O1_3  and  C3_4 
REMARK    3  A    between atoms: C3_4  and  C4_5 
REMARK    4  A    between atoms: C4_5  and  C5_7 
REMARK    5  A    between atoms: C5_7  and  C6_8 
REMARK    6  A    between atoms: C6_8  and  C7_9 
ROOT
HETATM    1  C7  UNL     1      25.469   2.432  51.576  1.00  0.00    -0.051 C 
HETATM    2  C8  UNL     1      26.361   3.052  50.560  1.00  0.00     0.027 C 
HETATM    3  C9  UNL     1      26.399   4.203  49.924  1.00  0.00     0.040 C 
HETATM    4  C10 UNL     1      27.306   4.748  48.965  1.00  0.00     0.097 C 
HETATM    5  N1  UNL     1      28.041   5.171  48.206  1.00  0.00    -0.192 NA
HETATM    6  C11 UNL     1      25.120   4.924  50.118  1.00  0.00     0.169 C 
HETATM    7  N2  UNL     1      25.256   6.038  50.991  1.00  0.00    -0.389 N 
HETATM    8  C12 UNL     1      23.838   6.396  50.982  1.00  0.00     0.001 C 
HETATM    9  C13 UNL     1      23.825   7.784  50.553  1.00  0.00     0.068 C 
HETATM   10  C14 UNL     1      22.734   5.692  51.279  1.00  0.00     0.027 C 
HETATM   11  C15 UNL     1      22.448   4.331  51.732  1.00  0.00     0.040 C 
HETATM   12  C16 UNL     1      23.054   3.178  52.099  1.00  0.00     0.098 C 
HETATM   13  F1  UNL     1      22.365   2.044  52.461  1.00  0.00    -0.210 F 
HETATM   14  C17 UNL     1      24.440   2.923  52.433  1.00  0.00     0.108 C 
HETATM   15  H13 UNL     1      25.964   6.561  51.533  1.00  0.00     0.159 HD
ENDROOT
BRANCH   1  16
HETATM   16  C6  UNL     1      25.986   1.216  51.786  1.00  0.00     0.009 C 
BRANCH  16  17
HETATM   17  C5  UNL     1      25.652   0.159  52.701  1.00  0.00     0.022 C 
BRANCH  17  18
HETATM   18  C4  UNL     1      25.527  -0.077  53.996  1.00  0.00     0.035 C 
HETATM   19 CL1  UNL     1      23.882  -0.648  54.117  1.00  0.00    -0.087 Cl
BRANCH  18  20
HETATM   20  C3  UNL     1      26.593   0.139  54.970  1.00  0.00     0.218 C 
BRANCH  20  21
HETATM   21  O1  UNL     1      27.739  -0.570  54.737  1.00  0.00    -0.386 OA
BRANCH  21  22
HETATM   22  C2  UNL     1      28.884   0.185  54.559  1.00  0.00     0.163 C 
HETATM   23  C1  UNL     1      29.813  -0.635  53.658  1.00  0.00     0.033 C 
ENDBRANCH  21  22
ENDBRANCH  20  21
ENDBRANCH  18  20
ENDBRANCH  17  18
ENDBRANCH  16  17
ENDBRANCH   1  16
TORSDOF 6
ENDMDL
MODEL 3
REMARK VINA RESULT:      -7.3      2.458      3.561
REMARK  6 active torsions:
REMARK  status: ('A' for Active; 'I' for Inactive)
REMARK    1  A    between atoms: C2_2  and  O1_3 
REMARK    2  A    between atoms: O1_3  and  C3_4 
REMARK    3  A    between atoms: C3_4  and  C4_5 
REMARK    4  A    between atoms: C4_5  and  C5_7 
REMARK    5  A    between atoms: C5_7  and  C6_8 
REMARK    6  A    between atoms: C6_8  and  C7_9 
ROOT
HETATM    1  C7  UNL     1      23.345   2.330  52.722  1.00  0.00    -0.051 C 
HETATM    2  C8  UNL     1      23.189   1.068  53.494  1.00  0.00     0.027 C 
HETATM    3  C9  UNL     1      22.216   0.207  53.696  1.00  0.00     0.040 C 
HETATM    4  C10 UNL     1      22.138  -1.009  54.440  1.00  0.00     0.097 C 
HETATM    5  N1  UNL     1      22.096  -1.979  55.033  1.00  0.00    -0.192 NA
HETATM    6  C11 UNL     1      20.935   0.780  53.220  1.00  0.00     0.169 C 
HETATM    7  N2  UNL     1      20.480   0.164  52.023  1.00  0.00    -0.389 N 
HETATM    8  C12 UNL     1      19.310   1.025  51.858  1.00  0.00     0.001 C 
HETATM    9  C13 UNL     1      18.194   0.099  51.782  1.00  0.00     0.068 C 
HETATM   10  C14 UNL     1      19.185   2.360  51.782  1.00  0.00     0.027 C 
HETATM   11  C15 UNL     1      20.096   3.504  51.816  1.00  0.00     0.040 C 
HETATM   12  C16 UNL     1      21.409   3.821  51.889  1.00  0.00     0.098 C 
HETATM   13  F1  UNL     1      21.874   5.115  51.916  1.00  0.00    -0.210 F 
HETATM   14  C17 UNL     1      22.578   2.983  51.713  1.00  0.00     0.108 C 
HETATM   15  H13 UNL     1      20.718  -0.592  51.359  1.00  0.00     0.159 HD
ENDROOT
BRANCH   1  16
HETATM   16  C6  UNL     1      24.601   2.723  52.962  1.00  0.00     0.009 C 
BRANCH  16  17
HETATM   17  C5  UNL     1      25.764   2.033  53.448  1.00  0.00     0.022 C 
BRANCH  17  18
HETATM   18  C4  UNL     1      26.916   1.541  53.029  1.00  0.00     0.035 C 
HETATM   19 CL1  UNL     1      26.411   0.283  51.929  1.00  0.00    -0.087 Cl
BRANCH  18  20
HETATM   20  C3  UNL     1      28.220   2.031  53.469  1.00  0.00     0.218 C 
BRANCH  20  21
HETATM   21  O1  UNL     1      28.685   1.469  54.626  1.00  0.00    -0.386 OA
BRANCH  21  22
HETATM   22  C2  UNL     1      28.733   0.088  54.643  1.00  0.00     0.163 C 
HETATM   23  C1  UNL     1      29.869  -0.323  53.700  1.00  0.00     0.033 C 
ENDBRANCH  21  22
ENDBRANCH  20  21
ENDBRANCH  18  20
ENDBRANCH  17  18
ENDBRANCH  16  17
ENDBRANCH   1  16
TORSDOF 6
ENDMDL
MODEL 4
REMARK VINA RESULT:      -7.0      2.068      3.334
REMARK  6 active torsions:
REMARK  status: ('A' for Active; 'I' for Inactive)
REMARK    1  A    between atoms: C2_2  and  O1_3 
REMARK    2  A    between atoms: O1_3  and  C3_4 
REMARK    3  A    between atoms: C3_4  and  C4_5 
REMARK    4  A    between atoms: C4_5  and  C5_7 
REMARK    5  A    between atoms: C5_7  and  C6_8 
REMARK    6  A    between atoms: C6_8  and  C7_9 
ROOT
HETATM    1  C7  UNL     1      22.940   0.369  52.983  1.00  0.00    -0.051 C 
HETATM    2  C8  UNL     1      21.600  -0.252  53.163  1.00  0.00     0.027 C 
HETATM    3  C9  UNL     1      20.358   0.115  52.931  1.00  0.00     0.040 C 
HETATM    4  C10 UNL     1      19.105  -0.545  53.109  1.00  0.00     0.097 C 
HETATM    5  N1  UNL     1      18.115  -1.088  53.251  1.00  0.00    -0.192 NA
HETATM    6  C11 UNL     1      20.312   1.567  52.644  1.00  0.00     0.169 C 
HETATM    7  N2  UNL     1      20.060   1.838  51.271  1.00  0.00    -0.389 N 
HETATM    8  C12 UNL     1      20.173   3.291  51.392  1.00  0.00     0.001 C 
HETATM    9  C13 UNL     1      18.912   3.791  50.870  1.00  0.00     0.068 C 
HETATM   10  C14 UNL     1      21.157   4.077  51.857  1.00  0.00     0.027 C 
HETATM   11  C15 UNL     1      22.494   3.867  52.415  1.00  0.00     0.040 C 
HETATM   12  C16 UNL     1      23.391   2.895  52.700  1.00  0.00     0.098 C 
HETATM   13  F1  UNL     1      24.612   3.141  53.282  1.00  0.00    -0.210 F 
HETATM   14  C17 UNL     1      23.425   1.509  52.278  1.00  0.00     0.108 C 
HETATM   15  H13 UNL     1      19.857   1.364  50.375  1.00  0.00     0.159 HD
ENDROOT
BRANCH   1  16
HETATM   16  C6  UNL     1      23.803  -0.543  53.447  1.00  0.00     0.009 C 
BRANCH  16  17
HETATM   17  C5  UNL     1      25.199  -0.484  53.779  1.00  0.00     0.022 C 
BRANCH  17  18
HETATM   18  C4  UNL     1      26.379  -0.273  53.222  1.00  0.00     0.035 C 
HETATM   19 CL1  UNL     1      26.677  -1.780  52.392  1.00  0.00    -0.087 Cl
BRANCH  18  20
HETATM   20  C3  UNL     1      27.135   0.969  53.358  1.00  0.00     0.218 C 
BRANCH  20  21
HETATM   21  O1  UNL     1      28.488   0.839  53.204  1.00  0.00    -0.386 OA
BRANCH  21  22
HETATM   22  C2  UNL     1      29.156   0.248  54.259  1.00  0.00     0.163 C 
HETATM   23  C1  UNL     1      29.991  -0.892  53.665  1.00  0.00     0.033 C 
ENDBRANCH  21  22
ENDBRANCH  20  21
ENDBRANCH  18  20
ENDBRANCH  17  18
ENDBRANCH  16  17
ENDBRANCH   1  16
TORSDOF 6
ENDMDL
MODEL 5
REMARK VINA RESULT:      -6.9      2.697      4.143
REMARK  6 active torsions:
REMARK  status: ('A' for Active; 'I' for Inactive)
REMARK    1  A    between atoms: C2_2  and  O1_3 
REMARK    2  A    between atoms: O1_3  and  C3_4 
REMARK    3  A    between atoms: C3_4  and  C4_5 
REMARK    4  A    between atoms: C4_5  and  C5_7 
REMARK    5  A    between atoms: C5_7  and  C6_8 
REMARK    6  A    between atoms: C6_8  and  C7_9 
ROOT
HETATM    1  C7  UNL     1      23.960   2.390  51.971  1.00  0.00    -0.051 C 
HETATM    2  C8  UNL     1      24.981   3.162  51.214  1.00  0.00     0.027 C 
HETATM    3  C9  UNL     1      25.083   3.632  49.989  1.00  0.00     0.040 C 
HETATM    4  C10 UNL     1      26.093   4.392  49.325  1.00  0.00     0.097 C 
HETATM    5  N1  UNL     1      26.905   5.003  48.813  1.00  0.00    -0.192 NA
HETATM    6  C11 UNL     1      24.027   3.039  49.137  1.00  0.00     0.169 C 
HETATM    7  N2  UNL     1      23.006   3.974  48.814  1.00  0.00    -0.389 N 
HETATM    8  C12 UNL     1      22.171   3.022  48.082  1.00  0.00     0.001 C 
HETATM    9  C13 UNL     1      21.999   3.633  46.775  1.00  0.00     0.068 C 
HETATM   10  C14 UNL     1      21.639   1.841  48.435  1.00  0.00     0.027 C 
HETATM   11  C15 UNL     1      21.633   1.010  49.639  1.00  0.00     0.040 C 
HETATM   12  C16 UNL     1      22.067   0.985  50.921  1.00  0.00     0.098 C 
HETATM   13  F1  UNL     1      21.848  -0.073  51.772  1.00  0.00    -0.210 F 
HETATM   14  C17 UNL     1      22.593   2.054  51.745  1.00  0.00     0.108 C 
HETATM   15  H13 UNL     1      22.746   4.967  48.941  1.00  0.00     0.159 HD
ENDROOT
BRANCH   1  16
HETATM   16  C6  UNL     1      24.496   2.216  53.185  1.00  0.00     0.009 C 
BRANCH  16  17
HETATM   17  C5  UNL     1      25.664   1.517  53.645  1.00  0.00     0.022 C 
BRANCH  17  18
HETATM   18  C4  UNL     1      26.031   0.353  54.151  1.00  0.00     0.035 C 
HETATM   19 CL1  UNL     1      24.626  -0.642  53.863  1.00  0.00    -0.087 Cl
BRANCH  18  20
HETATM   20  C3  UNL     1      27.329   0.107  54.774  1.00  0.00     0.218 C 
BRANCH  20  21
HETATM   21  O1  UNL     1      28.216   1.143  54.685  1.00  0.00    -0.386 OA
BRANCH  21  22
HETATM   22  C2  UNL     1      29.338   0.906  53.913  1.00  0.00     0.163 C 
HETATM   23  C1  UNL     1      29.525  -0.615  53.869  1.00  0.00     0.033 C 
ENDBRANCH  21  22
ENDBRANCH  20  21
ENDBRANCH  18  20
ENDBRANCH  17  18
ENDBRANCH  16  17
ENDBRANCH   1  16
TORSDOF 6
ENDMDL
MODEL 6
REMARK VINA RESULT:      -6.7      3.543      6.419
REMARK  6 active torsions:
REMARK  status: ('A' for Active; 'I' for Inactive)
REMARK    1  A    between atoms: C2_2  and  O1_3 
REMARK    2  A    between atoms: O1_3  and  C3_4 
REMARK    3  A    between atoms: C3_4  and  C4_5 
REMARK    4  A    between atoms: C4_5  and  C5_7 
REMARK    5  A    between atoms: C5_7  and  C6_8 
REMARK    6  A    between atoms: C6_8  and  C7_9 
ROOT
HETATM    1  C7  UNL     1      22.887   0.320  53.153  1.00  0.00    -0.051 C 
HETATM    2  C8  UNL     1      22.909   1.731  52.682  1.00  0.00     0.027 C 
HETATM    3  C9  UNL     1      23.823   2.671  52.579  1.00  0.00     0.040 C 
HETATM    4  C10 UNL     1      23.782   4.013  52.093  1.00  0.00     0.097 C 
HETATM    5  N1  UNL     1      23.733   5.078  51.696  1.00  0.00    -0.192 NA
HETATM    6  C11 UNL     1      25.038   2.270  53.326  1.00  0.00     0.169 C 
HETATM    7  N2  UNL     1      26.109   1.910  52.463  1.00  0.00    -0.389 N 
HETATM    8  C12 UNL     1      27.027   1.522  53.532  1.00  0.00     0.001 C 
HETATM    9  C13 UNL     1      28.207   2.338  53.302  1.00  0.00     0.068 C 
HETATM   10  C14 UNL     1      26.910   0.637  54.536  1.00  0.00     0.027 C 
HETATM   11  C15 UNL     1      25.884  -0.299  54.995  1.00  0.00     0.040 C 
HETATM   12  C16 UNL     1      24.654  -0.771  54.687  1.00  0.00     0.098 C 
HETATM   13  F1  UNL     1      23.987  -1.700  55.451  1.00  0.00    -0.210 F 
HETATM   14  C17 UNL     1      23.891  -0.644  53.462  1.00  0.00     0.108 C 
HETATM   15  H13 UNL     1      26.360   1.859  51.461  1.00  0.00     0.159 HD
ENDROOT
BRANCH   1  16
HETATM   16  C6  UNL     1      21.614  -0.067  53.011  1.00  0.00     0.009 C 
BRANCH  16  17
HETATM   17  C5  UNL     1      20.456   0.575  52.453  1.00  0.00     0.022 C 
BRANCH  17  18
HETATM   18  C4  UNL     1      19.693   0.560  51.374  1.00  0.00     0.035 C 
HETATM   19 CL1  UNL     1      18.371  -0.470  51.862  1.00  0.00    -0.087 Cl
BRANCH  18  20
HETATM   20  C3  UNL     1      20.010   1.276  50.141  1.00  0.00     0.218 C 
BRANCH  20  21
HETATM   21  O1  UNL     1      20.414   2.570  50.315  1.00  0.00    -0.386 OA
BRANCH  21  22
HETATM   22  C2  UNL     1      21.341   3.035  49.401  1.00  0.00     0.163 C 
HETATM   23  C1  UNL     1      22.253   1.851  49.061  1.00  0.00     0.033 C 
ENDBRANCH  21  22
ENDBRANCH  20  21
ENDBRANCH  18  20
ENDBRANCH  17  18
ENDBRANCH  16  17
ENDBRANCH   1  16
TORSDOF 6
ENDMDL
MODEL 7
REMARK VINA RESULT:      -6.7      3.993      5.480
REMARK  6 active torsions:
REMARK  status: ('A' for Active; 'I' for Inactive)
REMARK    1  A    between atoms: C2_2  and  O1_3 
REMARK    2  A    between atoms: O1_3  and  C3_4 
REMARK    3  A    between atoms: C3_4  and  C4_5 
REMARK    4  A    between atoms: C4_5  and  C5_7 
REMARK    5  A    between atoms: C5_7  and  C6_8 
REMARK    6  A    between atoms: C6_8  and  C7_9 
ROOT
HETATM    1  C7  UNL     1      25.648   2.408  51.084  1.00  0.00    -0.051 C 
HETATM    2  C8  UNL     1      24.352   2.756  50.442  1.00  0.00     0.027 C 
HETATM    3  C9  UNL     1      23.092   2.437  50.642  1.00  0.00     0.040 C 
HETATM    4  C10 UNL     1      21.880   2.828  49.995  1.00  0.00     0.097 C 
HETATM    5  N1  UNL     1      20.924   3.154  49.472  1.00  0.00    -0.192 NA
HETATM    6  C11 UNL     1      23.008   1.293  51.578  1.00  0.00     0.169 C 
HETATM    7  N2  UNL     1      22.535   1.678  52.862  1.00  0.00    -0.389 N 
HETATM    8  C12 UNL     1      22.676   0.354  53.467  1.00  0.00     0.001 C 
HETATM    9  C13 UNL     1      21.350   0.053  53.979  1.00  0.00     0.068 C 
HETATM   10  C14 UNL     1      23.730  -0.472  53.578  1.00  0.00     0.027 C 
HETATM   11  C15 UNL     1      25.138  -0.436  53.183  1.00  0.00     0.040 C 
HETATM   12  C16 UNL     1      26.063   0.360  52.600  1.00  0.00     0.098 C 
HETATM   13  F1  UNL     1      27.365  -0.026  52.386  1.00  0.00    -0.210 F 
HETATM   14  C17 UNL     1      26.018   1.779  52.309  1.00  0.00     0.108 C 
HETATM   15  H13 UNL     1      22.184   2.499  53.384  1.00  0.00     0.159 HD
ENDROOT
BRANCH   1  16
HETATM   16  C6  UNL     1      26.569   3.065  50.369  1.00  0.00     0.009 C 
BRANCH  16  17
HETATM   17  C5  UNL     1      26.476   4.005  49.287  1.00  0.00     0.022 C 
BRANCH  17  18
HETATM   18  C4  UNL     1      26.762   5.261  48.990  1.00  0.00     0.035 C 
HETATM   19 CL1  UNL     1      28.389   5.140  48.370  1.00  0.00    -0.087 Cl
BRANCH  18  20
HETATM   20  C3  UNL     1      25.840   6.376  49.191  1.00  0.00     0.218 C 
BRANCH  20  21
HETATM   21  O1  UNL     1      24.839   6.140  50.092  1.00  0.00    -0.386 OA
BRANCH  21  22
HETATM   22  C2  UNL     1      23.579   6.559  49.709  1.00  0.00     0.163 C 
HETATM   23  C1  UNL     1      23.260   5.843  48.392  1.00  0.00     0.033 C 
ENDBRANCH  21  22
ENDBRANCH  20  21
ENDBRANCH  18  20
ENDBRANCH  17  18
ENDBRANCH  16  17
ENDBRANCH   1  16
TORSDOF 6
ENDMDL
MODEL 8
REMARK VINA RESULT:      -6.7      4.581      5.720
REMARK  6 active torsions:
REMARK  status: ('A' for Active; 'I' for Inactive)
REMARK    1  A    between atoms: C2_2  and  O1_3 
REMARK    2  A    between atoms: O1_3  and  C3_4 
REMARK    3  A    between atoms: C3_4  and  C4_5 
REMARK    4  A    between atoms: C4_5  and  C5_7 
REMARK    5  A    between atoms: C5_7  and  C6_8 
REMARK    6  A    between atoms: C6_8  and  C7_9 
ROOT
HETATM    1  C7  UNL     1      24.088   2.134  51.143  1.00  0.00    -0.051 C 
HETATM    2  C8  UNL     1      25.011   1.286  51.943  1.00  0.00     0.027 C 
HETATM    3  C9  UNL     1      24.871   0.366  52.873  1.00  0.00     0.040 C 
HETATM    4  C10 UNL     1      25.809  -0.434  53.594  1.00  0.00     0.097 C 
HETATM    5  N1  UNL     1      26.569  -1.068  54.154  1.00  0.00    -0.192 NA
HETATM    6  C11 UNL     1      23.477   0.372  53.374  1.00  0.00     0.169 C 
HETATM    7  N2  UNL     1      22.739  -0.759  52.930  1.00  0.00    -0.389 N 
HETATM    8  C12 UNL     1      21.473  -0.348  53.536  1.00  0.00     0.001 C 
HETATM    9  C13 UNL     1      21.101  -1.471  54.380  1.00  0.00     0.068 C 
HETATM   10  C14 UNL     1      20.744   0.772  53.412  1.00  0.00     0.027 C 
HETATM   11  C15 UNL     1      20.856   2.020  52.657  1.00  0.00     0.040 C 
HETATM   12  C16 UNL     1      21.632   2.651  51.745  1.00  0.00     0.098 C 
HETATM   13  F1  UNL     1      21.375   3.919  51.282  1.00  0.00    -0.210 F 
HETATM   14  C17 UNL     1      22.684   2.125  50.899  1.00  0.00     0.108 C 
HETATM   15  H13 UNL     1      22.844  -1.634  52.388  1.00  0.00     0.159 HD
ENDROOT
BRANCH   1  16
HETATM   16  C6  UNL     1      24.891   2.884  50.378  1.00  0.00     0.009 C 
BRANCH  16  17
HETATM   17  C5  UNL     1      24.945   4.294  50.111  1.00  0.00     0.022 C 
BRANCH  17  18
HETATM   18  C4  UNL     1      25.139   5.145  49.118  1.00  0.00     0.035 C 
HETATM   19 CL1  UNL     1      23.545   5.279  48.422  1.00  0.00    -0.087 Cl
BRANCH  18  20
HETATM   20  C3  UNL     1      26.433   5.742  48.798  1.00  0.00     0.218 C 
BRANCH  20  21
HETATM   21  O1  UNL     1      27.487   4.871  48.801  1.00  0.00    -0.386 OA
BRANCH  21  22
HETATM   22  C2  UNL     1      28.667   5.358  48.271  1.00  0.00     0.163 C 
HETATM   23  C1  UNL     1      28.420   6.832  47.933  1.00  0.00     0.033 C 
ENDBRANCH  21  22
ENDBRANCH  20  21
ENDBRANCH  18  20
ENDBRANCH  17  18
ENDBRANCH  16  17
ENDBRANCH   1  16
TORSDOF 6
ENDMDL
MODEL 9
REMARK VINA RESULT:      -6.6      5.161      6.489
REMARK  6 active torsions:
REMARK  status: ('A' for Active; 'I' for Inactive)
REMARK    1  A    between atoms: C2_2  and  O1_3 
REMARK    2  A    between atoms: O1_3  and  C3_4 
REMARK    3  A    between atoms: C3_4  and  C4_5 
REMARK    4  A    between atoms: C4_5  and  C5_7 
REMARK    5  A    between atoms: C5_7  and  C6_8 
REMARK    6  A    between atoms: C6_8  and  C7_9 
ROOT
HETATM    1  C7  UNL     1      25.673   2.267  51.203  1.00  0.00    -0.051 C 
HETATM    2  C8  UNL     1      26.540   1.604  52.214  1.00  0.00     0.027 C 
HETATM    3  C9  UNL     1      26.342   0.803  53.238  1.00  0.00     0.040 C 
HETATM    4  C10 UNL     1      27.231   0.179  54.165  1.00  0.00     0.097 C 
HETATM    5  N1  UNL     1      27.954  -0.315  54.892  1.00  0.00    -0.192 NA
HETATM    6  C11 UNL     1      24.899   0.761  53.567  1.00  0.00     0.169 C 
HETATM    7  N2  UNL     1      24.296  -0.473  53.199  1.00  0.00    -0.389 N 
HETATM    8  C12 UNL     1      22.941  -0.090  53.591  1.00  0.00     0.001 C 
HETATM    9  C13 UNL     1      22.538  -1.121  54.532  1.00  0.00     0.068 C 
HETATM   10  C14 UNL     1      22.163   0.943  53.232  1.00  0.00     0.027 C 
HETATM   11  C15 UNL     1      22.290   2.090  52.332  1.00  0.00     0.040 C 
HETATM   12  C16 UNL     1      23.133   2.658  51.439  1.00  0.00     0.098 C 
HETATM   13  F1  UNL     1      22.856   3.833  50.780  1.00  0.00    -0.210 F 
HETATM   14  C17 UNL     1      24.314   2.114  50.801  1.00  0.00     0.108 C 
HETATM   15  H13 UNL     1      24.524  -1.398  52.798  1.00  0.00     0.159 HD
ENDROOT
BRANCH   1  16
HETATM   16  C6  UNL     1      26.517   2.975  50.442  1.00  0.00     0.009 C 
BRANCH  16  17
HETATM   17  C5  UNL     1      26.313   3.982  49.438  1.00  0.00     0.022 C 
BRANCH  17  18
HETATM   18  C4  UNL     1      26.420   5.286  49.256  1.00  0.00     0.035 C 
HETATM   19 CL1  UNL     1      25.089   5.908  50.198  1.00  0.00    -0.087 Cl
BRANCH  18  20
HETATM   20  C3  UNL     1      27.453   5.913  48.434  1.00  0.00     0.218 C 
BRANCH  20  21
HETATM   21  O1  UNL     1      27.673   7.236  48.695  1.00  0.00    -0.386 OA
BRANCH  21  22
HETATM   22  C2  UNL     1      28.902   7.728  48.298  1.00  0.00     0.163 C 
HETATM   23  C1  UNL     1      29.204   8.931  49.198  1.00  0.00     0.033 C 
ENDBRANCH  21  22
ENDBRANCH  20  21
ENDBRANCH  18  20
ENDBRANCH  17  18
ENDBRANCH  16  17
ENDBRANCH   1  16
TORSDOF 6
ENDMDL
