MODEL 1
REMARK VINA RESULT:      -7.7      0.000      0.000
REMARK  2 active torsions:
REMARK  status: ('A' for Active; 'I' for Inactive)
REMARK    1  A    between atoms: C2_2  and  N1_3 
REMARK    2  A    between atoms: C13_18  and  O2_19 
ROOT
HETATM    1  N1  UNL     1      26.553   1.023  52.955  1.00  0.00    -0.249 N 
HETATM    2  N2  UNL     1      26.429   0.065  54.006  1.00  0.00    -0.163 NA
HETATM    3  C3  UNL     1      25.214  -0.326  54.248  1.00  0.00     0.230 A 
HETATM    4  N3  UNL     1      24.133   0.212  53.482  1.00  0.00    -0.346 N 
HETATM    5  C4  UNL     1      24.162   1.167  52.426  1.00  0.00     0.083 A 
HETATM    6  C5  UNL     1      22.917   1.283  52.103  1.00  0.00     0.060 C 
HETATM    7  C6  UNL     1      21.604   0.732  52.473  1.00  0.00     0.226 C 
HETATM    8  O1  UNL     1      21.164   0.040  51.331  1.00  0.00    -0.384 OA
HETATM    9  C7  UNL     1      21.226   0.706  50.156  1.00  0.00     0.187 C 
HETATM   10  C8  UNL     1      22.397   1.638  49.966  1.00  0.00     0.149 C 
HETATM   11  N4  UNL     1      22.476   2.386  51.230  1.00  0.00    -0.378 N 
HETATM   12  C9  UNL     1      22.398   3.416  52.179  1.00  0.00     0.123 C 
HETATM   13  C10 UNL     1      22.152   4.839  51.878  1.00  0.00     0.020 C 
HETATM   14  C11 UNL     1      23.435   5.440  51.397  1.00  0.00     0.008 C 
HETATM   15  C12 UNL     1      24.024   4.874  50.168  1.00  0.00     0.064 C 
HETATM   16  C13 UNL     1      25.323   5.459  49.778  1.00  0.00     0.042 C 
HETATM   17  C15 UNL     1      26.224   4.523  49.801  1.00  0.00     0.006 C 
HETATM   18  C16 UNL     1      26.489   3.106  50.067  1.00  0.00     0.041 C 
HETATM   19  C17 UNL     1      25.669   2.392  51.041  1.00  0.00     0.054 C 
HETATM   20  C18 UNL     1      25.478   1.600  52.138  1.00  0.00     0.069 A 
HETATM   21  H5  UNL     1      23.341  -0.321  53.951  1.00  0.00     0.167 HD
ENDROOT
BRANCH   1  22
HETATM   22  C2  UNL     1      27.900   1.433  52.716  1.00  0.00     0.092 C 
HETATM   23  C1  UNL     1      28.305   2.355  53.579  1.00  0.00     0.052 C 
ENDBRANCH   1  22
BRANCH  16  24
HETATM   24  O2  UNL     1      25.349   6.803  49.477  1.00  0.00    -0.361 OA
HETATM   25  C14 UNL     1      26.104   7.772  50.151  1.00  0.00     0.209 C 
ENDBRANCH  16  24
TORSDOF 2
ENDMDL
MODEL 2
REMARK VINA RESULT:      -7.5      1.770      5.543
REMARK  2 active torsions:
REMARK  status: ('A' for Active; 'I' for Inactive)
REMARK    1  A    between atoms: C2_2  and  N1_3 
REMARK    2  A    between atoms: C13_18  and  O2_19 
ROOT
HETATM    1  N1  UNL     1      25.248   0.404  52.804  1.00  0.00    -0.249 N 
HETATM    2  N2  UNL     1      26.571   0.680  52.344  1.00  0.00    -0.163 NA
HETATM    3  C3  UNL     1      26.673   1.717  51.567  1.00  0.00     0.230 A 
HETATM    4  N3  UNL     1      25.504   2.471  51.237  1.00  0.00    -0.346 N 
HETATM    5  C4  UNL     1      24.155   2.269  51.642  1.00  0.00     0.083 A 
HETATM    6  C5  UNL     1      23.526   3.232  51.057  1.00  0.00     0.060 C 
HETATM    7  C6  UNL     1      23.799   4.389  50.189  1.00  0.00     0.226 C 
HETATM    8  O1  UNL     1      23.469   5.513  50.965  1.00  0.00    -0.384 OA
HETATM    9  C7  UNL     1      22.264   5.495  51.579  1.00  0.00     0.187 C 
HETATM   10  C8  UNL     1      21.787   4.160  52.094  1.00  0.00     0.149 C 
HETATM   11  N4  UNL     1      22.053   3.227  50.990  1.00  0.00    -0.378 N 
HETATM   12  C9  UNL     1      21.873   2.356  49.905  1.00  0.00     0.123 C 
HETATM   13  C10 UNL     1      20.578   1.820  49.444  1.00  0.00     0.020 C 
HETATM   14  C11 UNL     1      20.190   0.696  50.353  1.00  0.00     0.008 C 
HETATM   15  C12 UNL     1      19.998   1.021  51.779  1.00  0.00     0.064 C 
HETATM   16  C13 UNL     1      19.683  -0.137  52.640  1.00  0.00     0.042 C 
HETATM   17  C15 UNL     1      20.629  -0.269  53.522  1.00  0.00     0.006 C 
HETATM   18  C16 UNL     1      21.902   0.261  54.018  1.00  0.00     0.041 C 
HETATM   19  C17 UNL     1      22.808   0.936  53.092  1.00  0.00     0.054 C 
HETATM   20  C18 UNL     1      24.020   1.149  52.498  1.00  0.00     0.069 A 
HETATM   21  H5  UNL     1      25.969   3.199  50.616  1.00  0.00     0.167 HD
ENDROOT
BRANCH   1  22
HETATM   22  C2  UNL     1      25.169  -0.741  53.652  1.00  0.00     0.092 C 
HETATM   23  C1  UNL     1      25.670  -0.510  54.858  1.00  0.00     0.052 C 
ENDBRANCH   1  22
BRANCH  16  24
HETATM   24  O2  UNL     1      18.520  -0.828  52.376  1.00  0.00    -0.361 OA
HETATM   25  C14 UNL     1      17.779  -1.560  53.313  1.00  0.00     0.209 C 
ENDBRANCH  16  24
TORSDOF 2
ENDMDL
MODEL 3
REMARK VINA RESULT:      -7.4      1.944      2.640
REMARK  2 active torsions:
REMARK  status: ('A' for Active; 'I' for Inactive)
REMARK    1  A    between atoms: C2_2  and  N1_3 
REMARK    2  A    between atoms: C13_18  and  O2_19 
ROOT
HETATM    1  N1  UNL     1      25.241   1.545  52.073  1.00  0.00    -0.249 N 
HETATM    2  N2  UNL     1      24.522   0.846  53.088  1.00  0.00    -0.163 NA
HETATM    3  C3  UNL     1      23.284   1.214  53.232  1.00  0.00     0.230 A 
HETATM    4  N3  UNL     1      22.755   2.252  52.404  1.00  0.00    -0.346 N 
HETATM    5  C4  UNL     1      23.394   3.002  51.376  1.00  0.00     0.083 A 
HETATM    6  C5  UNL     1      22.459   3.793  50.967  1.00  0.00     0.060 C 
HETATM    7  C6  UNL     1      21.041   4.086  51.228  1.00  0.00     0.226 C 
HETATM    8  O1  UNL     1      20.373   3.740  50.041  1.00  0.00    -0.384 OA
HETATM    9  C7  UNL     1      20.886   4.231  48.890  1.00  0.00     0.187 C 
HETATM   10  C8  UNL     1      22.388   4.336  48.808  1.00  0.00     0.149 C 
HETATM   11  N4  UNL     1      22.782   4.935  50.092  1.00  0.00    -0.378 N 
HETATM   12  C9  UNL     1      23.229   5.849  51.058  1.00  0.00     0.123 C 
HETATM   13  C10 UNL     1      23.851   7.156  50.775  1.00  0.00     0.020 C 
HETATM   14  C11 UNL     1      25.281   6.919  50.403  1.00  0.00     0.008 C 
HETATM   15  C12 UNL     1      25.536   6.094  49.206  1.00  0.00     0.064 C 
HETATM   16  C13 UNL     1      26.963   5.836  48.925  1.00  0.00     0.042 C 
HETATM   17  C15 UNL     1      27.175   4.556  48.990  1.00  0.00     0.006 C 
HETATM   18  C16 UNL     1      26.575   3.242  49.239  1.00  0.00     0.041 C 
HETATM   19  C17 UNL     1      25.427   3.135  50.134  1.00  0.00     0.054 C 
HETATM   20  C18 UNL     1      24.742   2.612  51.195  1.00  0.00     0.069 A 
HETATM   21  H5  UNL     1      21.768   2.267  52.801  1.00  0.00     0.167 HD
ENDROOT
BRANCH   1  22
HETATM   22  C2  UNL     1      26.598   1.120  51.942  1.00  0.00     0.092 C 
HETATM   23  C1  UNL     1      26.723  -0.197  52.027  1.00  0.00     0.052 C 
ENDBRANCH   1  22
BRANCH  16  24
HETATM   24  O2  UNL     1      27.765   6.926  48.659  1.00  0.00    -0.361 OA
HETATM   25  C14 UNL     1      29.005   6.882  48.009  1.00  0.00     0.209 C 
ENDBRANCH  16  24
TORSDOF 2
ENDMDL
MODEL 4
REMARK VINA RESULT:      -6.9      2.034      5.364
REMARK  2 active torsions:
REMARK  status: ('A' for Active; 'I' for Inactive)
REMARK    1  A    between atoms: C2_2  and  N1_3 
REMARK    2  A    between atoms: C13_18  and  O2_19 
ROOT
HETATM    1  N1  UNL     1      26.205   2.501  51.097  1.00  0.00    -0.249 N 
HETATM    2  N2  UNL     1      27.155   3.103  50.218  1.00  0.00    -0.163 NA
HETATM    3  C3  UNL     1      26.659   3.976  49.393  1.00  0.00     0.230 A 
HETATM    4  N3  UNL     1      25.257   4.254  49.419  1.00  0.00    -0.346 N 
HETATM    5  C4  UNL     1      24.241   3.704  50.251  1.00  0.00     0.083 A 
HETATM    6  C5  UNL     1      23.174   4.308  49.848  1.00  0.00     0.060 C 
HETATM    7  C6  UNL     1      22.761   5.332  48.875  1.00  0.00     0.226 C 
HETATM    8  O1  UNL     1      22.292   6.405  49.652  1.00  0.00    -0.384 OA
HETATM    9  C7  UNL     1      21.400   6.107  50.624  1.00  0.00     0.187 C 
HETATM   10  C8  UNL     1      21.593   4.793  51.340  1.00  0.00     0.149 C 
HETATM   11  N4  UNL     1      21.844   3.824  50.263  1.00  0.00    -0.378 N 
HETATM   12  C9  UNL     1      21.682   2.776  49.345  1.00  0.00     0.123 C 
HETATM   13  C10 UNL     1      20.586   1.789  49.360  1.00  0.00     0.020 C 
HETATM   14  C11 UNL     1      20.896   0.765  50.407  1.00  0.00     0.008 C 
HETATM   15  C12 UNL     1      21.017   1.242  51.798  1.00  0.00     0.064 C 
HETATM   16  C13 UNL     1      21.391   0.202  52.778  1.00  0.00     0.042 C 
HETATM   17  C15 UNL     1      22.531   0.523  53.311  1.00  0.00     0.006 C 
HETATM   18  C16 UNL     1      23.621   1.505  53.336  1.00  0.00     0.041 C 
HETATM   19  C17 UNL     1      23.925   2.270  52.131  1.00  0.00     0.054 C 
HETATM   20  C18 UNL     1      24.760   2.756  51.165  1.00  0.00     0.069 A 
HETATM   21  H5  UNL     1      25.238   4.980  48.641  1.00  0.00     0.167 HD
ENDROOT
BRANCH   1  22
HETATM   22  C2  UNL     1      26.781   1.545  51.988  1.00  0.00     0.092 C 
HETATM   23  C1  UNL     1      27.610   2.104  52.858  1.00  0.00     0.052 C 
ENDBRANCH   1  22
BRANCH  16  24
HETATM   24  O2  UNL     1      20.523  -0.856  52.944  1.00  0.00    -0.361 OA
HETATM   25  C14 UNL     1      19.193  -0.755  53.372  1.00  0.00     0.209 C 
ENDBRANCH  16  24
TORSDOF 2
ENDMDL
MODEL 5
REMARK VINA RESULT:      -6.7      2.105      5.312
REMARK  2 active torsions:
REMARK  status: ('A' for Active; 'I' for Inactive)
REMARK    1  A    between atoms: C2_2  and  N1_3 
REMARK    2  A    between atoms: C13_18  and  O2_19 
ROOT
HETATM    1  N1  UNL     1      23.269   0.068  53.326  1.00  0.00    -0.249 N 
HETATM    2  N2  UNL     1      24.580  -0.418  53.612  1.00  0.00    -0.163 NA
HETATM    3  C3  UNL     1      25.534   0.167  52.953  1.00  0.00     0.230 A 
HETATM    4  N3  UNL     1      25.217   1.206  52.023  1.00  0.00    -0.346 N 
HETATM    5  C4  UNL     1      23.948   1.748  51.673  1.00  0.00     0.083 A 
HETATM    6  C5  UNL     1      24.247   2.649  50.798  1.00  0.00     0.060 C 
HETATM    7  C6  UNL     1      25.429   3.233  50.143  1.00  0.00     0.226 C 
HETATM    8  O1  UNL     1      25.462   4.569  50.575  1.00  0.00    -0.384 OA
HETATM    9  C7  UNL     1      24.310   5.271  50.469  1.00  0.00     0.187 C 
HETATM   10  C8  UNL     1      23.031   4.514  50.726  1.00  0.00     0.149 C 
HETATM   11  N4  UNL     1      23.190   3.262  49.971  1.00  0.00    -0.378 N 
HETATM   12  C9  UNL     1      23.048   2.262  48.998  1.00  0.00     0.123 C 
HETATM   13  C10 UNL     1      22.005   2.226  47.956  1.00  0.00     0.020 C 
HETATM   14  C11 UNL     1      20.739   1.733  48.583  1.00  0.00     0.008 C 
HETATM   15  C12 UNL     1      20.173   2.541  49.680  1.00  0.00     0.064 C 
HETATM   16  C13 UNL     1      18.962   1.972  50.307  1.00  0.00     0.042 C 
HETATM   17  C15 UNL     1      19.216   1.729  51.558  1.00  0.00     0.006 C 
HETATM   18  C16 UNL     1      20.227   1.781  52.619  1.00  0.00     0.041 C 
HETATM   19  C17 UNL     1      21.640   1.666  52.270  1.00  0.00     0.054 C 
HETATM   20  C18 UNL     1      22.893   1.133  52.387  1.00  0.00     0.069 A 
HETATM   21  H5  UNL     1      26.208   1.422  51.701  1.00  0.00     0.167 HD
ENDROOT
BRANCH   1  22
HETATM   22  C2  UNL     1      22.243  -0.596  54.065  1.00  0.00     0.092 C 
HETATM   23  C1  UNL     1      22.724  -1.268  55.102  1.00  0.00     0.052 C 
ENDBRANCH   1  22
BRANCH  16  24
HETATM   24  O2  UNL     1      17.850   1.810  49.509  1.00  0.00    -0.361 OA
HETATM   25  C14 UNL     1      17.188   2.835  48.820  1.00  0.00     0.209 C 
ENDBRANCH  16  24
TORSDOF 2
ENDMDL
MODEL 6
REMARK VINA RESULT:      -6.6      3.091      6.212
REMARK  2 active torsions:
REMARK  status: ('A' for Active; 'I' for Inactive)
REMARK    1  A    between atoms: C2_2  and  N1_3 
REMARK    2  A    between atoms: C13_18  and  O2_19 
ROOT
HETATM    1  N1  UNL     1      19.765  -0.635  53.341  1.00  0.00    -0.249 N 
HETATM    2  N2  UNL     1      20.522  -1.517  54.168  1.00  0.00    -0.163 NA
HETATM    3  C3  UNL     1      21.788  -1.235  54.252  1.00  0.00     0.230 A 
HETATM    4  N3  UNL     1      22.311  -0.114  53.535  1.00  0.00    -0.346 N 
HETATM    5  C4  UNL     1      21.636   0.812  52.690  1.00  0.00     0.083 A 
HETATM    6  C5  UNL     1      22.581   1.608  52.315  1.00  0.00     0.060 C 
HETATM    7  C6  UNL     1      24.023   1.817  52.522  1.00  0.00     0.226 C 
HETATM    8  O1  UNL     1      24.121   3.058  53.173  1.00  0.00    -0.384 OA
HETATM    9  C7  UNL     1      23.439   4.088  52.624  1.00  0.00     0.187 C 
HETATM   10  C8  UNL     1      22.104   3.761  52.001  1.00  0.00     0.149 C 
HETATM   11  N4  UNL     1      22.361   2.552  51.204  1.00  0.00    -0.378 N 
HETATM   12  C9  UNL     1      22.563   1.686  50.119  1.00  0.00     0.123 C 
HETATM   13  C10 UNL     1      22.322   2.020  48.703  1.00  0.00     0.020 C 
HETATM   14  C11 UNL     1      20.850   1.922  48.447  1.00  0.00     0.008 C 
HETATM   15  C12 UNL     1      19.973   2.824  49.220  1.00  0.00     0.064 C 
HETATM   16  C13 UNL     1      18.528   2.638  48.977  1.00  0.00     0.042 C 
HETATM   17  C15 UNL     1      17.962   2.279  50.091  1.00  0.00     0.006 C 
HETATM   18  C16 UNL     1      18.171   1.971  51.509  1.00  0.00     0.041 C 
HETATM   19  C17 UNL     1      19.457   1.433  51.944  1.00  0.00     0.054 C 
HETATM   20  C18 UNL     1      20.253   0.530  52.591  1.00  0.00     0.069 A 
HETATM   21  H5  UNL     1      23.326  -0.206  53.839  1.00  0.00     0.167 HD
ENDROOT
BRANCH   1  22
HETATM   22  C2  UNL     1      18.380  -0.973  53.269  1.00  0.00     0.092 C 
HETATM   23  C1  UNL     1      18.147  -2.225  53.639  1.00  0.00     0.052 C 
ENDBRANCH   1  22
BRANCH  16  24
HETATM   24  O2  UNL     1      18.064   2.864  47.699  1.00  0.00    -0.361 OA
HETATM   25  C14 UNL     1      16.720   2.832  47.305  1.00  0.00     0.209 C 
ENDBRANCH  16  24
TORSDOF 2
ENDMDL
MODEL 7
REMARK VINA RESULT:      -6.6      3.141      5.228
REMARK  2 active torsions:
REMARK  status: ('A' for Active; 'I' for Inactive)
REMARK    1  A    between atoms: C2_2  and  N1_3 
REMARK    2  A    between atoms: C13_18  and  O2_19 
ROOT
HETATM    1  N1  UNL     1      24.495   3.898  51.703  1.00  0.00    -0.249 N 
HETATM    2  N2  UNL     1      23.456   3.813  52.677  1.00  0.00    -0.163 NA
HETATM    3  C3  UNL     1      22.555   4.747  52.597  1.00  0.00     0.230 A 
HETATM    4  N3  UNL     1      22.668   5.752  51.587  1.00  0.00    -0.346 N 
HETATM    5  C4  UNL     1      23.665   5.916  50.583  1.00  0.00     0.083 A 
HETATM    6  C5  UNL     1      23.275   6.974  49.954  1.00  0.00     0.060 C 
HETATM    7  C6  UNL     1      22.173   7.950  49.971  1.00  0.00     0.226 C 
HETATM    8  O1  UNL     1      21.506   7.767  48.748  1.00  0.00    -0.384 OA
HETATM    9  C7  UNL     1      22.273   7.748  47.634  1.00  0.00     0.187 C 
HETATM   10  C8  UNL     1      23.632   7.106  47.760  1.00  0.00     0.149 C 
HETATM   11  N4  UNL     1      24.180   7.654  49.009  1.00  0.00    -0.378 N 
HETATM   12  C9  UNL     1      24.952   8.393  49.918  1.00  0.00     0.123 C 
HETATM   13  C10 UNL     1      26.157   9.173  49.579  1.00  0.00     0.020 C 
HETATM   14  C11 UNL     1      27.305   8.221  49.448  1.00  0.00     0.008 C 
HETATM   15  C12 UNL     1      27.201   7.183  48.404  1.00  0.00     0.064 C 
HETATM   16  C13 UNL     1      28.329   6.231  48.364  1.00  0.00     0.042 C 
HETATM   17  C15 UNL     1      27.875   5.038  48.607  1.00  0.00     0.006 C 
HETATM   18  C16 UNL     1      26.688   4.235  48.916  1.00  0.00     0.041 C 
HETATM   19  C17 UNL     1      25.578   4.846  49.642  1.00  0.00     0.054 C 
HETATM   20  C18 UNL     1      24.652   4.904  50.645  1.00  0.00     0.069 A 
HETATM   21  H5  UNL     1      21.793   6.305  51.832  1.00  0.00     0.167 HD
ENDROOT
BRANCH   1  22
HETATM   22  C2  UNL     1      25.469   2.860  51.820  1.00  0.00     0.092 C 
HETATM   23  C1  UNL     1      25.148   1.970  52.749  1.00  0.00     0.052 C 
ENDBRANCH   1  22
BRANCH  16  24
HETATM   24  O2  UNL     1      29.581   6.740  48.094  1.00  0.00    -0.361 OA
HETATM   25  C14 UNL     1      30.780   6.291  48.661  1.00  0.00     0.209 C 
ENDBRANCH  16  24
TORSDOF 2
ENDMDL
MODEL 8
REMARK VINA RESULT:      -6.5      1.960      4.470
REMARK  2 active torsions:
REMARK  status: ('A' for Active; 'I' for Inactive)
REMARK    1  A    between atoms: C2_2  and  N1_3 
REMARK    2  A    between atoms: C13_18  and  O2_19 
ROOT
HETATM    1  N1  UNL     1      21.678   1.174  52.815  1.00  0.00    -0.249 N 
HETATM    2  N2  UNL     1      21.390  -0.209  53.019  1.00  0.00    -0.163 NA
HETATM    3  C3  UNL     1      22.433  -0.983  53.055  1.00  0.00     0.230 A 
HETATM    4  N3  UNL     1      23.737  -0.421  52.888  1.00  0.00    -0.346 N 
HETATM    5  C4  UNL     1      24.115   0.935  52.677  1.00  0.00     0.083 A 
HETATM    6  C5  UNL     1      25.403   0.871  52.599  1.00  0.00     0.060 C 
HETATM    7  C6  UNL     1      26.486  -0.122  52.685  1.00  0.00     0.226 C 
HETATM    8  O1  UNL     1      27.224   0.242  53.824  1.00  0.00    -0.384 OA
HETATM    9  C7  UNL     1      27.591   1.540  53.921  1.00  0.00     0.187 C 
HETATM   10  C8  UNL     1      26.609   2.561  53.403  1.00  0.00     0.149 C 
HETATM   11  N4  UNL     1      26.176   2.025  52.104  1.00  0.00    -0.378 N 
HETATM   12  C9  UNL     1      26.011   1.840  50.723  1.00  0.00     0.123 C 
HETATM   13  C10 UNL     1      26.436   2.789  49.677  1.00  0.00     0.020 C 
HETATM   14  C11 UNL     1      25.421   3.887  49.606  1.00  0.00     0.008 C 
HETATM   15  C12 UNL     1      25.225   4.701  50.821  1.00  0.00     0.064 C 
HETATM   16  C13 UNL     1      24.164   5.724  50.716  1.00  0.00     0.042 C 
HETATM   17  C15 UNL     1      23.243   5.460  51.594  1.00  0.00     0.006 C 
HETATM   18  C16 UNL     1      22.812   4.547  52.658  1.00  0.00     0.041 C 
HETATM   19  C17 UNL     1      23.223   3.147  52.612  1.00  0.00     0.054 C 
HETATM   20  C18 UNL     1      22.995   1.800  52.644  1.00  0.00     0.069 A 
HETATM   21  H5  UNL     1      24.297  -1.321  52.974  1.00  0.00     0.167 HD
ENDROOT
BRANCH   1  22
HETATM   22  C2  UNL     1      20.511   1.997  52.778  1.00  0.00     0.092 C 
HETATM   23  C1  UNL     1      19.791   1.801  51.682  1.00  0.00     0.052 C 
ENDBRANCH   1  22
BRANCH  16  24
HETATM   24  O2  UNL     1      24.327   6.713  49.770  1.00  0.00    -0.361 OA
HETATM   25  C14 UNL     1      24.715   8.032  50.033  1.00  0.00     0.209 C 
ENDBRANCH  16  24
TORSDOF 2
ENDMDL
MODEL 9
REMARK VINA RESULT:      -6.5      5.369      8.803
REMARK  2 active torsions:
REMARK  status: ('A' for Active; 'I' for Inactive)
REMARK    1  A    between atoms: C2_2  and  N1_3 
REMARK    2  A    between atoms: C13_18  and  O2_19 
ROOT
HETATM    1  N1  UNL     1      26.713   5.545  48.827  1.00  0.00    -0.249 N 
HETATM    2  N2  UNL     1      25.334   5.780  49.112  1.00  0.00    -0.163 NA
HETATM    3  C3  UNL     1      24.928   6.992  48.877  1.00  0.00     0.230 A 
HETATM    4  N3  UNL     1      25.851   7.963  48.380  1.00  0.00    -0.346 N 
HETATM    5  C4  UNL     1      27.234   7.821  48.073  1.00  0.00     0.083 A 
HETATM    6  C5  UNL     1      27.565   9.000  47.665  1.00  0.00     0.060 C 
HETATM    7  C6  UNL     1      26.958  10.319  47.427  1.00  0.00     0.226 C 
HETATM    8  O1  UNL     1      27.056  10.520  46.039  1.00  0.00    -0.384 OA
HETATM    9  C7  UNL     1      28.269  10.308  45.479  1.00  0.00     0.187 C 
HETATM   10  C8  UNL     1      29.093   9.183  46.054  1.00  0.00     0.149 C 
HETATM   11  N4  UNL     1      28.987   9.361  47.510  1.00  0.00    -0.378 N 
HETATM   12  C9  UNL     1      29.297   9.659  48.845  1.00  0.00     0.123 C 
HETATM   13  C10 UNL     1      30.649   9.941  49.365  1.00  0.00     0.020 C 
HETATM   14  C11 UNL     1      31.362   8.636  49.537  1.00  0.00     0.008 C 
HETATM   15  C12 UNL     1      31.569   7.818  48.326  1.00  0.00     0.064 C 
HETATM   16  C13 UNL     1      32.216   6.513  48.565  1.00  0.00     0.042 C 
HETATM   17  C15 UNL     1      31.396   5.570  48.209  1.00  0.00     0.006 C 
HETATM   18  C16 UNL     1      30.068   5.264  47.665  1.00  0.00     0.041 C 
HETATM   19  C17 UNL     1      28.963   6.186  47.907  1.00  0.00     0.054 C 
HETATM   20  C18 UNL     1      27.698   6.505  48.312  1.00  0.00     0.069 A 
HETATM   21  H5  UNL     1      25.179   8.786  48.320  1.00  0.00     0.167 HD
ENDROOT
BRANCH   1  22
HETATM   22  C2  UNL     1      27.129   4.206  49.097  1.00  0.00     0.092 C 
HETATM   23  C1  UNL     1      26.251   3.547  49.840  1.00  0.00     0.052 C 
ENDBRANCH   1  22
BRANCH  16  24
HETATM   24  O2  UNL     1      33.491   6.522  49.088  1.00  0.00    -0.361 OA
HETATM   25  C14 UNL     1      34.517   5.632  48.744  1.00  0.00     0.209 C 
ENDBRANCH  16  24
TORSDOF 2
ENDMDL
