MODEL 1
REMARK VINA RESULT:      -7.4      0.000      0.000
REMARK  3 active torsions:
REMARK  status: ('A' for Active; 'I' for Inactive)
REMARK    1  A    between atoms: C1_2  and  O2_3 
REMARK    2  A    between atoms: C1_2  and  S1_4 
REMARK    3  A    between atoms: C7_13  and  N3_14 
ROOT
HETATM    1  S1  UNL     1      27.966  -0.654  53.036  1.00  0.00    -0.064 SA
HETATM    2  C2  UNL     1      28.250   0.948  53.229  1.00  0.00     0.020 C 
HETATM    3  C3  UNL     1      27.136   1.613  52.955  1.00  0.00     0.030 C 
HETATM    4  C4  UNL     1      25.915   1.432  53.787  1.00  0.00     0.186 C 
HETATM    5  O3  UNL     1      25.004   2.457  53.619  1.00  0.00    -0.319 OA
HETATM    6  C5  UNL     1      24.025   2.645  52.644  1.00  0.00     0.197 A 
HETATM    7  N1  UNL     1      23.895   3.878  52.101  1.00  0.00    -0.216 NA
HETATM    8  C6  UNL     1      22.957   4.079  51.160  1.00  0.00     0.238 A 
HETATM    9  N2  UNL     1      22.126   3.088  50.726  1.00  0.00    -0.221 NA
HETATM   10  C7  UNL     1      22.265   1.852  51.279  1.00  0.00     0.166 A 
HETATM   11  C8  UNL     1      23.226   1.588  52.262  1.00  0.00     0.129 A 
HETATM   12  N4  UNL     1      23.140   0.218  52.651  1.00  0.00    -0.379 N 
HETATM   13  C9  UNL     1      24.002  -0.297  53.686  1.00  0.00     0.157 C 
HETATM   14  C10 UNL     1      25.404   0.076  53.564  1.00  0.00    -0.023 C 
HETATM   15  C11 UNL     1      26.174  -0.960  53.228  1.00  0.00     0.057 C 
HETATM   16  H6  UNL     1      22.422  -0.350  52.135  1.00  0.00     0.160 HD
ENDROOT
BRANCH   1  17
HETATM   17  C1  UNL     1      29.131  -1.960  53.456  1.00  0.00     0.206 C 
HETATM   18  O1  UNL     1      30.309  -1.681  53.841  1.00  0.00    -0.641 OA
BRANCH  17  19
HETATM   19  O2  UNL     1      28.700  -3.267  53.346  1.00  0.00    -0.768 OA
HETATM   20  H1  UNL     1      27.928  -3.605  53.936  1.00  0.00     0.168 HD
ENDBRANCH  17  19
ENDBRANCH   1  17
BRANCH  10  21
HETATM   21  N3  UNL     1      21.401   0.813  50.830  1.00  0.00    -0.305 N 
HETATM   22 BR1  UNL     1      21.401   1.165  48.983  1.00  0.00     0.048 Br
HETATM   23  H5  UNL     1      20.877   0.045  51.277  1.00  0.00     0.175 HD
ENDBRANCH  10  21
TORSDOF 3
ENDMDL
MODEL 2
REMARK VINA RESULT:      -7.3      2.247      3.401
REMARK  3 active torsions:
REMARK  status: ('A' for Active; 'I' for Inactive)
REMARK    1  A    between atoms: C1_2  and  O2_3 
REMARK    2  A    between atoms: C1_2  and  S1_4 
REMARK    3  A    between atoms: C7_13  and  N3_14 
ROOT
HETATM    1  S1  UNL     1      27.461   0.326  53.324  1.00  0.00    -0.064 SA
HETATM    2  C2  UNL     1      26.033  -0.476  53.274  1.00  0.00     0.020 C 
HETATM    3  C3  UNL     1      25.078   0.377  52.930  1.00  0.00     0.030 C 
HETATM    4  C4  UNL     1      25.088   1.035  51.593  1.00  0.00     0.186 C 
HETATM    5  O3  UNL     1      23.858   1.562  51.254  1.00  0.00    -0.319 OA
HETATM    6  C5  UNL     1      23.274   2.784  51.590  1.00  0.00     0.197 A 
HETATM    7  N1  UNL     1      21.975   2.788  51.968  1.00  0.00    -0.216 NA
HETATM    8  C6  UNL     1      21.396   3.956  52.294  1.00  0.00     0.238 A 
HETATM    9  N2  UNL     1      22.065   5.143  52.261  1.00  0.00    -0.221 NA
HETATM   10  C7  UNL     1      23.372   5.128  51.879  1.00  0.00     0.166 A 
HETATM   11  C8  UNL     1      24.023   3.940  51.529  1.00  0.00     0.129 A 
HETATM   12  N4  UNL     1      25.375   4.229  51.176  1.00  0.00    -0.379 N 
HETATM   13  C9  UNL     1      26.251   3.172  50.735  1.00  0.00     0.157 C 
HETATM   14  C10 UNL     1      26.221   1.965  51.549  1.00  0.00    -0.023 C 
HETATM   15  C11 UNL     1      27.344   1.801  52.249  1.00  0.00     0.057 C 
HETATM   16  H6  UNL     1      25.656   5.239  51.263  1.00  0.00     0.160 HD
ENDROOT
BRANCH   1  17
HETATM   17  C1  UNL     1      29.065  -0.450  53.581  1.00  0.00     0.206 C 
HETATM   18  O1  UNL     1      29.155  -1.698  53.796  1.00  0.00    -0.641 OA
BRANCH  17  19
HETATM   19  O2  UNL     1      30.184   0.357  53.535  1.00  0.00    -0.768 OA
HETATM   20  H1  UNL     1      30.784   0.356  52.699  1.00  0.00     0.168 HD
ENDBRANCH  17  19
ENDBRANCH   1  17
BRANCH  10  21
HETATM   21  N3  UNL     1      24.077   6.366  51.843  1.00  0.00    -0.305 N 
HETATM   22 BR1  UNL     1      23.043   7.292  50.575  1.00  0.00     0.048 Br
HETATM   23  H5  UNL     1      24.907   6.755  52.316  1.00  0.00     0.175 HD
ENDBRANCH  10  21
TORSDOF 3
ENDMDL
MODEL 3
REMARK VINA RESULT:      -7.2      3.786      5.035
REMARK  3 active torsions:
REMARK  status: ('A' for Active; 'I' for Inactive)
REMARK    1  A    between atoms: C1_2  and  O2_3 
REMARK    2  A    between atoms: C1_2  and  S1_4 
REMARK    3  A    between atoms: C7_13  and  N3_14 
ROOT
HETATM    1  S1  UNL     1      26.184   1.357  53.089  1.00  0.00    -0.064 SA
HETATM    2  C2  UNL     1      24.601   1.732  53.278  1.00  0.00     0.020 C 
HETATM    3  C3  UNL     1      24.353   2.866  52.636  1.00  0.00     0.030 C 
HETATM    4  C4  UNL     1      24.497   2.952  51.156  1.00  0.00     0.186 C 
HETATM    5  O3  UNL     1      23.839   4.043  50.624  1.00  0.00    -0.319 OA
HETATM    6  C5  UNL     1      24.243   5.374  50.505  1.00  0.00     0.197 A 
HETATM    7  N1  UNL     1      23.352   6.341  50.823  1.00  0.00    -0.216 NA
HETATM    8  C6  UNL     1      23.723   7.629  50.715  1.00  0.00     0.238 A 
HETATM    9  N2  UNL     1      24.966   8.002  50.295  1.00  0.00    -0.221 NA
HETATM   10  C7  UNL     1      25.854   7.021  49.977  1.00  0.00     0.166 A 
HETATM   11  C8  UNL     1      25.519   5.665  50.072  1.00  0.00     0.129 A 
HETATM   12  N4  UNL     1      26.638   4.873  49.678  1.00  0.00    -0.379 N 
HETATM   13  C9  UNL     1      26.535   3.435  49.650  1.00  0.00     0.157 C 
HETATM   14  C10 UNL     1      25.921   2.837  50.827  1.00  0.00    -0.023 C 
HETATM   15  C11 UNL     1      26.803   2.169  51.571  1.00  0.00     0.057 C 
HETATM   16  H6  UNL     1      27.503   5.414  49.422  1.00  0.00     0.160 HD
ENDROOT
BRANCH   1  17
HETATM   17  C1  UNL     1      26.948  -0.177  53.639  1.00  0.00     0.206 C 
HETATM   18  O1  UNL     1      26.988  -1.192  52.876  1.00  0.00    -0.641 OA
BRANCH  17  19
HETATM   19  O2  UNL     1      27.485  -0.209  54.911  1.00  0.00    -0.768 OA
HETATM   20  H1  UNL     1      28.371   0.276  55.106  1.00  0.00     0.168 HD
ENDBRANCH  17  19
ENDBRANCH   1  17
BRANCH  10  21
HETATM   21  N3  UNL     1      27.154   7.405  49.539  1.00  0.00    -0.305 N 
HETATM   22 BR1  UNL     1      27.174   9.196  50.112  1.00  0.00     0.048 Br
HETATM   23  H5  UNL     1      27.934   6.941  49.049  1.00  0.00     0.175 HD
ENDBRANCH  10  21
TORSDOF 3
ENDMDL
MODEL 4
REMARK VINA RESULT:      -6.6      3.121      4.429
REMARK  3 active torsions:
REMARK  status: ('A' for Active; 'I' for Inactive)
REMARK    1  A    between atoms: C1_2  and  O2_3 
REMARK    2  A    between atoms: C1_2  and  S1_4 
REMARK    3  A    between atoms: C7_13  and  N3_14 
ROOT
HETATM    1  S1  UNL     1      24.635   0.515  53.456  1.00  0.00    -0.064 SA
HETATM    2  C2  UNL     1      23.177   0.217  52.772  1.00  0.00     0.020 C 
HETATM    3  C3  UNL     1      22.752   1.324  52.177  1.00  0.00     0.030 C 
HETATM    4  C4  UNL     1      23.498   1.907  51.028  1.00  0.00     0.186 C 
HETATM    5  O3  UNL     1      22.734   2.795  50.297  1.00  0.00    -0.319 OA
HETATM    6  C5  UNL     1      22.470   4.149  50.509  1.00  0.00     0.197 A 
HETATM    7  N1  UNL     1      21.198   4.583  50.352  1.00  0.00    -0.216 NA
HETATM    8  C6  UNL     1      20.925   5.884  50.552  1.00  0.00     0.238 A 
HETATM    9  N2  UNL     1      21.881   6.789  50.907  1.00  0.00    -0.221 NA
HETATM   10  C7  UNL     1      23.157   6.342  51.062  1.00  0.00     0.166 A 
HETATM   11  C8  UNL     1      23.496   4.998  50.867  1.00  0.00     0.129 A 
HETATM   12  N4  UNL     1      24.893   4.825  51.098  1.00  0.00    -0.379 N 
HETATM   13  C9  UNL     1      25.502   3.530  50.920  1.00  0.00     0.157 C 
HETATM   14  C10 UNL     1      24.779   2.420  51.525  1.00  0.00    -0.023 C 
HETATM   15  C11 UNL     1      25.417   1.919  52.583  1.00  0.00     0.057 C 
HETATM   16  H6  UNL     1      25.410   5.691  51.394  1.00  0.00     0.160 HD
ENDROOT
BRANCH   1  17
HETATM   17  C1  UNL     1      25.679  -0.731  54.229  1.00  0.00     0.206 C 
HETATM   18  O1  UNL     1      25.677  -0.888  55.489  1.00  0.00    -0.641 OA
BRANCH  17  19
HETATM   19  O2  UNL     1      26.476  -1.503  53.407  1.00  0.00    -0.768 OA
HETATM   20  H1  UNL     1      27.088  -1.052  52.714  1.00  0.00     0.168 HD
ENDBRANCH  17  19
ENDBRANCH   1  17
BRANCH  10  21
HETATM   21  N3  UNL     1      24.160   7.283  51.434  1.00  0.00    -0.305 N 
HETATM   22 BR1  UNL     1      24.254   8.300  49.855  1.00  0.00     0.048 Br
HETATM   23  H5  UNL     1      24.731   7.458  52.275  1.00  0.00     0.175 HD
ENDBRANCH  10  21
TORSDOF 3
ENDMDL
MODEL 5
REMARK VINA RESULT:      -6.5      3.346      4.326
REMARK  3 active torsions:
REMARK  status: ('A' for Active; 'I' for Inactive)
REMARK    1  A    between atoms: C1_2  and  O2_3 
REMARK    2  A    between atoms: C1_2  and  S1_4 
REMARK    3  A    between atoms: C7_13  and  N3_14 
ROOT
HETATM    1  S1  UNL     1      24.802  -0.180  53.074  1.00  0.00    -0.064 SA
HETATM    2  C2  UNL     1      24.523   1.061  52.042  1.00  0.00     0.020 C 
HETATM    3  C3  UNL     1      23.219   1.140  51.814  1.00  0.00     0.030 C 
HETATM    4  C4  UNL     1      22.270   1.460  52.916  1.00  0.00     0.186 C 
HETATM    5  O3  UNL     1      21.042   1.884  52.450  1.00  0.00    -0.319 OA
HETATM    6  C5  UNL     1      19.933   1.150  52.026  1.00  0.00     0.197 A 
HETATM    7  N1  UNL     1      19.300   1.547  50.897  1.00  0.00    -0.216 NA
HETATM    8  C6  UNL     1      18.230   0.852  50.473  1.00  0.00     0.238 A 
HETATM    9  N2  UNL     1      17.753  -0.240  51.136  1.00  0.00    -0.221 NA
HETATM   10  C7  UNL     1      18.398  -0.630  52.270  1.00  0.00     0.166 A 
HETATM   11  C8  UNL     1      19.516   0.057  52.755  1.00  0.00     0.129 A 
HETATM   12  N4  UNL     1      19.977  -0.574  53.949  1.00  0.00    -0.379 N 
HETATM   13  C9  UNL     1      21.101  -0.029  54.669  1.00  0.00     0.157 C 
HETATM   14  C10 UNL     1      22.248   0.327  53.846  1.00  0.00    -0.023 C 
HETATM   15  C11 UNL     1      23.280  -0.496  54.038  1.00  0.00     0.057 C 
HETATM   16  H6  UNL     1      19.443  -1.432  54.237  1.00  0.00     0.160 HD
ENDROOT
BRANCH   1  17
HETATM   17  C1  UNL     1      26.401  -0.568  53.805  1.00  0.00     0.206 C 
HETATM   18  O1  UNL     1      27.073  -1.567  53.402  1.00  0.00    -0.641 OA
BRANCH  17  19
HETATM   19  O2  UNL     1      26.866   0.257  54.810  1.00  0.00    -0.768 OA
HETATM   20  H1  UNL     1      26.964  -0.107  55.767  1.00  0.00     0.168 HD
ENDBRANCH  17  19
ENDBRANCH   1  17
BRANCH  10  21
HETATM   21  N3  UNL     1      17.904  -1.771  52.966  1.00  0.00    -0.305 N 
HETATM   22 BR1  UNL     1      16.100  -1.717  52.441  1.00  0.00     0.048 Br
HETATM   23  H5  UNL     1      18.309  -2.484  53.592  1.00  0.00     0.175 HD
ENDBRANCH  10  21
TORSDOF 3
ENDMDL
MODEL 6
REMARK VINA RESULT:      -6.4      4.130      6.950
REMARK  3 active torsions:
REMARK  status: ('A' for Active; 'I' for Inactive)
REMARK    1  A    between atoms: C1_2  and  O2_3 
REMARK    2  A    between atoms: C1_2  and  S1_4 
REMARK    3  A    between atoms: C7_13  and  N3_14 
ROOT
HETATM    1  S1  UNL     1      22.531   3.120  48.461  1.00  0.00    -0.064 SA
HETATM    2  C2  UNL     1      21.778   1.754  48.961  1.00  0.00     0.020 C 
HETATM    3  C3  UNL     1      22.333   1.354  50.097  1.00  0.00     0.030 C 
HETATM    4  C4  UNL     1      22.255   2.195  51.323  1.00  0.00     0.186 C 
HETATM    5  O3  UNL     1      22.524   1.480  52.473  1.00  0.00    -0.319 OA
HETATM    6  C5  UNL     1      23.742   1.145  53.066  1.00  0.00     0.197 A 
HETATM    7  N1  UNL     1      23.902  -0.118  53.523  1.00  0.00    -0.216 NA
HETATM    8  C6  UNL     1      25.069  -0.459  54.097  1.00  0.00     0.238 A 
HETATM    9  N2  UNL     1      26.102   0.419  54.240  1.00  0.00    -0.221 NA
HETATM   10  C7  UNL     1      25.929   1.688  53.777  1.00  0.00     0.166 A 
HETATM   11  C8  UNL     1      24.736   2.095  53.171  1.00  0.00     0.129 A 
HETATM   12  N4  UNL     1      24.843   3.465  52.789  1.00  0.00    -0.379 N 
HETATM   13  C9  UNL     1      23.724   4.137  52.176  1.00  0.00     0.157 C 
HETATM   14  C10 UNL     1      23.068   3.396  51.108  1.00  0.00    -0.023 C 
HETATM   15  C11 UNL     1      23.290   3.937  49.910  1.00  0.00     0.057 C 
HETATM   16  H6  UNL     1      25.772   3.915  52.988  1.00  0.00     0.160 HD
ENDROOT
BRANCH   1  17
HETATM   17  C1  UNL     1      22.013   4.121  47.057  1.00  0.00     0.206 C 
HETATM   18  O1  UNL     1      21.580   3.576  45.995  1.00  0.00    -0.641 OA
BRANCH  17  19
HETATM   19  O2  UNL     1      22.104   5.494  47.179  1.00  0.00    -0.768 OA
HETATM   20  H1  UNL     1      22.243   6.075  46.342  1.00  0.00     0.168 HD
ENDBRANCH  17  19
ENDBRANCH   1  17
BRANCH  10  21
HETATM   21  N3  UNL     1      27.006   2.609  53.923  1.00  0.00    -0.305 N 
HETATM   22 BR1  UNL     1      28.455   1.484  53.512  1.00  0.00     0.048 Br
HETATM   23  H5  UNL     1      27.094   3.606  54.172  1.00  0.00     0.175 HD
ENDBRANCH  10  21
TORSDOF 3
ENDMDL
MODEL 7
REMARK VINA RESULT:      -6.4      9.883     11.861
REMARK  3 active torsions:
REMARK  status: ('A' for Active; 'I' for Inactive)
REMARK    1  A    between atoms: C1_2  and  O2_3 
REMARK    2  A    between atoms: C1_2  and  S1_4 
REMARK    3  A    between atoms: C7_13  and  N3_14 
ROOT
HETATM    1  S1  UNL     1      28.476   8.434  48.888  1.00  0.00    -0.064 SA
HETATM    2  C2  UNL     1      28.138   6.883  48.484  1.00  0.00     0.020 C 
HETATM    3  C3  UNL     1      29.194   6.362  47.873  1.00  0.00     0.030 C 
HETATM    4  C4  UNL     1      30.488   6.199  48.592  1.00  0.00     0.186 C 
HETATM    5  O3  UNL     1      31.334   5.308  47.962  1.00  0.00    -0.319 OA
HETATM    6  C5  UNL     1      32.219   5.498  46.900  1.00  0.00     0.197 A 
HETATM    7  N1  UNL     1      32.247   4.565  45.920  1.00  0.00    -0.216 NA
HETATM    8  C6  UNL     1      33.093   4.730  44.889  1.00  0.00     0.238 A 
HETATM    9  N2  UNL     1      33.928   5.804  44.788  1.00  0.00    -0.221 NA
HETATM   10  C7  UNL     1      33.891   6.736  45.780  1.00  0.00     0.166 A 
HETATM   11  C8  UNL     1      33.030   6.612  46.875  1.00  0.00     0.129 A 
HETATM   12  N4  UNL     1      33.209   7.728  47.746  1.00  0.00    -0.379 N 
HETATM   13  C9  UNL     1      32.461   7.816  48.976  1.00  0.00     0.157 C 
HETATM   14  C10 UNL     1      31.038   7.533  48.854  1.00  0.00    -0.023 C 
HETATM   15  C11 UNL     1      30.291   8.626  49.012  1.00  0.00     0.057 C 
HETATM   16  H6  UNL     1      33.906   8.444  47.420  1.00  0.00     0.160 HD
ENDROOT
BRANCH   1  17
HETATM   17  C1  UNL     1      27.411   9.491  49.882  1.00  0.00     0.206 C 
HETATM   18  O1  UNL     1      26.521  10.214  49.335  1.00  0.00    -0.641 OA
BRANCH  17  19
HETATM   19  O2  UNL     1      27.594   9.486  51.250  1.00  0.00    -0.768 OA
HETATM   20  H1  UNL     1      28.171   8.755  51.688  1.00  0.00     0.168 HD
ENDBRANCH  17  19
ENDBRANCH   1  17
BRANCH  10  21
HETATM   21  N3  UNL     1      34.761   7.859  45.680  1.00  0.00    -0.305 N 
HETATM   22 BR1  UNL     1      34.459   8.346  43.889  1.00  0.00     0.048 Br
HETATM   23  H5  UNL     1      35.407   8.351  46.317  1.00  0.00     0.175 HD
ENDBRANCH  10  21
TORSDOF 3
ENDMDL
MODEL 8
REMARK VINA RESULT:      -6.3     10.637     12.557
REMARK  3 active torsions:
REMARK  status: ('A' for Active; 'I' for Inactive)
REMARK    1  A    between atoms: C1_2  and  O2_3 
REMARK    2  A    between atoms: C1_2  and  S1_4 
REMARK    3  A    between atoms: C7_13  and  N3_14 
ROOT
HETATM    1  S1  UNL     1      30.997   9.884  48.225  1.00  0.00    -0.064 SA
HETATM    2  C2  UNL     1      30.364   8.731  49.201  1.00  0.00     0.020 C 
HETATM    3  C3  UNL     1      30.936   7.570  48.914  1.00  0.00     0.030 C 
HETATM    4  C4  UNL     1      32.396   7.364  49.129  1.00  0.00     0.186 C 
HETATM    5  O3  UNL     1      32.742   6.028  49.159  1.00  0.00    -0.319 OA
HETATM    6  C5  UNL     1      33.011   5.140  48.116  1.00  0.00     0.197 A 
HETATM    7  N1  UNL     1      32.473   3.900  48.181  1.00  0.00    -0.216 NA
HETATM    8  C6  UNL     1      32.721   3.031  47.186  1.00  0.00     0.238 A 
HETATM    9  N2  UNL     1      33.495   3.348  46.109  1.00  0.00    -0.221 NA
HETATM   10  C7  UNL     1      34.031   4.598  46.054  1.00  0.00     0.166 A 
HETATM   11  C8  UNL     1      33.805   5.541  47.063  1.00  0.00     0.129 A 
HETATM   12  N4  UNL     1      34.486   6.752  46.739  1.00  0.00    -0.379 N 
HETATM   13  C9  UNL     1      34.444   7.873  47.645  1.00  0.00     0.157 C 
HETATM   14  C10 UNL     1      33.123   8.196  48.165  1.00  0.00    -0.023 C 
HETATM   15  C11 UNL     1      32.651   9.339  47.666  1.00  0.00     0.057 C 
HETATM   16  H6  UNL     1      34.998   6.747  45.820  1.00  0.00     0.160 HD
ENDROOT
BRANCH   1  17
HETATM   17  C1  UNL     1      30.651  11.646  48.360  1.00  0.00     0.206 C 
HETATM   18  O1  UNL     1      30.596  12.378  47.324  1.00  0.00    -0.641 OA
BRANCH  17  19
HETATM   19  O2  UNL     1      30.450  12.167  49.623  1.00  0.00    -0.768 OA
HETATM   20  H1  UNL     1      29.530  12.079  50.074  1.00  0.00     0.168 HD
ENDBRANCH  17  19
ENDBRANCH   1  17
BRANCH  10  21
HETATM   21  N3  UNL     1      34.840   4.934  44.931  1.00  0.00    -0.305 N 
HETATM   22 BR1  UNL     1      33.543   4.892  43.571  1.00  0.00     0.048 Br
HETATM   23  H5  UNL     1      35.837   5.155  44.780  1.00  0.00     0.175 HD
ENDBRANCH  10  21
TORSDOF 3
ENDMDL
MODEL 9
REMARK VINA RESULT:      -6.2      4.331      5.504
REMARK  3 active torsions:
REMARK  status: ('A' for Active; 'I' for Inactive)
REMARK    1  A    between atoms: C1_2  and  O2_3 
REMARK    2  A    between atoms: C1_2  and  S1_4 
REMARK    3  A    between atoms: C7_13  and  N3_14 
ROOT
HETATM    1  S1  UNL     1      25.264   4.673  49.537  1.00  0.00    -0.064 SA
HETATM    2  C2  UNL     1      23.812   5.432  49.517  1.00  0.00     0.020 C 
HETATM    3  C3  UNL     1      22.932   4.684  50.168  1.00  0.00     0.030 C 
HETATM    4  C4  UNL     1      23.095   4.406  51.622  1.00  0.00     0.186 C 
HETATM    5  O3  UNL     1      21.925   3.964  52.210  1.00  0.00    -0.319 OA
HETATM    6  C5  UNL     1      21.369   2.685  52.268  1.00  0.00     0.197 A 
HETATM    7  N1  UNL     1      20.043   2.557  52.037  1.00  0.00    -0.216 NA
HETATM    8  C6  UNL     1      19.489   1.333  52.089  1.00  0.00     0.238 A 
HETATM    9  N2  UNL     1      20.212   0.210  52.367  1.00  0.00    -0.221 NA
HETATM   10  C7  UNL     1      21.546   0.352  52.598  1.00  0.00     0.166 A 
HETATM   11  C8  UNL     1      22.173   1.602  52.556  1.00  0.00     0.129 A 
HETATM   12  N4  UNL     1      23.563   1.444  52.835  1.00  0.00    -0.379 N 
HETATM   13  C9  UNL     1      24.427   2.597  52.892  1.00  0.00     0.157 C 
HETATM   14  C10 UNL     1      24.267   3.543  51.796  1.00  0.00    -0.023 C 
HETATM   15  C11 UNL     1      25.313   3.536  50.969  1.00  0.00     0.057 C 
HETATM   16  H6  UNL     1      23.879   0.454  52.989  1.00  0.00     0.160 HD
ENDROOT
BRANCH   1  17
HETATM   17  C1  UNL     1      26.801   5.383  48.925  1.00  0.00     0.206 C 
HETATM   18  O1  UNL     1      26.788   6.391  48.152  1.00  0.00    -0.641 OA
BRANCH  17  19
HETATM   19  O2  UNL     1      27.985   4.796  49.326  1.00  0.00    -0.768 OA
HETATM   20  H1  UNL     1      28.461   5.128  50.174  1.00  0.00     0.168 HD
ENDBRANCH  17  19
ENDBRANCH   1  17
BRANCH  10  21
HETATM   21  N3  UNL     1      22.306  -0.818  52.888  1.00  0.00    -0.305 N 
HETATM   22 BR1  UNL     1      21.613  -1.245  54.582  1.00  0.00     0.048 Br
HETATM   23  H5  UNL     1      23.038  -1.360  52.403  1.00  0.00     0.175 HD
ENDBRANCH  10  21
TORSDOF 3
ENDMDL
