MODEL 1
REMARK VINA RESULT:      -7.7      0.000      0.000
REMARK  9 active torsions:
REMARK  status: ('A' for Active; 'I' for Inactive)
REMARK    1  A    between atoms: N3_7  and  C5_8 
REMARK    2  A    between atoms: C6_9  and  C7_10 
REMARK    3  A    between atoms: C8_11  and  C9_12 
REMARK    4  A    between atoms: C12_16  and  O1_17 
REMARK    5  A    between atoms: O1_17  and  C13_18 
REMARK    6  A    between atoms: C13_18  and  C14_19 
REMARK    7  A    between atoms: C14_19  and  N5_20 
REMARK    8  A    between atoms: C14_19  and  C15_21 
REMARK    9  A    between atoms: C15_21  and  C16_22 
ROOT
HETATM    1  C9  UNL     1      24.723   3.767  50.464  1.00  0.00    -0.016 A 
HETATM    2  C10 UNL     1      24.399   4.923  51.143  1.00  0.00     0.127 A 
HETATM    3  N4  UNL     1      23.501   5.820  50.702  1.00  0.00    -0.269 NA
HETATM    4  C11 UNL     1      22.892   5.563  49.536  1.00  0.00     0.152 A 
HETATM    5  C12 UNL     1      23.085   4.475  48.732  1.00  0.00     0.087 A 
HETATM    6  C22 UNL     1      24.031   3.599  49.260  1.00  0.00     0.051 A 
ENDROOT
BRANCH   5   7
HETATM    7  O1  UNL     1      22.615   4.013  47.577  1.00  0.00    -0.348 OA
BRANCH   7   8
HETATM    8  C13 UNL     1      21.882   2.946  47.222  1.00  0.00     0.200 C 
BRANCH   8   9
HETATM    9  C14 UNL     1      20.896   2.470  48.219  1.00  0.00     0.102 C 
BRANCH   9  10
HETATM   10  N5  UNL     1      19.550   2.301  47.851  1.00  0.00    -0.424 N 
HETATM   11  H16 UNL     1      19.334   2.005  46.895  1.00  0.00     0.150 HD
HETATM   12  H17 UNL     1      18.889   2.059  48.593  1.00  0.00     0.150 HD
ENDBRANCH   9  10
BRANCH   9  13
HETATM   13  C15 UNL     1      21.342   1.133  48.854  1.00  0.00     0.065 C 
BRANCH  13  14
HETATM   14  C16 UNL     1      21.155   1.302  50.320  1.00  0.00    -0.056 A 
HETATM   15  C17 UNL     1      21.044   0.108  51.041  1.00  0.00     0.007 A 
HETATM   16  C18 UNL     1      20.866   0.095  52.414  1.00  0.00     0.001 A 
HETATM   17  C19 UNL     1      20.792   1.286  53.123  1.00  0.00     0.000 A 
HETATM   18  C20 UNL     1      20.905   2.447  52.387  1.00  0.00     0.001 A 
HETATM   19  C21 UNL     1      21.083   2.477  51.015  1.00  0.00     0.007 A 
ENDBRANCH  13  14
ENDBRANCH   9  13
ENDBRANCH   8   9
ENDBRANCH   7   8
ENDBRANCH   5   7
BRANCH   1  20
HETATM   20  C8  UNL     1      25.700   2.812  50.959  1.00  0.00     0.013 C 
HETATM   21  C7  UNL     1      25.577   1.748  51.704  1.00  0.00     0.002 C 
BRANCH  21  22
HETATM   22  C6  UNL     1      24.465   1.072  52.344  1.00  0.00     0.019 C 
HETATM   23  C5  UNL     1      24.672   0.319  53.406  1.00  0.00     0.118 C 
BRANCH  23  24
HETATM   24  N3  UNL     1      26.065   0.327  53.733  1.00  0.00    -0.251 N 
HETATM   25  C2  UNL     1      27.150  -0.551  53.364  1.00  0.00     0.074 A 
HETATM   26  C1  UNL     1      26.962  -1.599  52.578  1.00  0.00     0.047 C 
HETATM   27  C3  UNL     1      28.404  -0.083  53.986  1.00  0.00     0.080 A 
HETATM   28  C4  UNL     1      29.719  -0.755  53.817  1.00  0.00     0.075 C 
HETATM   29  N1  UNL     1      28.114   0.979  54.671  1.00  0.00    -0.161 NA
HETATM   30  N2  UNL     1      26.731   1.272  54.556  1.00  0.00    -0.213 N 
HETATM   31  H6  UNL     1      26.298   2.107  55.046  1.00  0.00     0.211 HD
ENDBRANCH  23  24
ENDBRANCH  21  22
ENDBRANCH   1  20
TORSDOF 9
ENDMDL
MODEL 2
REMARK VINA RESULT:      -7.6      1.461      1.883
REMARK  9 active torsions:
REMARK  status: ('A' for Active; 'I' for Inactive)
REMARK    1  A    between atoms: N3_7  and  C5_8 
REMARK    2  A    between atoms: C6_9  and  C7_10 
REMARK    3  A    between atoms: C8_11  and  C9_12 
REMARK    4  A    between atoms: C12_16  and  O1_17 
REMARK    5  A    between atoms: O1_17  and  C13_18 
REMARK    6  A    between atoms: C13_18  and  C14_19 
REMARK    7  A    between atoms: C14_19  and  N5_20 
REMARK    8  A    between atoms: C14_19  and  C15_21 
REMARK    9  A    between atoms: C15_21  and  C16_22 
ROOT
HETATM    1  C9  UNL     1      25.583   3.379  49.972  1.00  0.00    -0.016 A 
HETATM    2  C10 UNL     1      26.053   4.617  49.588  1.00  0.00     0.127 A 
HETATM    3  N4  UNL     1      25.290   5.557  49.004  1.00  0.00    -0.269 NA
HETATM    4  C11 UNL     1      24.000   5.261  48.790  1.00  0.00     0.152 A 
HETATM    5  C12 UNL     1      23.364   4.093  49.104  1.00  0.00     0.087 A 
HETATM    6  C22 UNL     1      24.225   3.175  49.702  1.00  0.00     0.051 A 
ENDROOT
BRANCH   5   7
HETATM    7  O1  UNL     1      22.139   3.584  48.999  1.00  0.00    -0.348 OA
BRANCH   7   8
HETATM    8  C13 UNL     1      21.132   3.380  49.863  1.00  0.00     0.200 C 
BRANCH   8   9
HETATM    9  C14 UNL     1      20.435   2.077  49.757  1.00  0.00     0.102 C 
BRANCH   9  10
HETATM   10  N5  UNL     1      19.622   1.803  48.644  1.00  0.00    -0.424 N 
HETATM   11  H16 UNL     1      19.299   2.584  48.065  1.00  0.00     0.150 HD
HETATM   12  H17 UNL     1      19.726   0.886  48.203  1.00  0.00     0.150 HD
ENDBRANCH   9  10
BRANCH   9  13
HETATM   13  C15 UNL     1      21.430   0.899  49.867  1.00  0.00     0.065 C 
BRANCH  13  14
HETATM   14  C16 UNL     1      21.561   0.617  51.322  1.00  0.00    -0.056 A 
HETATM   15  C17 UNL     1      20.366   0.274  51.965  1.00  0.00     0.007 A 
HETATM   16  C18 UNL     1      20.320  -0.017  53.318  1.00  0.00     0.001 A 
HETATM   17  C19 UNL     1      21.476   0.026  54.085  1.00  0.00     0.000 A 
HETATM   18  C20 UNL     1      22.639   0.368  53.425  1.00  0.00     0.001 A 
HETATM   19  C21 UNL     1      22.702   0.661  52.073  1.00  0.00     0.007 A 
ENDBRANCH  13  14
ENDBRANCH   9  13
ENDBRANCH   8   9
ENDBRANCH   7   8
ENDBRANCH   5   7
BRANCH   1  20
HETATM   20  C8  UNL     1      26.426   2.377  50.600  1.00  0.00     0.013 C 
HETATM   21  C7  UNL     1      26.534   1.983  51.839  1.00  0.00     0.002 C 
BRANCH  21  22
HETATM   22  C6  UNL     1      25.892   2.349  53.087  1.00  0.00     0.019 C 
HETATM   23  C5  UNL     1      25.974   1.548  54.131  1.00  0.00     0.118 C 
BRANCH  23  24
HETATM   24  N3  UNL     1      26.742   0.390  53.787  1.00  0.00    -0.251 N 
HETATM   25  C2  UNL     1      28.149   0.093  53.907  1.00  0.00     0.074 A 
HETATM   26  C1  UNL     1      29.005   0.965  54.415  1.00  0.00     0.047 C 
HETATM   27  C3  UNL     1      28.417  -1.265  53.393  1.00  0.00     0.080 A 
HETATM   28  C4  UNL     1      29.763  -1.893  53.365  1.00  0.00     0.075 C 
HETATM   29  N1  UNL     1      27.283  -1.751  52.996  1.00  0.00    -0.161 NA
HETATM   30  N2  UNL     1      26.246  -0.807  53.207  1.00  0.00    -0.213 N 
HETATM   31  H6  UNL     1      25.240  -1.019  52.946  1.00  0.00     0.211 HD
ENDBRANCH  23  24
ENDBRANCH  21  22
ENDBRANCH   1  20
TORSDOF 9
ENDMDL
MODEL 3
REMARK VINA RESULT:      -7.4      2.218      3.319
REMARK  9 active torsions:
REMARK  status: ('A' for Active; 'I' for Inactive)
REMARK    1  A    between atoms: N3_7  and  C5_8 
REMARK    2  A    between atoms: C6_9  and  C7_10 
REMARK    3  A    between atoms: C8_11  and  C9_12 
REMARK    4  A    between atoms: C12_16  and  O1_17 
REMARK    5  A    between atoms: O1_17  and  C13_18 
REMARK    6  A    between atoms: C13_18  and  C14_19 
REMARK    7  A    between atoms: C14_19  and  N5_20 
REMARK    8  A    between atoms: C14_19  and  C15_21 
REMARK    9  A    between atoms: C15_21  and  C16_22 
ROOT
HETATM    1  C9  UNL     1      26.482   3.875  49.633  1.00  0.00    -0.016 A 
HETATM    2  C10 UNL     1      27.523   4.403  48.900  1.00  0.00     0.127 A 
HETATM    3  N4  UNL     1      27.524   5.648  48.394  1.00  0.00    -0.269 NA
HETATM    4  C11 UNL     1      26.445   6.410  48.624  1.00  0.00     0.152 A 
HETATM    5  C12 UNL     1      25.328   6.057  49.327  1.00  0.00     0.087 A 
HETATM    6  C22 UNL     1      25.408   4.754  49.814  1.00  0.00     0.051 A 
ENDROOT
BRANCH   5   7
HETATM    7  O1  UNL     1      24.175   6.617  49.682  1.00  0.00    -0.348 OA
BRANCH   7   8
HETATM    8  C13 UNL     1      23.546   6.809  50.852  1.00  0.00     0.200 C 
BRANCH   8   9
HETATM    9  C14 UNL     1      23.374   5.610  51.706  1.00  0.00     0.102 C 
BRANCH   9  10
HETATM   10  N5  UNL     1      23.792   5.638  53.047  1.00  0.00    -0.424 N 
HETATM   11  H16 UNL     1      23.221   6.143  53.731  1.00  0.00     0.150 HD
HETATM   12  H17 UNL     1      24.360   4.853  53.376  1.00  0.00     0.150 HD
ENDBRANCH   9  10
BRANCH   9  13
HETATM   13  C15 UNL     1      21.902   5.139  51.720  1.00  0.00     0.065 C 
BRANCH  13  14
HETATM   14  C16 UNL     1      21.946   3.676  51.452  1.00  0.00    -0.056 A 
HETATM   15  C17 UNL     1      22.307   3.328  50.146  1.00  0.00     0.007 A 
HETATM   16  C18 UNL     1      22.392   2.007  49.738  1.00  0.00     0.001 A 
HETATM   17  C19 UNL     1      22.118   0.978  50.628  1.00  0.00     0.000 A 
HETATM   18  C20 UNL     1      21.764   1.352  51.908  1.00  0.00     0.001 A 
HETATM   19  C21 UNL     1      21.674   2.666  52.332  1.00  0.00     0.007 A 
ENDBRANCH  13  14
ENDBRANCH   9  13
ENDBRANCH   8   9
ENDBRANCH   7   8
ENDBRANCH   5   7
BRANCH   1  20
HETATM   20  C8  UNL     1      26.501   2.525  50.169  1.00  0.00     0.013 C 
HETATM   21  C7  UNL     1      26.036   2.023  51.280  1.00  0.00     0.002 C 
BRANCH  21  22
HETATM   22  C6  UNL     1      25.324   2.558  52.424  1.00  0.00     0.019 C 
HETATM   23  C5  UNL     1      25.573   2.095  53.633  1.00  0.00     0.118 C 
BRANCH  23  24
HETATM   24  N3  UNL     1      26.576   1.077  53.558  1.00  0.00    -0.251 N 
HETATM   25  C2  UNL     1      28.018   1.135  53.599  1.00  0.00     0.074 A 
HETATM   26  C1  UNL     1      28.665   2.281  53.730  1.00  0.00     0.047 C 
HETATM   27  C3  UNL     1      28.575  -0.227  53.477  1.00  0.00     0.080 A 
HETATM   28  C4  UNL     1      30.029  -0.535  53.482  1.00  0.00     0.075 C 
HETATM   29  N1  UNL     1      27.570  -1.039  53.371  1.00  0.00    -0.161 NA
HETATM   30  N2  UNL     1      26.351  -0.317  53.413  1.00  0.00    -0.213 N 
HETATM   31  H6  UNL     1      25.412  -0.807  53.341  1.00  0.00     0.211 HD
ENDBRANCH  23  24
ENDBRANCH  21  22
ENDBRANCH   1  20
TORSDOF 9
ENDMDL
MODEL 4
REMARK VINA RESULT:      -7.4      5.168      7.855
REMARK  9 active torsions:
REMARK  status: ('A' for Active; 'I' for Inactive)
REMARK    1  A    between atoms: N3_7  and  C5_8 
REMARK    2  A    between atoms: C6_9  and  C7_10 
REMARK    3  A    between atoms: C8_11  and  C9_12 
REMARK    4  A    between atoms: C12_16  and  O1_17 
REMARK    5  A    between atoms: O1_17  and  C13_18 
REMARK    6  A    between atoms: C13_18  and  C14_19 
REMARK    7  A    between atoms: C14_19  and  N5_20 
REMARK    8  A    between atoms: C14_19  and  C15_21 
REMARK    9  A    between atoms: C15_21  and  C16_22 
ROOT
HETATM    1  C9  UNL     1      26.352   3.851  49.658  1.00  0.00    -0.016 A 
HETATM    2  C10 UNL     1      25.252   4.682  49.686  1.00  0.00     0.127 A 
HETATM    3  N4  UNL     1      25.238   5.918  49.158  1.00  0.00    -0.269 NA
HETATM    4  C11 UNL     1      26.363   6.354  48.574  1.00  0.00     0.152 A 
HETATM    5  C12 UNL     1      27.541   5.672  48.453  1.00  0.00     0.087 A 
HETATM    6  C22 UNL     1      27.471   4.405  49.026  1.00  0.00     0.051 A 
ENDROOT
BRANCH   5   7
HETATM    7  O1  UNL     1      28.747   5.883  47.932  1.00  0.00    -0.348 OA
BRANCH   7   8
HETATM    8  C13 UNL     1      29.500   6.973  47.721  1.00  0.00     0.200 C 
BRANCH   8   9
HETATM    9  C14 UNL     1      30.760   7.057  48.495  1.00  0.00     0.102 C 
BRANCH   9  10
HETATM   10  N5  UNL     1      30.868   7.961  49.566  1.00  0.00    -0.424 N 
HETATM   11  H16 UNL     1      31.362   7.665  50.413  1.00  0.00     0.150 HD
HETATM   12  H17 UNL     1      30.850   8.958  49.339  1.00  0.00     0.150 HD
ENDBRANCH   9  10
BRANCH   9  13
HETATM   13  C15 UNL     1      31.169   5.675  49.052  1.00  0.00     0.065 C 
BRANCH  13  14
HETATM   14  C16 UNL     1      32.089   5.090  48.041  1.00  0.00    -0.056 A 
HETATM   15  C17 UNL     1      33.396   5.589  48.076  1.00  0.00     0.007 A 
HETATM   16  C18 UNL     1      34.373   5.147  47.199  1.00  0.00     0.001 A 
HETATM   17  C19 UNL     1      34.076   4.181  46.247  1.00  0.00     0.000 A 
HETATM   18  C20 UNL     1      32.780   3.708  46.236  1.00  0.00     0.001 A 
HETATM   19  C21 UNL     1      31.793   4.138  47.105  1.00  0.00     0.007 A 
ENDBRANCH  13  14
ENDBRANCH   9  13
ENDBRANCH   8   9
ENDBRANCH   7   8
ENDBRANCH   5   7
BRANCH   1  20
HETATM   20  C8  UNL     1      26.346   2.518  50.237  1.00  0.00     0.013 C 
HETATM   21  C7  UNL     1      25.914   2.068  51.383  1.00  0.00     0.002 C 
BRANCH  21  22
HETATM   22  C6  UNL     1      25.275   2.666  52.539  1.00  0.00     0.019 C 
HETATM   23  C5  UNL     1      25.575   2.244  53.751  1.00  0.00     0.118 C 
BRANCH  23  24
HETATM   24  N3  UNL     1      26.549   1.198  53.666  1.00  0.00    -0.251 N 
HETATM   25  C2  UNL     1      27.992   1.219  53.645  1.00  0.00     0.074 A 
HETATM   26  C1  UNL     1      28.673   2.351  53.712  1.00  0.00     0.047 C 
HETATM   27  C3  UNL     1      28.509  -0.160  53.542  1.00  0.00     0.080 A 
HETATM   28  C4  UNL     1      29.953  -0.506  53.495  1.00  0.00     0.075 C 
HETATM   29  N1  UNL     1      27.480  -0.949  53.504  1.00  0.00    -0.161 NA
HETATM   30  N2  UNL     1      26.283  -0.193  53.575  1.00  0.00    -0.213 N 
HETATM   31  H6  UNL     1      25.330  -0.660  53.558  1.00  0.00     0.211 HD
ENDBRANCH  23  24
ENDBRANCH  21  22
ENDBRANCH   1  20
TORSDOF 9
ENDMDL
MODEL 5
REMARK VINA RESULT:      -7.3      5.428      8.112
REMARK  9 active torsions:
REMARK  status: ('A' for Active; 'I' for Inactive)
REMARK    1  A    between atoms: N3_7  and  C5_8 
REMARK    2  A    between atoms: C6_9  and  C7_10 
REMARK    3  A    between atoms: C8_11  and  C9_12 
REMARK    4  A    between atoms: C12_16  and  O1_17 
REMARK    5  A    between atoms: O1_17  and  C13_18 
REMARK    6  A    between atoms: C13_18  and  C14_19 
REMARK    7  A    between atoms: C14_19  and  N5_20 
REMARK    8  A    between atoms: C14_19  and  C15_21 
REMARK    9  A    between atoms: C15_21  and  C16_22 
ROOT
HETATM    1  C9  UNL     1      27.540   6.390  48.447  1.00  0.00    -0.016 A 
HETATM    2  C10 UNL     1      26.803   7.413  49.006  1.00  0.00     0.127 A 
HETATM    3  N4  UNL     1      25.753   7.216  49.822  1.00  0.00    -0.269 NA
HETATM    4  C11 UNL     1      25.415   5.949  50.100  1.00  0.00     0.152 A 
HETATM    5  C12 UNL     1      26.028   4.817  49.639  1.00  0.00     0.087 A 
HETATM    6  C22 UNL     1      27.101   5.110  48.802  1.00  0.00     0.051 A 
ENDROOT
BRANCH   5   7
HETATM    7  O1  UNL     1      25.884   3.502  49.772  1.00  0.00    -0.348 OA
BRANCH   7   8
HETATM    8  C13 UNL     1      26.565   2.545  50.423  1.00  0.00     0.200 C 
BRANCH   8   9
HETATM    9  C14 UNL     1      26.237   2.371  51.857  1.00  0.00     0.102 C 
BRANCH   9  10
HETATM   10  N5  UNL     1      25.148   3.061  52.418  1.00  0.00    -0.424 N 
HETATM   11  H16 UNL     1      25.331   3.781  53.123  1.00  0.00     0.150 HD
HETATM   12  H17 UNL     1      24.305   3.148  51.845  1.00  0.00     0.150 HD
ENDBRANCH   9  10
BRANCH   9  13
HETATM   13  C15 UNL     1      26.032   0.880  52.208  1.00  0.00     0.065 C 
BRANCH  13  14
HETATM   14  C16 UNL     1      27.325   0.419  52.779  1.00  0.00    -0.056 A 
HETATM   15  C17 UNL     1      27.523  -0.966  52.745  1.00  0.00     0.007 A 
HETATM   16  C18 UNL     1      28.676  -1.554  53.239  1.00  0.00     0.001 A 
HETATM   17  C19 UNL     1      29.682  -0.771  53.789  1.00  0.00     0.000 A 
HETATM   18  C20 UNL     1      29.460   0.590  53.809  1.00  0.00     0.001 A 
HETATM   19  C21 UNL     1      28.314   1.193  53.320  1.00  0.00     0.007 A 
ENDBRANCH  13  14
ENDBRANCH   9  13
ENDBRANCH   8   9
ENDBRANCH   7   8
ENDBRANCH   5   7
BRANCH   1  20
HETATM   20  C8  UNL     1      28.671   6.626  47.566  1.00  0.00     0.013 C 
HETATM   21  C7  UNL     1      29.943   6.371  47.696  1.00  0.00     0.002 C 
BRANCH  21  22
HETATM   22  C6  UNL     1      30.764   5.766  48.727  1.00  0.00     0.019 C 
HETATM   23  C5  UNL     1      31.500   6.524  49.515  1.00  0.00     0.118 C 
BRANCH  23  24
HETATM   24  N3  UNL     1      31.322   7.899  49.159  1.00  0.00    -0.251 N 
HETATM   25  C2  UNL     1      32.036   8.763  48.249  1.00  0.00     0.074 A 
HETATM   26  C1  UNL     1      33.070   8.331  47.546  1.00  0.00     0.047 C 
HETATM   27  C3  UNL     1      31.430  10.109  48.261  1.00  0.00     0.080 A 
HETATM   28  C4  UNL     1      31.917  11.248  47.440  1.00  0.00     0.075 C 
HETATM   29  N1  UNL     1      30.441  10.072  49.098  1.00  0.00    -0.161 NA
HETATM   30  N2  UNL     1      30.328   8.777  49.664  1.00  0.00    -0.213 N 
HETATM   31  H6  UNL     1      29.575   8.545  50.375  1.00  0.00     0.211 HD
ENDBRANCH  23  24
ENDBRANCH  21  22
ENDBRANCH   1  20
TORSDOF 9
ENDMDL
MODEL 6
REMARK VINA RESULT:      -7.2      5.867      7.814
REMARK  9 active torsions:
REMARK  status: ('A' for Active; 'I' for Inactive)
REMARK    1  A    between atoms: N3_7  and  C5_8 
REMARK    2  A    between atoms: C6_9  and  C7_10 
REMARK    3  A    between atoms: C8_11  and  C9_12 
REMARK    4  A    between atoms: C12_16  and  O1_17 
REMARK    5  A    between atoms: O1_17  and  C13_18 
REMARK    6  A    between atoms: C13_18  and  C14_19 
REMARK    7  A    between atoms: C14_19  and  N5_20 
REMARK    8  A    between atoms: C14_19  and  C15_21 
REMARK    9  A    between atoms: C15_21  and  C16_22 
ROOT
HETATM    1  C9  UNL     1      28.023   6.474  48.280  1.00  0.00    -0.016 A 
HETATM    2  C10 UNL     1      27.400   7.588  48.803  1.00  0.00     0.127 A 
HETATM    3  N4  UNL     1      26.285   7.536  49.552  1.00  0.00    -0.269 NA
HETATM    4  C11 UNL     1      25.761   6.326  49.798  1.00  0.00     0.152 A 
HETATM    5  C12 UNL     1      26.241   5.122  49.366  1.00  0.00     0.087 A 
HETATM    6  C22 UNL     1      27.393   5.266  48.597  1.00  0.00     0.051 A 
ENDROOT
BRANCH   5   7
HETATM    7  O1  UNL     1      25.912   3.838  49.479  1.00  0.00    -0.348 OA
BRANCH   7   8
HETATM    8  C13 UNL     1      26.453   2.783  50.107  1.00  0.00     0.200 C 
BRANCH   8   9
HETATM    9  C14 UNL     1      26.115   2.632  51.542  1.00  0.00     0.102 C 
BRANCH   9  10
HETATM   10  N5  UNL     1      25.041   3.356  52.089  1.00  0.00    -0.424 N 
HETATM   11  H16 UNL     1      25.227   4.006  52.859  1.00  0.00     0.150 HD
HETATM   12  H17 UNL     1      24.245   3.547  51.476  1.00  0.00     0.150 HD
ENDBRANCH   9  10
BRANCH   9  13
HETATM   13  C15 UNL     1      25.869   1.151  51.907  1.00  0.00     0.065 C 
BRANCH  13  14
HETATM   14  C16 UNL     1      27.112   0.692  52.582  1.00  0.00    -0.056 A 
HETATM   15  C17 UNL     1      27.292  -0.696  52.604  1.00  0.00     0.007 A 
HETATM   16  C18 UNL     1      28.399  -1.282  53.195  1.00  0.00     0.001 A 
HETATM   17  C19 UNL     1      29.375  -0.496  53.792  1.00  0.00     0.000 A 
HETATM   18  C20 UNL     1      29.171   0.869  53.756  1.00  0.00     0.001 A 
HETATM   19  C21 UNL     1      28.071   1.470  53.168  1.00  0.00     0.007 A 
ENDBRANCH  13  14
ENDBRANCH   9  13
ENDBRANCH   8   9
ENDBRANCH   7   8
ENDBRANCH   5   7
BRANCH   1  20
HETATM   20  C8  UNL     1      29.226   6.554  47.471  1.00  0.00     0.013 C 
HETATM   21  C7  UNL     1      30.492   6.503  47.785  1.00  0.00     0.002 C 
BRANCH  21  22
HETATM   22  C6  UNL     1      31.231   6.351  49.023  1.00  0.00     0.019 C 
HETATM   23  C5  UNL     1      32.318   5.605  49.056  1.00  0.00     0.118 C 
BRANCH  23  24
HETATM   24  N3  UNL     1      32.560   5.056  47.757  1.00  0.00    -0.251 N 
HETATM   25  C2  UNL     1      33.394   5.492  46.662  1.00  0.00     0.074 A 
HETATM   26  C1  UNL     1      34.128   6.591  46.741  1.00  0.00     0.047 C 
HETATM   27  C3  UNL     1      33.274   4.547  45.535  1.00  0.00     0.080 A 
HETATM   28  C4  UNL     1      33.997   4.693  44.245  1.00  0.00     0.075 C 
HETATM   29  N1  UNL     1      32.445   3.620  45.904  1.00  0.00    -0.161 NA
HETATM   30  N2  UNL     1      31.987   3.872  47.223  1.00  0.00    -0.213 N 
HETATM   31  H6  UNL     1      31.300   3.223  47.705  1.00  0.00     0.211 HD
ENDBRANCH  23  24
ENDBRANCH  21  22
ENDBRANCH   1  20
TORSDOF 9
ENDMDL
MODEL 7
REMARK VINA RESULT:      -7.1      5.014      7.611
REMARK  9 active torsions:
REMARK  status: ('A' for Active; 'I' for Inactive)
REMARK    1  A    between atoms: N3_7  and  C5_8 
REMARK    2  A    between atoms: C6_9  and  C7_10 
REMARK    3  A    between atoms: C8_11  and  C9_12 
REMARK    4  A    between atoms: C12_16  and  O1_17 
REMARK    5  A    between atoms: O1_17  and  C13_18 
REMARK    6  A    between atoms: C13_18  and  C14_19 
REMARK    7  A    between atoms: C14_19  and  N5_20 
REMARK    8  A    between atoms: C14_19  and  C15_21 
REMARK    9  A    between atoms: C15_21  and  C16_22 
ROOT
HETATM    1  C9  UNL     1      26.896   5.392  48.954  1.00  0.00    -0.016 A 
HETATM    2  C10 UNL     1      25.960   6.393  49.102  1.00  0.00     0.127 A 
HETATM    3  N4  UNL     1      24.812   6.246  49.786  1.00  0.00    -0.269 NA
HETATM    4  C11 UNL     1      24.579   5.053  50.353  1.00  0.00     0.152 A 
HETATM    5  C12 UNL     1      25.389   3.954  50.313  1.00  0.00     0.087 A 
HETATM    6  C22 UNL     1      26.553   4.190  49.584  1.00  0.00     0.051 A 
ENDROOT
BRANCH   5   7
HETATM    7  O1  UNL     1      25.378   2.709  50.783  1.00  0.00    -0.348 OA
BRANCH   7   8
HETATM    8  C13 UNL     1      26.312   1.889  51.287  1.00  0.00     0.200 C 
BRANCH   8   9
HETATM    9  C14 UNL     1      26.391   1.818  52.765  1.00  0.00     0.102 C 
BRANCH   9  10
HETATM   10  N5  UNL     1      25.781   2.812  53.549  1.00  0.00    -0.424 N 
HETATM   11  H16 UNL     1      24.807   3.062  53.357  1.00  0.00     0.150 HD
HETATM   12  H17 UNL     1      26.135   2.940  54.500  1.00  0.00     0.150 HD
ENDBRANCH   9  10
BRANCH   9  13
HETATM   13  C15 UNL     1      25.860   0.465  53.290  1.00  0.00     0.065 C 
BRANCH  13  14
HETATM   14  C16 UNL     1      27.015  -0.470  53.233  1.00  0.00    -0.056 A 
HETATM   15  C17 UNL     1      28.213   0.041  53.746  1.00  0.00     0.007 A 
HETATM   16  C18 UNL     1      29.379  -0.705  53.764  1.00  0.00     0.001 A 
HETATM   17  C19 UNL     1      29.392  -2.000  53.265  1.00  0.00     0.000 A 
HETATM   18  C20 UNL     1      28.198  -2.477  52.765  1.00  0.00     0.001 A 
HETATM   19  C21 UNL     1      27.024  -1.745  52.740  1.00  0.00     0.007 A 
ENDBRANCH  13  14
ENDBRANCH   9  13
ENDBRANCH   8   9
ENDBRANCH   7   8
ENDBRANCH   5   7
BRANCH   1  20
HETATM   20  C8  UNL     1      28.130   5.572  48.208  1.00  0.00     0.013 C 
HETATM   21  C7  UNL     1      28.886   6.617  48.016  1.00  0.00     0.002 C 
BRANCH  21  22
HETATM   22  C6  UNL     1      28.841   8.003  48.442  1.00  0.00     0.019 C 
HETATM   23  C5  UNL     1      29.917   8.576  48.942  1.00  0.00     0.118 C 
BRANCH  23  24
HETATM   24  N3  UNL     1      30.995   7.634  48.963  1.00  0.00    -0.251 N 
HETATM   25  C2  UNL     1      32.096   7.403  48.058  1.00  0.00     0.074 A 
HETATM   26  C1  UNL     1      32.262   8.129  46.964  1.00  0.00     0.047 C 
HETATM   27  C3  UNL     1      32.928   6.291  48.558  1.00  0.00     0.080 A 
HETATM   28  C4  UNL     1      34.144   5.787  47.870  1.00  0.00     0.075 C 
HETATM   29  N1  UNL     1      32.387   5.880  49.662  1.00  0.00    -0.161 NA
HETATM   30  N2  UNL     1      31.229   6.646  49.954  1.00  0.00    -0.213 N 
HETATM   31  H6  UNL     1      30.646   6.461  50.821  1.00  0.00     0.211 HD
ENDBRANCH  23  24
ENDBRANCH  21  22
ENDBRANCH   1  20
TORSDOF 9
ENDMDL
MODEL 8
REMARK VINA RESULT:      -7.1      2.184      4.500
REMARK  9 active torsions:
REMARK  status: ('A' for Active; 'I' for Inactive)
REMARK    1  A    between atoms: N3_7  and  C5_8 
REMARK    2  A    between atoms: C6_9  and  C7_10 
REMARK    3  A    between atoms: C8_11  and  C9_12 
REMARK    4  A    between atoms: C12_16  and  O1_17 
REMARK    5  A    between atoms: O1_17  and  C13_18 
REMARK    6  A    between atoms: C13_18  and  C14_19 
REMARK    7  A    between atoms: C14_19  and  N5_20 
REMARK    8  A    between atoms: C14_19  and  C15_21 
REMARK    9  A    between atoms: C15_21  and  C16_22 
ROOT
HETATM    1  C9  UNL     1      22.285  -0.417  52.929  1.00  0.00    -0.016 A 
HETATM    2  C10 UNL     1      21.747  -1.321  53.820  1.00  0.00     0.127 A 
HETATM    3  N4  UNL     1      20.433  -1.418  54.083  1.00  0.00    -0.269 NA
HETATM    4  C11 UNL     1      19.609  -0.583  53.435  1.00  0.00     0.152 A 
HETATM    5  C12 UNL     1      19.961   0.371  52.521  1.00  0.00     0.087 A 
HETATM    6  C22 UNL     1      21.337   0.406  52.309  1.00  0.00     0.051 A 
ENDROOT
BRANCH   5   7
HETATM    7  O1  UNL     1      19.350   1.281  51.769  1.00  0.00    -0.348 OA
BRANCH   7   8
HETATM    8  C13 UNL     1      19.149   2.604  51.875  1.00  0.00     0.200 C 
BRANCH   8   9
HETATM    9  C14 UNL     1      19.877   3.455  50.905  1.00  0.00     0.102 C 
BRANCH   9  10
HETATM   10  N5  UNL     1      19.165   4.334  50.070  1.00  0.00    -0.424 N 
HETATM   11  H16 UNL     1      18.415   4.901  50.476  1.00  0.00     0.150 HD
HETATM   12  H17 UNL     1      19.653   4.695  49.247  1.00  0.00     0.150 HD
ENDBRANCH   9  10
BRANCH   9  13
HETATM   13  C15 UNL     1      20.959   4.307  51.607  1.00  0.00     0.065 C 
BRANCH  13  14
HETATM   14  C16 UNL     1      22.239   3.968  50.931  1.00  0.00    -0.056 A 
HETATM   15  C17 UNL     1      23.289   4.860  51.176  1.00  0.00     0.007 A 
HETATM   16  C18 UNL     1      24.544   4.685  50.619  1.00  0.00     0.001 A 
HETATM   17  C19 UNL     1      24.799   3.602  49.789  1.00  0.00     0.000 A 
HETATM   18  C20 UNL     1      23.746   2.740  49.564  1.00  0.00     0.001 A 
HETATM   19  C21 UNL     1      22.486   2.900  50.113  1.00  0.00     0.007 A 
ENDBRANCH  13  14
ENDBRANCH   9  13
ENDBRANCH   8   9
ENDBRANCH   7   8
ENDBRANCH   5   7
BRANCH   1  20
HETATM   20  C8  UNL     1      23.710  -0.328  52.661  1.00  0.00     0.013 C 
HETATM   21  C7  UNL     1      24.559   0.655  52.783  1.00  0.00     0.002 C 
BRANCH  21  22
HETATM   22  C6  UNL     1      24.468   2.035  53.220  1.00  0.00     0.019 C 
HETATM   23  C5  UNL     1      25.437   2.566  53.938  1.00  0.00     0.118 C 
BRANCH  23  24
HETATM   24  N3  UNL     1      26.461   1.589  54.155  1.00  0.00    -0.251 N 
HETATM   25  C2  UNL     1      27.748   1.383  53.535  1.00  0.00     0.074 A 
HETATM   26  C1  UNL     1      28.191   2.173  52.571  1.00  0.00     0.047 C 
HETATM   27  C3  UNL     1      28.413   0.213  54.142  1.00  0.00     0.080 A 
HETATM   28  C4  UNL     1      29.754  -0.284  53.740  1.00  0.00     0.075 C 
HETATM   29  N1  UNL     1      27.609  -0.252  55.047  1.00  0.00    -0.161 NA
HETATM   30  N2  UNL     1      26.427   0.530  55.099  1.00  0.00    -0.213 N 
HETATM   31  H6  UNL     1      25.644   0.308  55.780  1.00  0.00     0.211 HD
ENDBRANCH  23  24
ENDBRANCH  21  22
ENDBRANCH   1  20
TORSDOF 9
ENDMDL
MODEL 9
REMARK VINA RESULT:      -7.1      5.041      7.362
REMARK  9 active torsions:
REMARK  status: ('A' for Active; 'I' for Inactive)
REMARK    1  A    between atoms: N3_7  and  C5_8 
REMARK    2  A    between atoms: C6_9  and  C7_10 
REMARK    3  A    between atoms: C8_11  and  C9_12 
REMARK    4  A    between atoms: C12_16  and  O1_17 
REMARK    5  A    between atoms: O1_17  and  C13_18 
REMARK    6  A    between atoms: C13_18  and  C14_19 
REMARK    7  A    between atoms: C14_19  and  N5_20 
REMARK    8  A    between atoms: C14_19  and  C15_21 
REMARK    9  A    between atoms: C15_21  and  C16_22 
ROOT
HETATM    1  C9  UNL     1      26.362   5.514  48.876  1.00  0.00    -0.016 A 
HETATM    2  C10 UNL     1      24.999   5.481  48.668  1.00  0.00     0.127 A 
HETATM    3  N4  UNL     1      24.197   4.506  49.129  1.00  0.00    -0.269 NA
HETATM    4  C11 UNL     1      24.768   3.516  49.830  1.00  0.00     0.152 A 
HETATM    5  C12 UNL     1      26.094   3.385  50.133  1.00  0.00     0.087 A 
HETATM    6  C22 UNL     1      26.852   4.433  49.617  1.00  0.00     0.051 A 
ENDROOT
BRANCH   5   7
HETATM    7  O1  UNL     1      26.869   2.528  50.792  1.00  0.00    -0.348 OA
BRANCH   7   8
HETATM    8  C13 UNL     1      26.635   1.479  51.595  1.00  0.00     0.200 C 
BRANCH   8   9
HETATM    9  C14 UNL     1      26.501   1.779  53.040  1.00  0.00     0.102 C 
BRANCH   9  10
HETATM   10  N5  UNL     1      27.474   2.559  53.688  1.00  0.00    -0.424 N 
HETATM   11  H16 UNL     1      28.112   3.123  53.120  1.00  0.00     0.150 HD
HETATM   12  H17 UNL     1      27.263   2.876  54.637  1.00  0.00     0.150 HD
ENDBRANCH   9  10
BRANCH   9  13
HETATM   13  C15 UNL     1      25.139   2.439  53.351  1.00  0.00     0.065 C 
BRANCH  13  14
HETATM   14  C16 UNL     1      24.123   1.366  53.183  1.00  0.00    -0.056 A 
HETATM   15  C17 UNL     1      22.980   1.743  52.470  1.00  0.00     0.007 A 
HETATM   16  C18 UNL     1      21.942   0.859  52.228  1.00  0.00     0.001 A 
HETATM   17  C19 UNL     1      22.010  -0.446  52.695  1.00  0.00     0.000 A 
HETATM   18  C20 UNL     1      23.148  -0.791  53.395  1.00  0.00     0.001 A 
HETATM   19  C21 UNL     1      24.194   0.081  53.644  1.00  0.00     0.007 A 
ENDBRANCH  13  14
ENDBRANCH   9  13
ENDBRANCH   8   9
ENDBRANCH   7   8
ENDBRANCH   5   7
BRANCH   1  20
HETATM   20  C8  UNL     1      27.211   6.577  48.366  1.00  0.00     0.013 C 
HETATM   21  C7  UNL     1      28.470   6.599  48.027  1.00  0.00     0.002 C 
BRANCH  21  22
HETATM   22  C6  UNL     1      29.539   5.619  48.006  1.00  0.00     0.019 C 
HETATM   23  C5  UNL     1      30.788   6.000  48.190  1.00  0.00     0.118 C 
BRANCH  23  24
HETATM   24  N3  UNL     1      30.831   7.417  48.388  1.00  0.00    -0.251 N 
HETATM   25  C2  UNL     1      31.081   8.513  47.483  1.00  0.00     0.074 A 
HETATM   26  C1  UNL     1      31.329   8.313  46.199  1.00  0.00     0.047 C 
HETATM   27  C3  UNL     1      31.009   9.792  48.217  1.00  0.00     0.080 A 
HETATM   28  C4  UNL     1      31.217  11.123  47.591  1.00  0.00     0.075 C 
HETATM   29  N1  UNL     1      30.742   9.505  49.453  1.00  0.00    -0.161 NA
HETATM   30  N2  UNL     1      30.624   8.101  49.614  1.00  0.00    -0.213 N 
HETATM   31  H6  UNL     1      30.406   7.667  50.557  1.00  0.00     0.211 HD
ENDBRANCH  23  24
ENDBRANCH  21  22
ENDBRANCH   1  20
TORSDOF 9
ENDMDL
