MODEL 1
REMARK VINA RESULT:      -8.4      0.000      0.000
REMARK  5 active torsions:
REMARK  status: ('A' for Active; 'I' for Inactive)
REMARK    1  A    between atoms: O1_2  and  C2_3 
REMARK    2  A    between atoms: C7_8  and  N1_9 
REMARK    3  A    between atoms: N1_9  and  C9_11 
REMARK    4  A    between atoms: C10_12  and  N2_13 
REMARK    5  A    between atoms: C11_15  and  C12_16 
ROOT
HETATM    1  C9  UNL     1      21.088   0.236  53.167  1.00  0.00     0.049 A 
HETATM    2  C10 UNL     1      22.412   0.468  53.403  1.00  0.00     0.087 A 
HETATM    3  C19 UNL     1      21.619  -0.153  54.498  1.00  0.00     0.089 A 
HETATM    4  C20 UNL     1      21.967  -1.606  54.738  1.00  0.00     0.023 C 
ENDROOT
BRANCH   2   5
HETATM    5  N2  UNL     1      23.705   0.948  52.983  1.00  0.00    -0.175 N 
HETATM    6  N3  UNL     1      24.771   0.081  53.121  1.00  0.00    -0.151 NA
HETATM    7  C11 UNL     1      25.982   0.358  52.794  1.00  0.00     0.092 A 
HETATM    8  C17 UNL     1      26.178   1.696  52.246  1.00  0.00     0.053 A 
HETATM    9  C18 UNL     1      25.222   2.583  52.081  1.00  0.00     0.111 A 
HETATM   10  N5  UNL     1      23.883   2.232  52.459  1.00  0.00    -0.289 N 
HETATM   11  H17 UNL     1      23.070   2.879  52.359  1.00  0.00     0.188 HD
BRANCH   7  12
HETATM   12  C12 UNL     1      27.080  -0.580  52.953  1.00  0.00     0.012 A 
HETATM   13  C13 UNL     1      28.328  -0.245  53.417  1.00  0.00     0.017 A 
HETATM   14  C14 UNL     1      29.368  -1.140  53.566  1.00  0.00     0.020 A 
HETATM   15  C15 UNL     1      29.068  -2.456  53.203  1.00  0.00     0.116 A 
HETATM   16  N4  UNL     1      27.848  -2.803  52.744  1.00  0.00    -0.272 NA
HETATM   17  C16 UNL     1      26.845  -1.903  52.609  1.00  0.00     0.130 A 
ENDBRANCH   7  12
ENDBRANCH   2   5
BRANCH   1  18
HETATM   18  N1  UNL     1      20.020   0.339  52.231  1.00  0.00    -0.350 N 
HETATM   19  C8  UNL     1      18.757  -0.335  52.464  1.00  0.00     0.156 C 
BRANCH  18  20
HETATM   20  C7  UNL     1      20.202   1.104  51.072  1.00  0.00     0.068 A 
HETATM   21  C2  UNL     1      19.664   2.376  50.852  1.00  0.00     0.095 A 
HETATM   22  C3  UNL     1      19.917   3.030  49.663  1.00  0.00     0.039 A 
HETATM   23  C4  UNL     1      20.689   2.420  48.723  1.00  0.00     0.003 A 
HETATM   24  C5  UNL     1      21.246   1.166  48.885  1.00  0.00     0.002 A 
HETATM   25  C6  UNL     1      20.983   0.526  50.083  1.00  0.00     0.032 A 
BRANCH  21  26
HETATM   26  O1  UNL     1      18.908   2.810  51.942  1.00  0.00    -0.354 OA
HETATM   27  C1  UNL     1      17.748   3.575  51.659  1.00  0.00     0.210 C 
ENDBRANCH  21  26
ENDBRANCH  18  20
ENDBRANCH   1  18
TORSDOF 5
ENDMDL
MODEL 2
REMARK VINA RESULT:      -8.4      2.953      4.508
REMARK  5 active torsions:
REMARK  status: ('A' for Active; 'I' for Inactive)
REMARK    1  A    between atoms: O1_2  and  C2_3 
REMARK    2  A    between atoms: C7_8  and  N1_9 
REMARK    3  A    between atoms: N1_9  and  C9_11 
REMARK    4  A    between atoms: C10_12  and  N2_13 
REMARK    5  A    between atoms: C11_15  and  C12_16 
ROOT
HETATM    1  C9  UNL     1      22.690   3.230  50.892  1.00  0.00     0.049 A 
HETATM    2  C10 UNL     1      22.648   2.493  52.039  1.00  0.00     0.087 A 
HETATM    3  C19 UNL     1      21.885   3.770  52.017  1.00  0.00     0.089 A 
HETATM    4  C20 UNL     1      20.386   3.569  51.991  1.00  0.00     0.023 C 
ENDROOT
BRANCH   2   5
HETATM    5  N2  UNL     1      23.021   1.333  52.811  1.00  0.00    -0.175 N 
HETATM    6  N3  UNL     1      24.371   1.100  52.979  1.00  0.00    -0.151 NA
HETATM    7  C11 UNL     1      24.864   0.113  53.637  1.00  0.00     0.092 A 
HETATM    8  C17 UNL     1      23.876  -0.787  54.223  1.00  0.00     0.053 A 
HETATM    9  C18 UNL     1      22.574  -0.641  54.112  1.00  0.00     0.111 A 
HETATM   10  N5  UNL     1      22.066   0.476  53.368  1.00  0.00    -0.289 N 
HETATM   11  H17 UNL     1      21.048   0.662  53.234  1.00  0.00     0.188 HD
BRANCH   7  12
HETATM   12  C12 UNL     1      26.292  -0.102  53.795  1.00  0.00     0.012 A 
HETATM   13  C13 UNL     1      27.042  -0.948  53.017  1.00  0.00     0.017 A 
HETATM   14  C14 UNL     1      28.400  -1.149  53.171  1.00  0.00     0.020 A 
HETATM   15  C15 UNL     1      28.988  -0.412  54.202  1.00  0.00     0.116 A 
HETATM   16  N4  UNL     1      28.267   0.424  54.977  1.00  0.00    -0.272 NA
HETATM   17  C16 UNL     1      26.937   0.601  54.803  1.00  0.00     0.130 A 
ENDBRANCH   7  12
ENDBRANCH   2   5
BRANCH   1  18
HETATM   18  N1  UNL     1      23.199   3.321  49.566  1.00  0.00    -0.350 N 
HETATM   19  C8  UNL     1      22.535   2.648  48.465  1.00  0.00     0.156 C 
BRANCH  18  20
HETATM   20  C7  UNL     1      24.357   4.072  49.330  1.00  0.00     0.068 A 
HETATM   21  C2  UNL     1      24.383   5.411  48.929  1.00  0.00     0.095 A 
HETATM   22  C3  UNL     1      25.594   6.043  48.729  1.00  0.00     0.039 A 
HETATM   23  C4  UNL     1      26.746   5.345  48.927  1.00  0.00     0.003 A 
HETATM   24  C5  UNL     1      26.781   4.022  49.323  1.00  0.00     0.002 A 
HETATM   25  C6  UNL     1      25.558   3.405  49.519  1.00  0.00     0.032 A 
BRANCH  21  26
HETATM   26  O1  UNL     1      23.095   5.930  48.785  1.00  0.00    -0.354 OA
HETATM   27  C1  UNL     1      22.697   6.932  49.705  1.00  0.00     0.210 C 
ENDBRANCH  21  26
ENDBRANCH  18  20
ENDBRANCH   1  18
TORSDOF 5
ENDMDL
MODEL 3
REMARK VINA RESULT:      -8.4      2.772      6.351
REMARK  5 active torsions:
REMARK  status: ('A' for Active; 'I' for Inactive)
REMARK    1  A    between atoms: O1_2  and  C2_3 
REMARK    2  A    between atoms: C7_8  and  N1_9 
REMARK    3  A    between atoms: N1_9  and  C9_11 
REMARK    4  A    between atoms: C10_12  and  N2_13 
REMARK    5  A    between atoms: C11_15  and  C12_16 
ROOT
HETATM    1  C9  UNL     1      23.199  -0.345  53.656  1.00  0.00     0.049 A 
HETATM    2  C10 UNL     1      22.457   0.083  52.594  1.00  0.00     0.087 A 
HETATM    3  C19 UNL     1      21.752  -0.681  53.659  1.00  0.00     0.089 A 
HETATM    4  C20 UNL     1      20.817   0.174  54.486  1.00  0.00     0.023 C 
ENDROOT
BRANCH   2   5
HETATM    5  N2  UNL     1      22.336   0.768  51.330  1.00  0.00    -0.175 N 
HETATM    6  N3  UNL     1      23.318   1.686  51.019  1.00  0.00    -0.151 NA
HETATM    7  C11 UNL     1      23.354   2.376  49.936  1.00  0.00     0.092 A 
HETATM    8  C17 UNL     1      22.251   2.125  49.013  1.00  0.00     0.053 A 
HETATM    9  C18 UNL     1      21.275   1.271  49.229  1.00  0.00     0.111 A 
HETATM   10  N5  UNL     1      21.275   0.520  50.453  1.00  0.00    -0.289 N 
HETATM   11  H17 UNL     1      20.539  -0.177  50.699  1.00  0.00     0.188 HD
BRANCH   7  12
HETATM   12  C12 UNL     1      24.404   3.335  49.639  1.00  0.00     0.012 A 
HETATM   13  C13 UNL     1      25.747   3.079  49.757  1.00  0.00     0.017 A 
HETATM   14  C14 UNL     1      26.742   3.993  49.473  1.00  0.00     0.020 A 
HETATM   15  C15 UNL     1      26.285   5.243  49.044  1.00  0.00     0.116 A 
HETATM   16  N4  UNL     1      24.969   5.513  48.923  1.00  0.00    -0.272 NA
HETATM   17  C16 UNL     1      24.016   4.595  49.208  1.00  0.00     0.130 A 
ENDBRANCH   7  12
ENDBRANCH   2   5
BRANCH   1  18
HETATM   18  N1  UNL     1      24.490  -0.384  54.254  1.00  0.00    -0.350 N 
HETATM   19  C8  UNL     1      24.729  -1.150  55.462  1.00  0.00     0.156 C 
BRANCH  18  20
HETATM   20  C7  UNL     1      25.539   0.329  53.659  1.00  0.00     0.068 A 
HETATM   21  C2  UNL     1      26.475  -0.205  52.768  1.00  0.00     0.095 A 
HETATM   22  C3  UNL     1      27.465   0.605  52.248  1.00  0.00     0.039 A 
HETATM   23  C4  UNL     1      27.510   1.915  52.616  1.00  0.00     0.003 A 
HETATM   24  C5  UNL     1      26.613   2.496  53.491  1.00  0.00     0.002 A 
HETATM   25  C6  UNL     1      25.627   1.670  54.002  1.00  0.00     0.032 A 
BRANCH  21  26
HETATM   26  O1  UNL     1      26.244  -1.561  52.530  1.00  0.00    -0.354 OA
HETATM   27  C1  UNL     1      27.361  -2.429  52.609  1.00  0.00     0.210 C 
ENDBRANCH  21  26
ENDBRANCH  18  20
ENDBRANCH   1  18
TORSDOF 5
ENDMDL
MODEL 4
REMARK VINA RESULT:      -8.3      2.997      4.789
REMARK  5 active torsions:
REMARK  status: ('A' for Active; 'I' for Inactive)
REMARK    1  A    between atoms: O1_2  and  C2_3 
REMARK    2  A    between atoms: C7_8  and  N1_9 
REMARK    3  A    between atoms: N1_9  and  C9_11 
REMARK    4  A    between atoms: C10_12  and  N2_13 
REMARK    5  A    between atoms: C11_15  and  C12_16 
ROOT
HETATM    1  C9  UNL     1      22.555   3.281  50.833  1.00  0.00     0.049 A 
HETATM    2  C10 UNL     1      22.462   2.552  51.983  1.00  0.00     0.087 A 
HETATM    3  C19 UNL     1      21.730   3.847  51.932  1.00  0.00     0.089 A 
HETATM    4  C20 UNL     1      20.228   3.680  51.863  1.00  0.00     0.023 C 
ENDROOT
BRANCH   2   5
HETATM    5  N2  UNL     1      22.787   1.389  52.771  1.00  0.00    -0.175 N 
HETATM    6  N3  UNL     1      24.125   1.080  52.911  1.00  0.00    -0.151 NA
HETATM    7  C11 UNL     1      24.575   0.079  53.579  1.00  0.00     0.092 A 
HETATM    8  C17 UNL     1      23.551  -0.747  54.210  1.00  0.00     0.053 A 
HETATM    9  C18 UNL     1      22.257  -0.527  54.128  1.00  0.00     0.111 A 
HETATM   10  N5  UNL     1      21.798   0.603  53.371  1.00  0.00    -0.289 N 
HETATM   11  H17 UNL     1      20.789   0.846  53.258  1.00  0.00     0.188 HD
BRANCH   7  12
HETATM   12  C12 UNL     1      25.992  -0.217  53.706  1.00  0.00     0.012 A 
HETATM   13  C13 UNL     1      26.730  -0.904  52.775  1.00  0.00     0.017 A 
HETATM   14  C14 UNL     1      28.076  -1.183  52.901  1.00  0.00     0.020 A 
HETATM   15  C15 UNL     1      28.667  -0.706  54.074  1.00  0.00     0.116 A 
HETATM   16  N4  UNL     1      27.957  -0.030  55.001  1.00  0.00    -0.272 NA
HETATM   17  C16 UNL     1      26.638   0.230  54.850  1.00  0.00     0.130 A 
ENDBRANCH   7  12
ENDBRANCH   2   5
BRANCH   1  18
HETATM   18  N1  UNL     1      23.103   3.352  49.521  1.00  0.00    -0.350 N 
HETATM   19  C8  UNL     1      22.607   2.498  48.459  1.00  0.00     0.156 C 
BRANCH  18  20
HETATM   20  C7  UNL     1      24.136   4.262  49.263  1.00  0.00     0.068 A 
HETATM   21  C2  UNL     1      25.493   4.036  49.516  1.00  0.00     0.095 A 
HETATM   22  C3  UNL     1      26.418   5.016  49.216  1.00  0.00     0.039 A 
HETATM   23  C4  UNL     1      25.988   6.189  48.677  1.00  0.00     0.003 A 
HETATM   24  C5  UNL     1      24.662   6.467  48.406  1.00  0.00     0.002 A 
HETATM   25  C6  UNL     1      23.749   5.474  48.712  1.00  0.00     0.032 A 
BRANCH  21  26
HETATM   26  O1  UNL     1      25.710   2.773  50.068  1.00  0.00    -0.354 OA
HETATM   27  C1  UNL     1      26.660   2.680  51.116  1.00  0.00     0.210 C 
ENDBRANCH  21  26
ENDBRANCH  18  20
ENDBRANCH   1  18
TORSDOF 5
ENDMDL
MODEL 5
REMARK VINA RESULT:      -8.3      2.655      7.825
REMARK  5 active torsions:
REMARK  status: ('A' for Active; 'I' for Inactive)
REMARK    1  A    between atoms: O1_2  and  C2_3 
REMARK    2  A    between atoms: C7_8  and  N1_9 
REMARK    3  A    between atoms: N1_9  and  C9_11 
REMARK    4  A    between atoms: C10_12  and  N2_13 
REMARK    5  A    between atoms: C11_15  and  C12_16 
ROOT
HETATM    1  C9  UNL     1      25.050   2.406  52.514  1.00  0.00     0.049 A 
HETATM    2  C10 UNL     1      23.909   1.868  53.037  1.00  0.00     0.087 A 
HETATM    3  C19 UNL     1      24.015   3.352  53.006  1.00  0.00     0.089 A 
HETATM    4  C20 UNL     1      23.089   3.995  51.996  1.00  0.00     0.023 C 
ENDROOT
BRANCH   2   5
HETATM    5  N2  UNL     1      23.099   0.731  53.400  1.00  0.00    -0.175 N 
HETATM    6  N3  UNL     1      21.822   0.681  52.880  1.00  0.00    -0.151 NA
HETATM    7  C11 UNL     1      20.980  -0.262  53.107  1.00  0.00     0.092 A 
HETATM    8  C17 UNL     1      21.469  -1.323  53.982  1.00  0.00     0.053 A 
HETATM    9  C18 UNL     1      22.668  -1.354  54.521  1.00  0.00     0.111 A 
HETATM   10  N5  UNL     1      23.578  -0.280  54.239  1.00  0.00    -0.289 N 
HETATM   11  H17 UNL     1      24.546  -0.231  54.626  1.00  0.00     0.188 HD
BRANCH   7  12
HETATM   12  C12 UNL     1      19.641  -0.284  52.543  1.00  0.00     0.012 A 
HETATM   13  C13 UNL     1      19.283   0.322  51.365  1.00  0.00     0.017 A 
HETATM   14  C14 UNL     1      18.010   0.298  50.832  1.00  0.00     0.020 A 
HETATM   15  C15 UNL     1      17.071  -0.407  51.590  1.00  0.00     0.116 A 
HETATM   16  N4  UNL     1      17.404  -1.008  52.750  1.00  0.00    -0.272 NA
HETATM   17  C16 UNL     1      18.662  -0.969  53.248  1.00  0.00     0.130 A 
ENDBRANCH   7  12
ENDBRANCH   2   5
BRANCH   1  18
HETATM   18  N1  UNL     1      26.317   2.140  51.923  1.00  0.00    -0.350 N 
HETATM   19  C8  UNL     1      26.577   2.477  50.537  1.00  0.00     0.156 C 
BRANCH  18  20
HETATM   20  C7  UNL     1      27.319   1.545  52.699  1.00  0.00     0.068 A 
HETATM   21  C2  UNL     1      27.533   0.169  52.826  1.00  0.00     0.095 A 
HETATM   22  C3  UNL     1      28.559  -0.294  53.624  1.00  0.00     0.039 A 
HETATM   23  C4  UNL     1      29.347   0.603  54.277  1.00  0.00     0.003 A 
HETATM   24  C5  UNL     1      29.183   1.972  54.189  1.00  0.00     0.002 A 
HETATM   25  C6  UNL     1      28.151   2.419  53.385  1.00  0.00     0.032 A 
BRANCH  21  26
HETATM   26  O1  UNL     1      26.613  -0.565  52.074  1.00  0.00    -0.354 OA
HETATM   27  C1  UNL     1      26.555  -1.961  52.310  1.00  0.00     0.210 C 
ENDBRANCH  21  26
ENDBRANCH  18  20
ENDBRANCH   1  18
TORSDOF 5
ENDMDL
MODEL 6
REMARK VINA RESULT:      -8.2      1.964      3.975
REMARK  5 active torsions:
REMARK  status: ('A' for Active; 'I' for Inactive)
REMARK    1  A    between atoms: O1_2  and  C2_3 
REMARK    2  A    between atoms: C7_8  and  N1_9 
REMARK    3  A    between atoms: N1_9  and  C9_11 
REMARK    4  A    between atoms: C10_12  and  N2_13 
REMARK    5  A    between atoms: C11_15  and  C12_16 
ROOT
HETATM    1  C9  UNL     1      20.018   2.169  51.714  1.00  0.00     0.049 A 
HETATM    2  C10 UNL     1      20.221   1.054  52.475  1.00  0.00     0.087 A 
HETATM    3  C19 UNL     1      18.857   1.265  51.917  1.00  0.00     0.089 A 
HETATM    4  C20 UNL     1      18.506   0.288  50.816  1.00  0.00     0.023 C 
ENDROOT
BRANCH   2   5
HETATM    5  N2  UNL     1      21.072   0.205  53.271  1.00  0.00    -0.175 N 
HETATM    6  N3  UNL     1      22.434   0.358  53.113  1.00  0.00    -0.151 NA
HETATM    7  C11 UNL     1      23.322  -0.320  53.747  1.00  0.00     0.092 A 
HETATM    8  C17 UNL     1      22.788  -1.303  54.685  1.00  0.00     0.053 A 
HETATM    9  C18 UNL     1      21.508  -1.515  54.897  1.00  0.00     0.111 A 
HETATM   10  N5  UNL     1      20.550  -0.734  54.167  1.00  0.00    -0.289 N 
HETATM   11  H17 UNL     1      19.518  -0.841  54.278  1.00  0.00     0.188 HD
BRANCH   7  12
HETATM   12  C12 UNL     1      24.750  -0.132  53.557  1.00  0.00     0.012 A 
HETATM   13  C13 UNL     1      25.325   0.346  52.406  1.00  0.00     0.017 A 
HETATM   14  C14 UNL     1      26.683   0.523  52.230  1.00  0.00     0.020 A 
HETATM   15  C15 UNL     1      27.468   0.174  53.332  1.00  0.00     0.116 A 
HETATM   16  N4  UNL     1      26.921  -0.298  54.471  1.00  0.00    -0.272 NA
HETATM   17  C16 UNL     1      25.585  -0.461  54.615  1.00  0.00     0.130 A 
ENDBRANCH   7  12
ENDBRANCH   2   5
BRANCH   1  18
HETATM   18  N1  UNL     1      20.603   3.344  51.163  1.00  0.00    -0.350 N 
HETATM   19  C8  UNL     1      19.787   4.494  50.826  1.00  0.00     0.156 C 
BRANCH  18  20
HETATM   20  C7  UNL     1      21.987   3.380  50.948  1.00  0.00     0.068 A 
HETATM   21  C2  UNL     1      22.627   3.037  49.753  1.00  0.00     0.095 A 
HETATM   22  C3  UNL     1      24.002   3.115  49.666  1.00  0.00     0.039 A 
HETATM   23  C4  UNL     1      24.712   3.524  50.753  1.00  0.00     0.003 A 
HETATM   24  C5  UNL     1      24.134   3.874  51.958  1.00  0.00     0.002 A 
HETATM   25  C6  UNL     1      22.755   3.792  52.027  1.00  0.00     0.032 A 
BRANCH  21  26
HETATM   26  O1  UNL     1      21.712   2.647  48.773  1.00  0.00    -0.354 OA
HETATM   27  C1  UNL     1      21.641   1.264  48.471  1.00  0.00     0.210 C 
ENDBRANCH  21  26
ENDBRANCH  18  20
ENDBRANCH   1  18
TORSDOF 5
ENDMDL
MODEL 7
REMARK VINA RESULT:      -8.0      2.506      5.117
REMARK  5 active torsions:
REMARK  status: ('A' for Active; 'I' for Inactive)
REMARK    1  A    between atoms: O1_2  and  C2_3 
REMARK    2  A    between atoms: C7_8  and  N1_9 
REMARK    3  A    between atoms: N1_9  and  C9_11 
REMARK    4  A    between atoms: C10_12  and  N2_13 
REMARK    5  A    between atoms: C11_15  and  C12_16 
ROOT
HETATM    1  C9  UNL     1      24.296   4.616  49.077  1.00  0.00     0.049 A 
HETATM    2  C10 UNL     1      25.197   4.144  49.987  1.00  0.00     0.087 A 
HETATM    3  C19 UNL     1      25.572   5.363  49.220  1.00  0.00     0.089 A 
HETATM    4  C20 UNL     1      25.579   6.620  50.062  1.00  0.00     0.023 C 
ENDROOT
BRANCH   2   5
HETATM    5  N2  UNL     1      25.597   3.191  50.993  1.00  0.00    -0.175 N 
HETATM    6  N3  UNL     1      24.595   2.449  51.586  1.00  0.00    -0.151 NA
HETATM    7  C11 UNL     1      24.787   1.562  52.496  1.00  0.00     0.092 A 
HETATM    8  C17 UNL     1      26.181   1.375  52.884  1.00  0.00     0.053 A 
HETATM    9  C18 UNL     1      27.195   2.038  52.373  1.00  0.00     0.111 A 
HETATM   10  N5  UNL     1      26.936   3.019  51.359  1.00  0.00    -0.289 N 
HETATM   11  H17 UNL     1      27.684   3.586  50.903  1.00  0.00     0.188 HD
BRANCH   7  12
HETATM   12  C12 UNL     1      23.709   0.798  53.098  1.00  0.00     0.012 A 
HETATM   13  C13 UNL     1      22.379   1.128  53.014  1.00  0.00     0.017 A 
HETATM   14  C14 UNL     1      21.358   0.397  53.588  1.00  0.00     0.020 A 
HETATM   15  C15 UNL     1      21.771  -0.740  54.287  1.00  0.00     0.116 A 
HETATM   16  N4  UNL     1      23.073  -1.079  54.382  1.00  0.00    -0.272 NA
HETATM   17  C16 UNL     1      24.054  -0.344  53.807  1.00  0.00     0.130 A 
ENDBRANCH   7  12
ENDBRANCH   2   5
BRANCH   1  18
HETATM   18  N1  UNL     1      23.018   4.432  48.478  1.00  0.00    -0.350 N 
HETATM   19  C8  UNL     1      22.557   5.313  47.422  1.00  0.00     0.156 C 
BRANCH  18  20
HETATM   20  C7  UNL     1      22.203   3.382  48.920  1.00  0.00     0.068 A 
HETATM   21  C2  UNL     1      21.276   3.464  49.964  1.00  0.00     0.095 A 
HETATM   22  C3  UNL     1      20.529   2.355  50.305  1.00  0.00     0.039 A 
HETATM   23  C4  UNL     1      20.711   1.196  49.615  1.00  0.00     0.003 A 
HETATM   24  C5  UNL     1      21.612   1.056  48.577  1.00  0.00     0.002 A 
HETATM   25  C6  UNL     1      22.351   2.178  48.247  1.00  0.00     0.032 A 
BRANCH  21  26
HETATM   26  O1  UNL     1      21.252   4.740  50.530  1.00  0.00    -0.354 OA
HETATM   27  C1  UNL     1      21.786   4.876  51.836  1.00  0.00     0.210 C 
ENDBRANCH  21  26
ENDBRANCH  18  20
ENDBRANCH   1  18
TORSDOF 5
ENDMDL
MODEL 8
REMARK VINA RESULT:      -7.9      3.458      5.081
REMARK  5 active torsions:
REMARK  status: ('A' for Active; 'I' for Inactive)
REMARK    1  A    between atoms: O1_2  and  C2_3 
REMARK    2  A    between atoms: C7_8  and  N1_9 
REMARK    3  A    between atoms: N1_9  and  C9_11 
REMARK    4  A    between atoms: C10_12  and  N2_13 
REMARK    5  A    between atoms: C11_15  and  C12_16 
ROOT
HETATM    1  C9  UNL     1      24.395   4.131  51.183  1.00  0.00     0.049 A 
HETATM    2  C10 UNL     1      24.057   3.207  52.130  1.00  0.00     0.087 A 
HETATM    3  C19 UNL     1      23.561   4.597  52.321  1.00  0.00     0.089 A 
HETATM    4  C20 UNL     1      22.069   4.732  52.113  1.00  0.00     0.023 C 
ENDROOT
BRANCH   2   5
HETATM    5  N2  UNL     1      24.095   1.865  52.656  1.00  0.00    -0.175 N 
HETATM    6  N3  UNL     1      25.331   1.252  52.722  1.00  0.00    -0.151 NA
HETATM    7  C11 UNL     1      25.531   0.063  53.164  1.00  0.00     0.092 A 
HETATM    8  C17 UNL     1      24.331  -0.635  53.613  1.00  0.00     0.053 A 
HETATM    9  C18 UNL     1      23.117  -0.128  53.586  1.00  0.00     0.111 A 
HETATM   10  N5  UNL     1      22.939   1.205  53.084  1.00  0.00    -0.289 N 
HETATM   11  H17 UNL     1      22.011   1.679  53.030  1.00  0.00     0.188 HD
BRANCH   7  12
HETATM   12  C12 UNL     1      26.846  -0.552  53.219  1.00  0.00     0.012 A 
HETATM   13  C13 UNL     1      27.999   0.106  53.571  1.00  0.00     0.017 A 
HETATM   14  C14 UNL     1      29.246  -0.483  53.622  1.00  0.00     0.020 A 
HETATM   15  C15 UNL     1      29.269  -1.839  53.283  1.00  0.00     0.116 A 
HETATM   16  N4  UNL     1      28.148  -2.501  52.934  1.00  0.00    -0.272 NA
HETATM   17  C16 UNL     1      26.937  -1.897  52.893  1.00  0.00     0.130 A 
ENDBRANCH   7  12
ENDBRANCH   2   5
BRANCH   1  18
HETATM   18  N1  UNL     1      25.087   4.371  49.964  1.00  0.00    -0.350 N 
HETATM   19  C8  UNL     1      26.326   3.680  49.662  1.00  0.00     0.156 C 
BRANCH  18  20
HETATM   20  C7  UNL     1      24.557   5.290  49.049  1.00  0.00     0.068 A 
HETATM   21  C2  UNL     1      25.093   6.551  48.768  1.00  0.00     0.095 A 
HETATM   22  C3  UNL     1      24.476   7.366  47.842  1.00  0.00     0.039 A 
HETATM   23  C4  UNL     1      23.350   6.925  47.217  1.00  0.00     0.003 A 
HETATM   24  C5  UNL     1      22.776   5.691  47.454  1.00  0.00     0.002 A 
HETATM   25  C6  UNL     1      23.409   4.886  48.384  1.00  0.00     0.032 A 
BRANCH  21  26
HETATM   26  O1  UNL     1      26.244   6.799  49.519  1.00  0.00    -0.354 OA
HETATM   27  C1  UNL     1      26.409   8.110  50.032  1.00  0.00     0.210 C 
ENDBRANCH  21  26
ENDBRANCH  18  20
ENDBRANCH   1  18
TORSDOF 5
ENDMDL
MODEL 9
REMARK VINA RESULT:      -7.9      2.880      4.564
REMARK  5 active torsions:
REMARK  status: ('A' for Active; 'I' for Inactive)
REMARK    1  A    between atoms: O1_2  and  C2_3 
REMARK    2  A    between atoms: C7_8  and  N1_9 
REMARK    3  A    between atoms: N1_9  and  C9_11 
REMARK    4  A    between atoms: C10_12  and  N2_13 
REMARK    5  A    between atoms: C11_15  and  C12_16 
ROOT
HETATM    1  C9  UNL     1      24.374   3.998  51.137  1.00  0.00     0.049 A 
HETATM    2  C10 UNL     1      24.069   3.075  52.095  1.00  0.00     0.087 A 
HETATM    3  C19 UNL     1      23.660   4.483  52.345  1.00  0.00     0.089 A 
HETATM    4  C20 UNL     1      22.164   4.694  52.261  1.00  0.00     0.023 C 
ENDROOT
BRANCH   2   5
HETATM    5  N2  UNL     1      24.082   1.723  52.598  1.00  0.00    -0.175 N 
HETATM    6  N3  UNL     1      25.307   1.089  52.658  1.00  0.00    -0.151 NA
HETATM    7  C11 UNL     1      25.486  -0.111  53.080  1.00  0.00     0.092 A 
HETATM    8  C17 UNL     1      24.271  -0.796  53.511  1.00  0.00     0.053 A 
HETATM    9  C18 UNL     1      23.067  -0.269  53.487  1.00  0.00     0.111 A 
HETATM   10  N5  UNL     1      22.913   1.075  53.008  1.00  0.00    -0.289 N 
HETATM   11  H17 UNL     1      21.992   1.564  52.957  1.00  0.00     0.188 HD
BRANCH   7  12
HETATM   12  C12 UNL     1      26.790  -0.748  53.131  1.00  0.00     0.012 A 
HETATM   13  C13 UNL     1      27.943  -0.129  53.545  1.00  0.00     0.017 A 
HETATM   14  C14 UNL     1      29.180  -0.739  53.592  1.00  0.00     0.020 A 
HETATM   15  C15 UNL     1      29.193  -2.074  53.178  1.00  0.00     0.116 A 
HETATM   16  N4  UNL     1      28.070  -2.698  52.767  1.00  0.00    -0.272 NA
HETATM   17  C16 UNL     1      26.869  -2.075  52.732  1.00  0.00     0.130 A 
ENDBRANCH   7  12
ENDBRANCH   2   5
BRANCH   1  18
HETATM   18  N1  UNL     1      24.977   4.226  49.868  1.00  0.00    -0.350 N 
HETATM   19  C8  UNL     1      26.272   3.660  49.546  1.00  0.00     0.156 C 
BRANCH  18  20
HETATM   20  C7  UNL     1      24.301   5.009  48.923  1.00  0.00     0.068 A 
HETATM   21  C2  UNL     1      23.119   4.646  48.271  1.00  0.00     0.095 A 
HETATM   22  C3  UNL     1      22.548   5.509  47.357  1.00  0.00     0.039 A 
HETATM   23  C4  UNL     1      23.151   6.703  47.108  1.00  0.00     0.003 A 
HETATM   24  C5  UNL     1      24.319   7.114  47.722  1.00  0.00     0.002 A 
HETATM   25  C6  UNL     1      24.876   6.238  48.635  1.00  0.00     0.032 A 
BRANCH  21  26
HETATM   26  O1  UNL     1      22.675   3.385  48.674  1.00  0.00    -0.354 OA
HETATM   27  C1  UNL     1      22.427   2.432  47.655  1.00  0.00     0.210 C 
ENDBRANCH  21  26
ENDBRANCH  18  20
ENDBRANCH   1  18
TORSDOF 5
ENDMDL
