MODEL 1
REMARK VINA RESULT:      -8.8      0.000      0.000
REMARK  2 active torsions:
REMARK  status: ('A' for Active; 'I' for Inactive)
REMARK    1  A    between atoms: C10_11  and  N2_12 
REMARK    2  A    between atoms: N2_12  and  C11_13 
ROOT
HETATM    1  C1  UNL     1      21.752   3.582  47.222  1.00  0.00     0.070 C 
HETATM    2  C2  UNL     1      21.422   2.612  48.325  1.00  0.00     0.023 C 
HETATM    3  C3  UNL     1      20.929   1.550  48.921  1.00  0.00     0.022 C 
HETATM    4  C4  UNL     1      20.482   0.469  49.775  1.00  0.00    -0.018 C 
HETATM    5  C5  UNL     1      20.819   0.585  51.083  1.00  0.00     0.045 C 
HETATM    6  C6  UNL     1      21.003   0.383  52.531  1.00  0.00     0.279 C 
HETATM    7  N1  UNL     1      22.468   0.401  52.803  1.00  0.00     0.087 N 
HETATM    8  C7  UNL     1      22.835   1.814  52.742  1.00  0.00     0.298 C 
HETATM    9  C8  UNL     1      24.276   2.054  52.582  1.00  0.00     0.022 C 
HETATM   10  C9  UNL     1      24.831   2.613  51.510  1.00  0.00     0.057 A 
HETATM   11  C10 UNL     1      26.201   2.750  51.553  1.00  0.00     0.143 A 
HETATM   12  N3  UNL     1      26.979   3.271  50.586  1.00  0.00    -0.223 NA
HETATM   13  C17 UNL     1      26.384   3.711  49.450  1.00  0.00     0.237 A 
HETATM   14  N4  UNL     1      25.043   3.594  49.375  1.00  0.00    -0.220 NA
HETATM   15  C18 UNL     1      24.277   3.076  50.337  1.00  0.00     0.184 A 
HETATM   16  N5  UNL     1      23.051   2.958  50.308  1.00  0.00    -0.154 NA
HETATM   17  N6  UNL     1      22.047   3.243  49.432  1.00  0.00    -0.281 N 
HETATM   18  H9  UNL     1      22.559   0.008  53.763  1.00  0.00     0.316 HD
HETATM   19  H19 UNL     1      21.777   4.199  49.811  1.00  0.00     0.189 HD
ENDROOT
BRANCH  11  20
HETATM   20  N2  UNL     1      27.116   2.398  52.601  1.00  0.00    -0.340 N 
HETATM   21  H13 UNL     1      27.156   3.286  53.141  1.00  0.00     0.167 HD
BRANCH  20  22
HETATM   22  C11 UNL     1      27.844   1.248  52.961  1.00  0.00     0.035 A 
HETATM   23  C12 UNL     1      29.024   1.433  53.630  1.00  0.00     0.029 A 
HETATM   24  C13 UNL     1      29.754   0.313  54.004  1.00  0.00     0.004 A 
HETATM   25  C14 UNL     1      29.318  -0.986  53.716  1.00  0.00     0.024 A 
HETATM   26  C15 UNL     1      28.142  -1.122  53.050  1.00  0.00     0.036 A 
HETATM   27 CL1  UNL     1      27.678  -2.786  52.739  1.00  0.00    -0.084 Cl
HETATM   28  C16 UNL     1      27.418  -0.010  52.679  1.00  0.00     0.053 A 
ENDBRANCH  20  22
ENDBRANCH  11  20
TORSDOF 2
ENDMDL
MODEL 2
REMARK VINA RESULT:      -8.7      2.631      4.827
REMARK  2 active torsions:
REMARK  status: ('A' for Active; 'I' for Inactive)
REMARK    1  A    between atoms: C10_11  and  N2_12 
REMARK    2  A    between atoms: N2_12  and  C11_13 
ROOT
HETATM    1  C1  UNL     1      21.534   7.601  50.608  1.00  0.00     0.070 C 
HETATM    2  C2  UNL     1      22.976   7.670  50.181  1.00  0.00     0.023 C 
HETATM    3  C3  UNL     1      24.175   8.167  49.977  1.00  0.00     0.022 C 
HETATM    4  C4  UNL     1      25.549   8.502  49.663  1.00  0.00    -0.018 C 
HETATM    5  C5  UNL     1      26.272   7.510  49.087  1.00  0.00     0.045 C 
HETATM    6  C6  UNL     1      27.329   6.691  48.469  1.00  0.00     0.279 C 
HETATM    7  N1  UNL     1      27.496   5.469  49.304  1.00  0.00     0.087 N 
HETATM    8  C7  UNL     1      26.352   4.628  48.958  1.00  0.00     0.298 C 
HETATM    9  C8  UNL     1      26.077   3.558  49.927  1.00  0.00     0.022 C 
HETATM   10  C9  UNL     1      24.979   3.485  50.674  1.00  0.00     0.057 A 
HETATM   11  C10 UNL     1      24.909   2.402  51.524  1.00  0.00     0.143 A 
HETATM   12  N3  UNL     1      23.908   2.126  52.380  1.00  0.00    -0.223 NA
HETATM   13  C17 UNL     1      22.854   2.977  52.431  1.00  0.00     0.237 A 
HETATM   14  N4  UNL     1      22.887   4.046  51.611  1.00  0.00    -0.220 NA
HETATM   15  C18 UNL     1      23.883   4.315  50.764  1.00  0.00     0.184 A 
HETATM   16  N5  UNL     1      23.948   5.276  49.997  1.00  0.00    -0.154 NA
HETATM   17  N6  UNL     1      23.172   6.353  49.688  1.00  0.00    -0.281 N 
HETATM   18  H9  UNL     1      28.400   5.060  48.989  1.00  0.00     0.316 HD
HETATM   19  H19 UNL     1      22.655   5.940  48.856  1.00  0.00     0.189 HD
ENDROOT
BRANCH  11  20
HETATM   20  N2  UNL     1      25.843   1.328  51.703  1.00  0.00    -0.340 N 
HETATM   21  H13 UNL     1      25.432   0.598  51.086  1.00  0.00     0.167 HD
BRANCH  20  22
HETATM   22  C11 UNL     1      27.022   1.128  52.445  1.00  0.00     0.035 A 
HETATM   23  C12 UNL     1      27.590   2.225  53.034  1.00  0.00     0.029 A 
HETATM   24  C13 UNL     1      28.749   2.050  53.779  1.00  0.00     0.004 A 
HETATM   25  C14 UNL     1      29.343   0.793  53.940  1.00  0.00     0.024 A 
HETATM   26  C15 UNL     1      28.746  -0.268  53.338  1.00  0.00     0.036 A 
HETATM   27 CL1  UNL     1      29.562  -1.799  53.600  1.00  0.00    -0.084 Cl
HETATM   28  C16 UNL     1      27.596  -0.093  52.598  1.00  0.00     0.053 A 
ENDBRANCH  20  22
ENDBRANCH  11  20
TORSDOF 2
ENDMDL
MODEL 3
REMARK VINA RESULT:      -8.7      1.994      2.612
REMARK  2 active torsions:
REMARK  status: ('A' for Active; 'I' for Inactive)
REMARK    1  A    between atoms: C10_11  and  N2_12 
REMARK    2  A    between atoms: N2_12  and  C11_13 
ROOT
HETATM    1  C1  UNL     1      18.958   3.898  51.169  1.00  0.00     0.070 C 
HETATM    2  C2  UNL     1      19.102   2.510  51.735  1.00  0.00     0.023 C 
HETATM    3  C3  UNL     1      18.827   1.249  51.982  1.00  0.00     0.022 C 
HETATM    4  C4  UNL     1      18.722  -0.138  52.384  1.00  0.00    -0.018 C 
HETATM    5  C5  UNL     1      19.713  -0.584  53.195  1.00  0.00     0.045 C 
HETATM    6  C6  UNL     1      20.597  -1.391  54.054  1.00  0.00     0.279 C 
HETATM    7  N1  UNL     1      21.962  -1.348  53.460  1.00  0.00     0.087 N 
HETATM    8  C7  UNL     1      22.475  -0.026  53.815  1.00  0.00     0.298 C 
HETATM    9  C8  UNL     1      23.630   0.405  53.016  1.00  0.00     0.022 C 
HETATM   10  C9  UNL     1      23.621   1.436  52.175  1.00  0.00     0.057 A 
HETATM   11  C10 UNL     1      24.807   1.679  51.517  1.00  0.00     0.143 A 
HETATM   12  N3  UNL     1      25.031   2.652  50.616  1.00  0.00    -0.223 NA
HETATM   13  C17 UNL     1      24.011   3.490  50.307  1.00  0.00     0.237 A 
HETATM   14  N4  UNL     1      22.836   3.283  50.934  1.00  0.00    -0.220 NA
HETATM   15  C18 UNL     1      22.619   2.316  51.827  1.00  0.00     0.184 A 
HETATM   16  N5  UNL     1      21.564   2.099  52.425  1.00  0.00    -0.154 NA
HETATM   17  N6  UNL     1      20.314   2.641  52.461  1.00  0.00    -0.281 N 
HETATM   18  H9  UNL     1      22.478  -2.115  53.937  1.00  0.00     0.316 HD
HETATM   19  H19 UNL     1      20.452   3.294  53.288  1.00  0.00     0.189 HD
ENDROOT
BRANCH  11  20
HETATM   20  N2  UNL     1      26.062   0.991  51.626  1.00  0.00    -0.340 N 
HETATM   21  H13 UNL     1      25.995   0.323  50.831  1.00  0.00     0.167 HD
BRANCH  20  22
HETATM   22  C11 UNL     1      27.178   1.056  52.480  1.00  0.00     0.035 A 
HETATM   23  C12 UNL     1      27.474   2.270  53.039  1.00  0.00     0.029 A 
HETATM   24  C13 UNL     1      28.566   2.357  53.892  1.00  0.00     0.004 A 
HETATM   25  C14 UNL     1      29.362   1.245  54.191  1.00  0.00     0.024 A 
HETATM   26  C15 UNL     1      29.032   0.060  53.614  1.00  0.00     0.036 A 
HETATM   27 CL1  UNL     1      30.086  -1.274  54.051  1.00  0.00    -0.084 Cl
HETATM   28  C16 UNL     1      27.948  -0.025  52.766  1.00  0.00     0.053 A 
ENDBRANCH  20  22
ENDBRANCH  11  20
TORSDOF 2
ENDMDL
MODEL 4
REMARK VINA RESULT:      -8.6      1.497      3.656
REMARK  2 active torsions:
REMARK  status: ('A' for Active; 'I' for Inactive)
REMARK    1  A    between atoms: C10_11  and  N2_12 
REMARK    2  A    between atoms: N2_12  and  C11_13 
ROOT
HETATM    1  C1  UNL     1      20.463   2.926  47.953  1.00  0.00     0.070 C 
HETATM    2  C2  UNL     1      21.574   3.931  48.099  1.00  0.00     0.023 C 
HETATM    3  C3  UNL     1      22.179   5.097  48.138  1.00  0.00     0.022 C 
HETATM    4  C4  UNL     1      23.043   6.256  48.227  1.00  0.00    -0.018 C 
HETATM    5  C5  UNL     1      24.347   5.991  48.486  1.00  0.00     0.045 C 
HETATM    6  C6  UNL     1      25.793   6.077  48.751  1.00  0.00     0.279 C 
HETATM    7  N1  UNL     1      26.051   5.404  50.055  1.00  0.00     0.087 N 
HETATM    8  C7  UNL     1      25.979   3.976  49.752  1.00  0.00     0.298 C 
HETATM    9  C8  UNL     1      25.804   3.119  50.932  1.00  0.00     0.022 C 
HETATM   10  C9  UNL     1      24.724   2.380  51.172  1.00  0.00     0.057 A 
HETATM   11  C10 UNL     1      24.752   1.645  52.336  1.00  0.00     0.143 A 
HETATM   12  N3  UNL     1      23.775   0.840  52.792  1.00  0.00    -0.223 NA
HETATM   13  C17 UNL     1      22.643   0.721  52.055  1.00  0.00     0.237 A 
HETATM   14  N4  UNL     1      22.582   1.426  50.907  1.00  0.00    -0.220 NA
HETATM   15  C18 UNL     1      23.554   2.223  50.460  1.00  0.00     0.184 A 
HETATM   16  N5  UNL     1      23.538   2.877  49.417  1.00  0.00    -0.154 NA
HETATM   17  N6  UNL     1      22.671   3.078  48.385  1.00  0.00    -0.281 N 
HETATM   18  H9  UNL     1      27.011   5.706  50.319  1.00  0.00     0.316 HD
HETATM   19  H19 UNL     1      23.049   2.341  47.718  1.00  0.00     0.189 HD
ENDROOT
BRANCH  11  20
HETATM   20  N2  UNL     1      25.792   1.542  53.320  1.00  0.00    -0.340 N 
HETATM   21  H13 UNL     1      25.414   2.146  54.077  1.00  0.00     0.167 HD
BRANCH  20  22
HETATM   22  C11 UNL     1      27.028   0.876  53.416  1.00  0.00     0.035 A 
HETATM   23  C12 UNL     1      28.119   1.619  53.781  1.00  0.00     0.029 A 
HETATM   24  C13 UNL     1      29.346   0.980  53.891  1.00  0.00     0.004 A 
HETATM   25  C14 UNL     1      29.494  -0.389  53.642  1.00  0.00     0.024 A 
HETATM   26  C15 UNL     1      28.385  -1.088  53.283  1.00  0.00     0.036 A 
HETATM   27 CL1  UNL     1      28.671  -2.795  52.995  1.00  0.00    -0.084 Cl
HETATM   28  C16 UNL     1      27.167  -0.453  53.173  1.00  0.00     0.053 A 
ENDBRANCH  20  22
ENDBRANCH  11  20
TORSDOF 2
ENDMDL
MODEL 5
REMARK VINA RESULT:      -8.4      3.006      5.461
REMARK  2 active torsions:
REMARK  status: ('A' for Active; 'I' for Inactive)
REMARK    1  A    between atoms: C10_11  and  N2_12 
REMARK    2  A    between atoms: N2_12  and  C11_13 
ROOT
HETATM    1  C1  UNL     1      27.522   5.044  48.583  1.00  0.00     0.070 C 
HETATM    2  C2  UNL     1      26.080   5.344  48.896  1.00  0.00     0.023 C 
HETATM    3  C3  UNL     1      24.833   5.712  48.708  1.00  0.00     0.022 C 
HETATM    4  C4  UNL     1      23.429   6.069  48.731  1.00  0.00    -0.018 C 
HETATM    5  C5  UNL     1      22.821   5.954  49.937  1.00  0.00     0.045 C 
HETATM    6  C6  UNL     1      21.860   5.947  51.054  1.00  0.00     0.279 C 
HETATM    7  N1  UNL     1      21.832   4.567  51.615  1.00  0.00     0.087 N 
HETATM    8  C7  UNL     1      23.062   4.464  52.397  1.00  0.00     0.298 C 
HETATM    9  C8  UNL     1      23.457   3.085  52.716  1.00  0.00     0.022 C 
HETATM   10  C9  UNL     1      24.559   2.494  52.261  1.00  0.00     0.057 A 
HETATM   11  C10 UNL     1      24.751   1.194  52.676  1.00  0.00     0.143 A 
HETATM   12  N3  UNL     1      25.778   0.395  52.337  1.00  0.00    -0.223 NA
HETATM   13  C17 UNL     1      26.732   0.890  51.509  1.00  0.00     0.237 A 
HETATM   14  N4  UNL     1      26.577   2.160  51.085  1.00  0.00    -0.220 NA
HETATM   15  C18 UNL     1      25.555   2.948  51.425  1.00  0.00     0.184 A 
HETATM   16  N5  UNL     1      25.382   4.113  51.064  1.00  0.00    -0.154 NA
HETATM   17  N6  UNL     1      26.031   5.014  50.275  1.00  0.00    -0.281 N 
HETATM   18  H9  UNL     1      20.979   4.545  52.210  1.00  0.00     0.316 HD
HETATM   19  H19 UNL     1      26.589   5.510  51.032  1.00  0.00     0.189 HD
ENDROOT
BRANCH  11  20
HETATM   20  N2  UNL     1      23.943   0.392  53.550  1.00  0.00    -0.340 N 
HETATM   21  H13 UNL     1      24.608   0.211  54.330  1.00  0.00     0.167 HD
BRANCH  20  22
HETATM   22  C11 UNL     1      22.627  -0.107  53.533  1.00  0.00     0.035 A 
HETATM   23  C12 UNL     1      22.287  -1.021  54.494  1.00  0.00     0.029 A 
HETATM   24  C13 UNL     1      20.992  -1.520  54.503  1.00  0.00     0.004 A 
HETATM   25  C14 UNL     1      20.036  -1.115  53.564  1.00  0.00     0.024 A 
HETATM   26  C15 UNL     1      20.417  -0.206  52.629  1.00  0.00     0.036 A 
HETATM   27 CL1  UNL     1      19.150   0.240  51.499  1.00  0.00    -0.084 Cl
HETATM   28  C16 UNL     1      21.703   0.288  52.620  1.00  0.00     0.053 A 
ENDBRANCH  20  22
ENDBRANCH  11  20
TORSDOF 2
ENDMDL
MODEL 6
REMARK VINA RESULT:      -8.4      2.364      3.232
REMARK  2 active torsions:
REMARK  status: ('A' for Active; 'I' for Inactive)
REMARK    1  A    between atoms: C10_11  and  N2_12 
REMARK    2  A    between atoms: N2_12  and  C11_13 
ROOT
HETATM    1  C1  UNL     1      19.052   3.137  49.385  1.00  0.00     0.070 C 
HETATM    2  C2  UNL     1      18.717   1.946  50.244  1.00  0.00     0.023 C 
HETATM    3  C3  UNL     1      18.156   0.818  50.616  1.00  0.00     0.022 C 
HETATM    4  C4  UNL     1      17.665  -0.401  51.225  1.00  0.00    -0.018 C 
HETATM    5  C5  UNL     1      18.153  -0.671  52.460  1.00  0.00     0.045 C 
HETATM    6  C6  UNL     1      18.465  -1.268  53.770  1.00  0.00     0.279 C 
HETATM    7  N1  UNL     1      19.940  -1.470  53.832  1.00  0.00     0.087 N 
HETATM    8  C7  UNL     1      20.483  -0.136  54.076  1.00  0.00     0.298 C 
HETATM    9  C8  UNL     1      21.917  -0.007  53.783  1.00  0.00     0.022 C 
HETATM   10  C9  UNL     1      22.422   0.758  52.819  1.00  0.00     0.057 A 
HETATM   11  C10 UNL     1      23.795   0.742  52.704  1.00  0.00     0.143 A 
HETATM   12  N3  UNL     1      24.525   1.420  51.801  1.00  0.00    -0.223 NA
HETATM   13  C17 UNL     1      23.874   2.205  50.906  1.00  0.00     0.237 A 
HETATM   14  N4  UNL     1      22.530   2.247  50.991  1.00  0.00    -0.220 NA
HETATM   15  C18 UNL     1      21.810   1.571  51.889  1.00  0.00     0.184 A 
HETATM   16  N5  UNL     1      20.584   1.587  52.003  1.00  0.00    -0.154 NA
HETATM   17  N6  UNL     1      19.538   2.194  51.375  1.00  0.00    -0.281 N 
HETATM   18  H9  UNL     1      20.082  -2.111  54.639  1.00  0.00     0.316 HD
HETATM   19  H19 UNL     1      19.439   3.037  52.016  1.00  0.00     0.189 HD
ENDROOT
BRANCH  11  20
HETATM   20  N2  UNL     1      24.763   0.034  53.492  1.00  0.00    -0.340 N 
HETATM   21  H13 UNL     1      24.146  -0.490  54.147  1.00  0.00     0.167 HD
BRANCH  20  22
HETATM   22  C11 UNL     1      26.167  -0.058  53.523  1.00  0.00     0.035 A 
HETATM   23  C12 UNL     1      26.736  -1.192  53.009  1.00  0.00     0.029 A 
HETATM   24  C13 UNL     1      28.120  -1.300  53.021  1.00  0.00     0.004 A 
HETATM   25  C14 UNL     1      28.938  -0.290  53.540  1.00  0.00     0.024 A 
HETATM   26  C15 UNL     1      28.330   0.818  54.039  1.00  0.00     0.036 A 
HETATM   27 CL1  UNL     1      29.438   2.028  54.663  1.00  0.00    -0.084 Cl
HETATM   28  C16 UNL     1      26.956   0.924  54.028  1.00  0.00     0.053 A 
ENDBRANCH  20  22
ENDBRANCH  11  20
TORSDOF 2
ENDMDL
MODEL 7
REMARK VINA RESULT:      -8.3      2.952      5.602
REMARK  2 active torsions:
REMARK  status: ('A' for Active; 'I' for Inactive)
REMARK    1  A    between atoms: C10_11  and  N2_12 
REMARK    2  A    between atoms: N2_12  and  C11_13 
ROOT
HETATM    1  C1  UNL     1      23.619  -1.305  55.584  1.00  0.00     0.070 C 
HETATM    2  C2  UNL     1      22.419  -0.901  54.769  1.00  0.00     0.023 C 
HETATM    3  C3  UNL     1      21.179  -0.570  54.488  1.00  0.00     0.022 C 
HETATM    4  C4  UNL     1      19.888  -0.187  53.955  1.00  0.00    -0.018 C 
HETATM    5  C5  UNL     1      19.850   0.018  52.616  1.00  0.00     0.045 C 
HETATM    6  C6  UNL     1      19.449   0.317  51.230  1.00  0.00     0.279 C 
HETATM    7  N1  UNL     1      20.321   1.420  50.738  1.00  0.00     0.087 N 
HETATM    8  C7  UNL     1      21.600   0.775  50.449  1.00  0.00     0.298 C 
HETATM    9  C8  UNL     1      22.730   1.707  50.333  1.00  0.00     0.022 C 
HETATM   10  C9  UNL     1      23.765   1.743  51.168  1.00  0.00     0.057 A 
HETATM   11  C10 UNL     1      24.723   2.692  50.888  1.00  0.00     0.143 A 
HETATM   12  N3  UNL     1      25.844   2.923  51.595  1.00  0.00    -0.223 NA
HETATM   13  C17 UNL     1      26.079   2.163  52.693  1.00  0.00     0.237 A 
HETATM   14  N4  UNL     1      25.163   1.222  52.996  1.00  0.00    -0.220 NA
HETATM   15  C18 UNL     1      24.052   0.998  52.291  1.00  0.00     0.184 A 
HETATM   16  N5  UNL     1      23.196   0.146  52.531  1.00  0.00    -0.154 NA
HETATM   17  N6  UNL     1      22.992  -0.818  53.473  1.00  0.00    -0.281 N 
HETATM   18  H9  UNL     1      19.846   1.763  49.878  1.00  0.00     0.316 HD
HETATM   19  H19 UNL     1      23.420  -1.639  52.951  1.00  0.00     0.189 HD
ENDROOT
BRANCH  11  20
HETATM   20  N2  UNL     1      24.777   3.635  49.808  1.00  0.00    -0.340 N 
HETATM   21  H13 UNL     1      23.902   3.405  49.294  1.00  0.00     0.167 HD
BRANCH  20  22
HETATM   22  C11 UNL     1      25.663   4.649  49.396  1.00  0.00     0.035 A 
HETATM   23  C12 UNL     1      25.205   5.939  49.429  1.00  0.00     0.029 A 
HETATM   24  C13 UNL     1      26.065   6.955  49.036  1.00  0.00     0.004 A 
HETATM   25  C14 UNL     1      27.373   6.697  48.611  1.00  0.00     0.024 A 
HETATM   26  C15 UNL     1      27.785   5.402  48.594  1.00  0.00     0.036 A 
HETATM   27 CL1  UNL     1      29.439   5.179  48.050  1.00  0.00    -0.084 Cl
HETATM   28  C16 UNL     1      26.931   4.393  48.983  1.00  0.00     0.053 A 
ENDBRANCH  20  22
ENDBRANCH  11  20
TORSDOF 2
ENDMDL
MODEL 8
REMARK VINA RESULT:      -8.3      2.736      4.580
REMARK  2 active torsions:
REMARK  status: ('A' for Active; 'I' for Inactive)
REMARK    1  A    between atoms: C10_11  and  N2_12 
REMARK    2  A    between atoms: N2_12  and  C11_13 
ROOT
HETATM    1  C1  UNL     1      17.477  -0.034  51.667  1.00  0.00     0.070 C 
HETATM    2  C2  UNL     1      18.344   1.190  51.546  1.00  0.00     0.023 C 
HETATM    3  C3  UNL     1      18.680   2.460  51.514  1.00  0.00     0.022 C 
HETATM    4  C4  UNL     1      19.271   3.780  51.442  1.00  0.00    -0.018 C 
HETATM    5  C5  UNL     1      20.607   3.807  51.211  1.00  0.00     0.045 C 
HETATM    6  C6  UNL     1      22.005   4.208  50.979  1.00  0.00     0.279 C 
HETATM    7  N1  UNL     1      22.838   3.558  52.029  1.00  0.00     0.087 N 
HETATM    8  C7  UNL     1      22.947   2.165  51.603  1.00  0.00     0.298 C 
HETATM    9  C8  UNL     1      23.377   1.243  52.663  1.00  0.00     0.022 C 
HETATM   10  C9  UNL     1      22.622   0.270  53.165  1.00  0.00     0.057 A 
HETATM   11  C10 UNL     1      23.208  -0.487  54.156  1.00  0.00     0.143 A 
HETATM   12  N3  UNL     1      22.637  -1.510  54.818  1.00  0.00    -0.223 NA
HETATM   13  C17 UNL     1      21.365  -1.852  54.499  1.00  0.00     0.237 A 
HETATM   14  N4  UNL     1      20.761  -1.134  53.531  1.00  0.00    -0.220 NA
HETATM   15  C18 UNL     1      21.331  -0.119  52.879  1.00  0.00     0.184 A 
HETATM   16  N5  UNL     1      20.816   0.556  51.986  1.00  0.00    -0.154 NA
HETATM   17  N6  UNL     1      19.617   0.597  51.340  1.00  0.00    -0.281 N 
HETATM   18  H9  UNL     1      23.749   4.060  51.987  1.00  0.00     0.316 HD
HETATM   19  H19 UNL     1      19.870  -0.008  50.503  1.00  0.00     0.189 HD
ENDROOT
BRANCH  11  20
HETATM   20  N2  UNL     1      24.528  -0.391  54.710  1.00  0.00    -0.340 N 
HETATM   21  H13 UNL     1      24.316  -0.307  55.725  1.00  0.00     0.167 HD
BRANCH  20  22
HETATM   22  C11 UNL     1      25.840  -0.391  54.199  1.00  0.00     0.035 A 
HETATM   23  C12 UNL     1      26.137  -1.308  53.227  1.00  0.00     0.029 A 
HETATM   24  C13 UNL     1      27.422  -1.321  52.702  1.00  0.00     0.004 A 
HETATM   25  C14 UNL     1      28.410  -0.430  53.138  1.00  0.00     0.024 A 
HETATM   26  C15 UNL     1      28.070   0.463  54.104  1.00  0.00     0.036 A 
HETATM   27 CL1  UNL     1      29.373   1.538  54.582  1.00  0.00    -0.084 Cl
HETATM   28  C16 UNL     1      26.795   0.474  54.626  1.00  0.00     0.053 A 
ENDBRANCH  20  22
ENDBRANCH  11  20
TORSDOF 2
ENDMDL
MODEL 9
REMARK VINA RESULT:      -8.3      3.207      5.925
REMARK  2 active torsions:
REMARK  status: ('A' for Active; 'I' for Inactive)
REMARK    1  A    between atoms: C10_11  and  N2_12 
REMARK    2  A    between atoms: N2_12  and  C11_13 
ROOT
HETATM    1  C1  UNL     1      20.432  -0.140  53.323  1.00  0.00     0.070 C 
HETATM    2  C2  UNL     1      21.849  -0.333  53.796  1.00  0.00     0.023 C 
HETATM    3  C3  UNL     1      22.912  -0.935  54.278  1.00  0.00     0.022 C 
HETATM    4  C4  UNL     1      24.192  -1.389  54.782  1.00  0.00    -0.018 C 
HETATM    5  C5  UNL     1      25.168  -0.450  54.818  1.00  0.00     0.045 C 
HETATM    6  C6  UNL     1      26.433   0.286  54.993  1.00  0.00     0.279 C 
HETATM    7  N1  UNL     1      26.811   0.850  53.667  1.00  0.00     0.087 N 
HETATM    8  C7  UNL     1      25.924   1.999  53.491  1.00  0.00     0.298 C 
HETATM    9  C8  UNL     1      25.827   2.476  52.105  1.00  0.00     0.022 C 
HETATM   10  C9  UNL     1      24.719   2.431  51.369  1.00  0.00     0.057 A 
HETATM   11  C10 UNL     1      24.834   2.929  50.090  1.00  0.00     0.143 A 
HETATM   12  N3  UNL     1      23.858   2.975  49.165  1.00  0.00    -0.223 NA
HETATM   13  C17 UNL     1      22.635   2.495  49.496  1.00  0.00     0.237 A 
HETATM   14  N4  UNL     1      22.485   2.002  50.742  1.00  0.00    -0.220 NA
HETATM   15  C18 UNL     1      23.457   1.957  51.655  1.00  0.00     0.184 A 
HETATM   16  N5  UNL     1      23.360   1.522  52.803  1.00  0.00    -0.154 NA
HETATM   17  N6  UNL     1      22.383   0.963  53.572  1.00  0.00    -0.281 N 
HETATM   18  H9  UNL     1      27.807   1.130  53.777  1.00  0.00     0.316 HD
HETATM   19  H19 UNL     1      22.045   1.845  54.060  1.00  0.00     0.189 HD
ENDROOT
BRANCH  11  20
HETATM   20  N2  UNL     1      25.974   3.512  49.442  1.00  0.00    -0.340 N 
HETATM   21  H13 UNL     1      26.465   2.663  49.096  1.00  0.00     0.167 HD
BRANCH  20  22
HETATM   22  C11 UNL     1      26.457   4.817  49.230  1.00  0.00     0.035 A 
HETATM   23  C12 UNL     1      27.647   4.949  48.566  1.00  0.00     0.029 A 
HETATM   24  C13 UNL     1      28.138   6.227  48.338  1.00  0.00     0.004 A 
HETATM   25  C14 UNL     1      27.455   7.371  48.766  1.00  0.00     0.024 A 
HETATM   26  C15 UNL     1      26.278   7.193  49.422  1.00  0.00     0.036 A 
HETATM   27 CL1  UNL     1      25.495   8.684  49.916  1.00  0.00    -0.084 Cl
HETATM   28  C16 UNL     1      25.791   5.924  49.649  1.00  0.00     0.053 A 
ENDBRANCH  20  22
ENDBRANCH  11  20
TORSDOF 2
ENDMDL
