MODEL 1
REMARK VINA RESULT:      -7.5      0.000      0.000
REMARK  7 active torsions:
REMARK  status: ('A' for Active; 'I' for Inactive)
REMARK    1  A    between atoms: C2_2  and  C3_3 
REMARK    2  A    between atoms: C3_3  and  N1_4 
REMARK    3  A    between atoms: C6_7  and  C7_9 
REMARK    4  A    between atoms: C10_12  and  C11_13 
REMARK    5  A    between atoms: C11_13  and  O2_14 
REMARK    6  A    between atoms: O2_14  and  C12_15 
REMARK    7  A    between atoms: C12_15  and  C13_16 
ROOT
HETATM    1  C7  UNL     1      26.168   3.972  49.626  1.00  0.00    -0.002 A 
HETATM    2  C8  UNL     1      24.814   3.965  49.379  1.00  0.00     0.015 A 
HETATM    3  C9  UNL     1      23.947   3.126  50.042  1.00  0.00     0.010 A 
HETATM    4  C10 UNL     1      24.499   2.281  50.979  1.00  0.00    -0.035 A 
HETATM    5  C19 UNL     1      25.846   2.281  51.233  1.00  0.00     0.010 A 
HETATM    6  C20 UNL     1      26.704   3.130  50.557  1.00  0.00     0.015 A 
ENDROOT
BRANCH   4   7
HETATM    7  C11 UNL     1      23.551   1.380  51.689  1.00  0.00     0.206 C 
BRANCH   7   8
HETATM    8  O2  UNL     1      23.789   1.317  53.047  1.00  0.00    -0.382 OA
BRANCH   8   9
HETATM    9  C12 UNL     1      24.102   0.041  53.451  1.00  0.00     0.206 C 
BRANCH   9  10
HETATM   10  C13 UNL     1      25.566  -0.142  53.615  1.00  0.00    -0.035 A 
HETATM   11  C14 UNL     1      26.239  -1.043  52.801  1.00  0.00     0.009 A 
HETATM   12  C15 UNL     1      27.595  -1.304  52.853  1.00  0.00     0.001 A 
HETATM   13  C16 UNL     1      28.320  -0.601  53.800  1.00  0.00     0.000 A 
HETATM   14  C17 UNL     1      27.714   0.301  54.633  1.00  0.00     0.001 A 
HETATM   15  C18 UNL     1      26.357   0.521  54.535  1.00  0.00     0.009 A 
ENDBRANCH   9  10
ENDBRANCH   8   9
ENDBRANCH   7   8
ENDBRANCH   4   7
BRANCH   1  16
HETATM   16  C6  UNL     1      27.116   4.825  48.964  1.00  0.00     0.085 A 
HETATM   17  C2  UNL     1      27.266   6.179  48.513  1.00  0.00    -0.004 A 
HETATM   18  C1  UNL     1      28.496   5.975  48.024  1.00  0.00     0.214 A 
HETATM   19  O1  UNL     1      28.259   4.505  48.547  1.00  0.00    -0.346 OA
BRANCH  17  20
HETATM   20  C3  UNL     1      26.422   7.412  48.538  1.00  0.00     0.155 C 
BRANCH  20  21
HETATM   21  N1  UNL     1      26.293   7.836  49.891  1.00  0.00    -0.417 N 
HETATM   22  C4  UNL     1      24.996   7.591  50.464  1.00  0.00     0.142 C 
HETATM   23  C5  UNL     1      26.883   9.084  50.230  1.00  0.00     0.142 C 
ENDBRANCH  20  21
ENDBRANCH  17  20
ENDBRANCH   1  16
TORSDOF 7
ENDMDL
MODEL 2
REMARK VINA RESULT:      -7.2      1.694      2.455
REMARK  7 active torsions:
REMARK  status: ('A' for Active; 'I' for Inactive)
REMARK    1  A    between atoms: C2_2  and  C3_3 
REMARK    2  A    between atoms: C3_3  and  N1_4 
REMARK    3  A    between atoms: C6_7  and  C7_9 
REMARK    4  A    between atoms: C10_12  and  C11_13 
REMARK    5  A    between atoms: C11_13  and  O2_14 
REMARK    6  A    between atoms: O2_14  and  C12_15 
REMARK    7  A    between atoms: C12_15  and  C13_16 
ROOT
HETATM    1  C7  UNL     1      26.758   5.076  48.861  1.00  0.00    -0.002 A 
HETATM    2  C8  UNL     1      25.600   5.818  48.803  1.00  0.00     0.015 A 
HETATM    3  C9  UNL     1      24.381   5.319  49.202  1.00  0.00     0.010 A 
HETATM    4  C10 UNL     1      24.367   4.024  49.671  1.00  0.00    -0.035 A 
HETATM    5  C19 UNL     1      25.514   3.276  49.733  1.00  0.00     0.010 A 
HETATM    6  C20 UNL     1      26.731   3.794  49.327  1.00  0.00     0.015 A 
ENDROOT
BRANCH   4   7
HETATM    7  C11 UNL     1      23.044   3.497  50.100  1.00  0.00     0.206 C 
BRANCH   7   8
HETATM    8  O2  UNL     1      22.773   3.749  51.430  1.00  0.00    -0.382 OA
BRANCH   8   9
HETATM    9  C12 UNL     1      22.486   2.596  52.121  1.00  0.00     0.206 C 
BRANCH   9  10
HETATM   10  C13 UNL     1      23.698   2.011  52.746  1.00  0.00    -0.035 A 
HETATM   11  C14 UNL     1      23.817   0.632  52.852  1.00  0.00     0.009 A 
HETATM   12  C15 UNL     1      24.891  -0.034  53.411  1.00  0.00     0.001 A 
HETATM   13  C16 UNL     1      25.918   0.755  53.897  1.00  0.00     0.000 A 
HETATM   14  C17 UNL     1      25.860   2.122  53.822  1.00  0.00     0.001 A 
HETATM   15  C18 UNL     1      24.763   2.732  53.253  1.00  0.00     0.009 A 
ENDBRANCH   9  10
ENDBRANCH   8   9
ENDBRANCH   7   8
ENDBRANCH   4   7
BRANCH   1  16
HETATM   16  C6  UNL     1      28.053   5.547  48.458  1.00  0.00     0.085 A 
HETATM   17  C2  UNL     1      28.740   6.763  48.130  1.00  0.00    -0.004 A 
HETATM   18  C1  UNL     1      29.905   6.147  47.888  1.00  0.00     0.214 A 
HETATM   19  O1  UNL     1      29.084   4.852  48.262  1.00  0.00    -0.346 OA
BRANCH  17  20
HETATM   20  C3  UNL     1      28.373   8.210  48.057  1.00  0.00     0.155 C 
BRANCH  20  21
HETATM   21  N1  UNL     1      28.669   8.808  49.314  1.00  0.00    -0.417 N 
HETATM   22  C4  UNL     1      27.512   9.264  50.038  1.00  0.00     0.142 C 
HETATM   23  C5  UNL     1      29.797   9.672  49.363  1.00  0.00     0.142 C 
ENDBRANCH  20  21
ENDBRANCH  17  20
ENDBRANCH   1  16
TORSDOF 7
ENDMDL
MODEL 3
REMARK VINA RESULT:      -7.1      2.446      6.984
REMARK  7 active torsions:
REMARK  status: ('A' for Active; 'I' for Inactive)
REMARK    1  A    between atoms: C2_2  and  C3_3 
REMARK    2  A    between atoms: C3_3  and  N1_4 
REMARK    3  A    between atoms: C6_7  and  C7_9 
REMARK    4  A    between atoms: C10_12  and  C11_13 
REMARK    5  A    between atoms: C11_13  and  O2_14 
REMARK    6  A    between atoms: O2_14  and  C12_15 
REMARK    7  A    between atoms: C12_15  and  C13_16 
ROOT
HETATM    1  C7  UNL     1      24.098   1.961  52.419  1.00  0.00    -0.002 A 
HETATM    2  C8  UNL     1      24.065   3.227  52.957  1.00  0.00     0.015 A 
HETATM    3  C9  UNL     1      23.628   4.322  52.246  1.00  0.00     0.010 A 
HETATM    4  C10 UNL     1      23.217   4.094  50.951  1.00  0.00    -0.035 A 
HETATM    5  C19 UNL     1      23.246   2.836  50.406  1.00  0.00     0.010 A 
HETATM    6  C20 UNL     1      23.689   1.747  51.135  1.00  0.00     0.015 A 
ENDROOT
BRANCH   4   7
HETATM    7  C11 UNL     1      22.747   5.284  50.193  1.00  0.00     0.206 C 
BRANCH   7   8
HETATM    8  O2  UNL     1      23.694   6.286  50.129  1.00  0.00    -0.382 OA
BRANCH   8   9
HETATM    9  C12 UNL     1      24.122   6.502  48.841  1.00  0.00     0.206 C 
BRANCH   9  10
HETATM   10  C13 UNL     1      25.556   6.161  48.672  1.00  0.00    -0.035 A 
HETATM   11  C14 UNL     1      26.014   4.910  49.065  1.00  0.00     0.009 A 
HETATM   12  C15 UNL     1      27.320   4.471  48.961  1.00  0.00     0.001 A 
HETATM   13  C16 UNL     1      28.226   5.364  48.420  1.00  0.00     0.000 A 
HETATM   14  C17 UNL     1      27.838   6.613  48.013  1.00  0.00     0.001 A 
HETATM   15  C18 UNL     1      26.520   6.997  48.141  1.00  0.00     0.009 A 
ENDBRANCH   9  10
ENDBRANCH   8   9
ENDBRANCH   7   8
ENDBRANCH   4   7
BRANCH   1  16
HETATM   16  C6  UNL     1      24.544   0.787  53.116  1.00  0.00     0.085 A 
HETATM   17  C2  UNL     1      25.736   0.030  53.367  1.00  0.00    -0.004 A 
HETATM   18  C1  UNL     1      25.108  -0.882  54.121  1.00  0.00     0.214 A 
HETATM   19  O1  UNL     1      23.840   0.001  53.802  1.00  0.00    -0.346 OA
BRANCH  17  20
HETATM   20  C3  UNL     1      27.174   0.143  52.975  1.00  0.00     0.155 C 
BRANCH  20  21
HETATM   21  N1  UNL     1      27.829   0.981  53.920  1.00  0.00    -0.417 N 
HETATM   22  C4  UNL     1      28.243   2.255  53.392  1.00  0.00     0.142 C 
HETATM   23  C5  UNL     1      28.756   0.356  54.798  1.00  0.00     0.142 C 
ENDBRANCH  20  21
ENDBRANCH  17  20
ENDBRANCH   1  16
TORSDOF 7
ENDMDL
MODEL 4
REMARK VINA RESULT:      -7.0      3.627      5.974
REMARK  7 active torsions:
REMARK  status: ('A' for Active; 'I' for Inactive)
REMARK    1  A    between atoms: C2_2  and  C3_3 
REMARK    2  A    between atoms: C3_3  and  N1_4 
REMARK    3  A    between atoms: C6_7  and  C7_9 
REMARK    4  A    between atoms: C10_12  and  C11_13 
REMARK    5  A    between atoms: C11_13  and  O2_14 
REMARK    6  A    between atoms: O2_14  and  C12_15 
REMARK    7  A    between atoms: C12_15  and  C13_16 
ROOT
HETATM    1  C7  UNL     1      26.364   2.389  52.508  1.00  0.00    -0.002 A 
HETATM    2  C8  UNL     1      26.159   2.421  51.147  1.00  0.00     0.015 A 
HETATM    3  C9  UNL     1      24.946   2.758  50.590  1.00  0.00     0.010 A 
HETATM    4  C10 UNL     1      23.928   3.068  51.465  1.00  0.00    -0.035 A 
HETATM    5  C19 UNL     1      24.122   3.040  52.821  1.00  0.00     0.010 A 
HETATM    6  C20 UNL     1      25.348   2.698  53.365  1.00  0.00     0.015 A 
ENDROOT
BRANCH   4   7
HETATM    7  C11 UNL     1      22.623   3.430  50.850  1.00  0.00     0.206 C 
BRANCH   7   8
HETATM    8  O2  UNL     1      21.548   3.136  51.665  1.00  0.00    -0.382 OA
BRANCH   8   9
HETATM    9  C12 UNL     1      20.992   1.918  51.356  1.00  0.00     0.206 C 
BRANCH   9  10
HETATM   10  C13 UNL     1      21.201   0.925  52.440  1.00  0.00    -0.035 A 
HETATM   11  C14 UNL     1      22.040  -0.160  52.222  1.00  0.00     0.009 A 
HETATM   12  C15 UNL     1      22.317  -1.150  53.146  1.00  0.00     0.001 A 
HETATM   13  C16 UNL     1      21.699  -1.030  54.378  1.00  0.00     0.000 A 
HETATM   14  C17 UNL     1      20.860   0.017  54.654  1.00  0.00     0.001 A 
HETATM   15  C18 UNL     1      20.620   0.976  53.693  1.00  0.00     0.009 A 
ENDBRANCH   9  10
ENDBRANCH   8   9
ENDBRANCH   7   8
ENDBRANCH   4   7
BRANCH   1  16
HETATM   16  C6  UNL     1      27.607   2.046  53.140  1.00  0.00     0.085 A 
HETATM   17  C2  UNL     1      28.199   1.008  53.934  1.00  0.00    -0.004 A 
HETATM   18  C1  UNL     1      29.388   1.621  54.010  1.00  0.00     0.214 A 
HETATM   19  O1  UNL     1      28.669   2.720  53.136  1.00  0.00    -0.346 OA
BRANCH  17  20
HETATM   20  C3  UNL     1      27.738  -0.294  54.505  1.00  0.00     0.155 C 
BRANCH  20  21
HETATM   21  N1  UNL     1      26.496  -0.632  53.898  1.00  0.00    -0.417 N 
HETATM   22  C4  UNL     1      25.418  -0.830  54.830  1.00  0.00     0.142 C 
HETATM   23  C5  UNL     1      26.542  -1.552  52.815  1.00  0.00     0.142 C 
ENDBRANCH  20  21
ENDBRANCH  17  20
ENDBRANCH   1  16
TORSDOF 7
ENDMDL
MODEL 5
REMARK VINA RESULT:      -7.0      2.051      3.168
REMARK  7 active torsions:
REMARK  status: ('A' for Active; 'I' for Inactive)
REMARK    1  A    between atoms: C2_2  and  C3_3 
REMARK    2  A    between atoms: C3_3  and  N1_4 
REMARK    3  A    between atoms: C6_7  and  C7_9 
REMARK    4  A    between atoms: C10_12  and  C11_13 
REMARK    5  A    between atoms: C11_13  and  O2_14 
REMARK    6  A    between atoms: O2_14  and  C12_15 
REMARK    7  A    between atoms: C12_15  and  C13_16 
ROOT
HETATM    1  C7  UNL     1      26.974   5.073  48.804  1.00  0.00    -0.002 A 
HETATM    2  C8  UNL     1      26.793   3.809  49.318  1.00  0.00     0.015 A 
HETATM    3  C9  UNL     1      25.553   3.323  49.667  1.00  0.00     0.010 A 
HETATM    4  C10 UNL     1      24.483   4.168  49.478  1.00  0.00    -0.035 A 
HETATM    5  C19 UNL     1      24.651   5.429  48.966  1.00  0.00     0.010 A 
HETATM    6  C20 UNL     1      25.905   5.901  48.620  1.00  0.00     0.015 A 
ENDROOT
BRANCH   4   7
HETATM    7  C11 UNL     1      23.148   3.632  49.859  1.00  0.00     0.206 C 
BRANCH   7   8
HETATM    8  O2  UNL     1      23.130   2.254  49.945  1.00  0.00    -0.382 OA
BRANCH   8   9
HETATM    9  C12 UNL     1      22.099   1.805  50.734  1.00  0.00     0.206 C 
BRANCH   9  10
HETATM   10  C13 UNL     1      22.585   0.945  51.841  1.00  0.00    -0.035 A 
HETATM   11  C14 UNL     1      23.868   1.128  52.339  1.00  0.00     0.009 A 
HETATM   12  C15 UNL     1      24.437   0.396  53.364  1.00  0.00     0.001 A 
HETATM   13  C16 UNL     1      23.648  -0.592  53.923  1.00  0.00     0.000 A 
HETATM   14  C17 UNL     1      22.373  -0.823  53.477  1.00  0.00     0.001 A 
HETATM   15  C18 UNL     1      21.858  -0.061  52.451  1.00  0.00     0.009 A 
ENDBRANCH   9  10
ENDBRANCH   8   9
ENDBRANCH   7   8
ENDBRANCH   4   7
BRANCH   1  16
HETATM   16  C6  UNL     1      28.243   5.627  48.423  1.00  0.00     0.085 A 
HETATM   17  C2  UNL     1      28.851   6.883  48.092  1.00  0.00    -0.004 A 
HETATM   18  C1  UNL     1      30.062   6.346  47.888  1.00  0.00     0.214 A 
HETATM   19  O1  UNL     1      29.324   5.003  48.263  1.00  0.00    -0.346 OA
BRANCH  17  20
HETATM   20  C3  UNL     1      28.387   8.300  47.988  1.00  0.00     0.155 C 
BRANCH  20  21
HETATM   21  N1  UNL     1      28.617   8.937  49.240  1.00  0.00    -0.417 N 
HETATM   22  C4  UNL     1      27.443   9.063  50.062  1.00  0.00     0.142 C 
HETATM   23  C5  UNL     1      29.482  10.065  49.235  1.00  0.00     0.142 C 
ENDBRANCH  20  21
ENDBRANCH  17  20
ENDBRANCH   1  16
TORSDOF 7
ENDMDL
MODEL 6
REMARK VINA RESULT:      -7.0      2.419      3.933
REMARK  7 active torsions:
REMARK  status: ('A' for Active; 'I' for Inactive)
REMARK    1  A    between atoms: C2_2  and  C3_3 
REMARK    2  A    between atoms: C3_3  and  N1_4 
REMARK    3  A    between atoms: C6_7  and  C7_9 
REMARK    4  A    between atoms: C10_12  and  C11_13 
REMARK    5  A    between atoms: C11_13  and  O2_14 
REMARK    6  A    between atoms: O2_14  and  C12_15 
REMARK    7  A    between atoms: C12_15  and  C13_16 
ROOT
HETATM    1  C7  UNL     1      27.537   5.817  48.445  1.00  0.00    -0.002 A 
HETATM    2  C8  UNL     1      27.562   4.504  48.859  1.00  0.00     0.015 A 
HETATM    3  C9  UNL     1      26.453   3.869  49.373  1.00  0.00     0.010 A 
HETATM    4  C10 UNL     1      25.298   4.614  49.456  1.00  0.00    -0.035 A 
HETATM    5  C19 UNL     1      25.262   5.922  49.047  1.00  0.00     0.010 A 
HETATM    6  C20 UNL     1      26.386   6.545  48.533  1.00  0.00     0.015 A 
ENDROOT
BRANCH   4   7
HETATM    7  C11 UNL     1      24.107   3.917  50.012  1.00  0.00     0.206 C 
BRANCH   7   8
HETATM    8  O2  UNL     1      24.276   3.538  51.329  1.00  0.00    -0.382 OA
BRANCH   8   9
HETATM    9  C12 UNL     1      23.623   2.361  51.608  1.00  0.00     0.206 C 
BRANCH   9  10
HETATM   10  C13 UNL     1      24.554   1.320  52.110  1.00  0.00    -0.035 A 
HETATM   11  C14 UNL     1      24.110   0.397  53.048  1.00  0.00     0.009 A 
HETATM   12  C15 UNL     1      24.875  -0.617  53.592  1.00  0.00     0.001 A 
HETATM   13  C16 UNL     1      26.184  -0.701  53.154  1.00  0.00     0.000 A 
HETATM   14  C17 UNL     1      26.682   0.179  52.230  1.00  0.00     0.001 A 
HETATM   15  C18 UNL     1      25.873   1.171  51.721  1.00  0.00     0.009 A 
ENDBRANCH   9  10
ENDBRANCH   8   9
ENDBRANCH   7   8
ENDBRANCH   4   7
BRANCH   1  16
HETATM   16  C6  UNL     1      28.662   6.525  47.904  1.00  0.00     0.085 A 
HETATM   17  C2  UNL     1      30.079   6.659  48.080  1.00  0.00    -0.004 A 
HETATM   18  C1  UNL     1      30.208   7.558  47.094  1.00  0.00     0.214 A 
HETATM   19  O1  UNL     1      28.649   7.358  46.960  1.00  0.00    -0.346 OA
BRANCH  17  20
HETATM   20  C3  UNL     1      31.103   6.063  48.991  1.00  0.00     0.155 C 
BRANCH  20  21
HETATM   21  N1  UNL     1      32.240   5.709  48.212  1.00  0.00    -0.417 N 
HETATM   22  C4  UNL     1      32.219   4.358  47.717  1.00  0.00     0.142 C 
HETATM   23  C5  UNL     1      33.503   6.168  48.675  1.00  0.00     0.142 C 
ENDBRANCH  20  21
ENDBRANCH  17  20
ENDBRANCH   1  16
TORSDOF 7
ENDMDL
MODEL 7
REMARK VINA RESULT:      -6.9      2.192      3.229
REMARK  7 active torsions:
REMARK  status: ('A' for Active; 'I' for Inactive)
REMARK    1  A    between atoms: C2_2  and  C3_3 
REMARK    2  A    between atoms: C3_3  and  N1_4 
REMARK    3  A    between atoms: C6_7  and  C7_9 
REMARK    4  A    between atoms: C10_12  and  C11_13 
REMARK    5  A    between atoms: C11_13  and  O2_14 
REMARK    6  A    between atoms: O2_14  and  C12_15 
REMARK    7  A    between atoms: C12_15  and  C13_16 
ROOT
HETATM    1  C7  UNL     1      26.819   5.470  48.895  1.00  0.00    -0.002 A 
HETATM    2  C8  UNL     1      27.192   4.150  49.011  1.00  0.00     0.015 A 
HETATM    3  C9  UNL     1      26.417   3.218  49.663  1.00  0.00     0.010 A 
HETATM    4  C10 UNL     1      25.233   3.668  50.204  1.00  0.00    -0.035 A 
HETATM    5  C19 UNL     1      24.852   4.980  50.094  1.00  0.00     0.010 A 
HETATM    6  C20 UNL     1      25.644   5.905  49.436  1.00  0.00     0.015 A 
ENDROOT
BRANCH   4   7
HETATM    7  C11 UNL     1      24.404   2.651  50.906  1.00  0.00     0.206 C 
BRANCH   7   8
HETATM    8  O2  UNL     1      24.910   2.311  52.145  1.00  0.00    -0.382 OA
BRANCH   8   9
HETATM    9  C12 UNL     1      25.330   1.003  52.183  1.00  0.00     0.206 C 
BRANCH   9  10
HETATM   10  C13 UNL     1      26.695   0.878  52.751  1.00  0.00    -0.035 A 
HETATM   11  C14 UNL     1      27.394   2.022  53.113  1.00  0.00     0.009 A 
HETATM   12  C15 UNL     1      28.667   2.041  53.651  1.00  0.00     0.001 A 
HETATM   13  C16 UNL     1      29.274   0.812  53.835  1.00  0.00     0.000 A 
HETATM   14  C17 UNL     1      28.637  -0.353  53.499  1.00  0.00     0.001 A 
HETATM   15  C18 UNL     1      27.367  -0.311  52.966  1.00  0.00     0.009 A 
ENDBRANCH   9  10
ENDBRANCH   8   9
ENDBRANCH   7   8
ENDBRANCH   4   7
BRANCH   1  16
HETATM   16  C6  UNL     1      27.589   6.482  48.226  1.00  0.00     0.085 A 
HETATM   17  C2  UNL     1      28.949   6.826  47.928  1.00  0.00    -0.004 A 
HETATM   18  C1  UNL     1      28.616   7.944  47.268  1.00  0.00     0.214 A 
HETATM   19  O1  UNL     1      27.147   7.500  47.634  1.00  0.00    -0.346 OA
BRANCH  17  20
HETATM   20  C3  UNL     1      30.288   6.225  48.208  1.00  0.00     0.155 C 
BRANCH  20  21
HETATM   21  N1  UNL     1      31.250   7.275  48.237  1.00  0.00    -0.417 N 
HETATM   22  C4  UNL     1      32.342   7.099  47.317  1.00  0.00     0.142 C 
HETATM   23  C5  UNL     1      31.606   7.782  49.517  1.00  0.00     0.142 C 
ENDBRANCH  20  21
ENDBRANCH  17  20
ENDBRANCH   1  16
TORSDOF 7
ENDMDL
MODEL 8
REMARK VINA RESULT:      -6.7      2.492      7.417
REMARK  7 active torsions:
REMARK  status: ('A' for Active; 'I' for Inactive)
REMARK    1  A    between atoms: C2_2  and  C3_3 
REMARK    2  A    between atoms: C3_3  and  N1_4 
REMARK    3  A    between atoms: C6_7  and  C7_9 
REMARK    4  A    between atoms: C10_12  and  C11_13 
REMARK    5  A    between atoms: C11_13  and  O2_14 
REMARK    6  A    between atoms: O2_14  and  C12_15 
REMARK    7  A    between atoms: C12_15  and  C13_16 
ROOT
HETATM    1  C7  UNL     1      26.007   1.132  51.769  1.00  0.00    -0.002 A 
HETATM    2  C8  UNL     1      26.746   2.088  51.109  1.00  0.00     0.015 A 
HETATM    3  C9  UNL     1      26.184   3.240  50.605  1.00  0.00     0.010 A 
HETATM    4  C10 UNL     1      24.829   3.398  50.790  1.00  0.00    -0.035 A 
HETATM    5  C19 UNL     1      24.083   2.453  51.446  1.00  0.00     0.010 A 
HETATM    6  C20 UNL     1      24.664   1.301  51.946  1.00  0.00     0.015 A 
ENDROOT
BRANCH   4   7
HETATM    7  C11 UNL     1      24.233   4.646  50.242  1.00  0.00     0.206 C 
BRANCH   7   8
HETATM    8  O2  UNL     1      25.144   5.680  50.155  1.00  0.00    -0.382 OA
BRANCH   8   9
HETATM    9  C12 UNL     1      25.078   6.318  48.940  1.00  0.00     0.206 C 
BRANCH   9  10
HETATM   10  C13 UNL     1      26.427   6.562  48.371  1.00  0.00    -0.035 A 
HETATM   11  C14 UNL     1      26.634   7.659  47.544  1.00  0.00     0.009 A 
HETATM   12  C15 UNL     1      27.838   7.995  46.954  1.00  0.00     0.001 A 
HETATM   13  C16 UNL     1      28.907   7.159  47.221  1.00  0.00     0.000 A 
HETATM   14  C17 UNL     1      28.767   6.061  48.029  1.00  0.00     0.001 A 
HETATM   15  C18 UNL     1      27.542   5.775  48.591  1.00  0.00     0.009 A 
ENDBRANCH   9  10
ENDBRANCH   8   9
ENDBRANCH   7   8
ENDBRANCH   4   7
BRANCH   1  16
HETATM   16  C6  UNL     1      26.543  -0.084  52.313  1.00  0.00     0.085 A 
HETATM   17  C2  UNL     1      27.273  -0.564  53.450  1.00  0.00    -0.004 A 
HETATM   18  C1  UNL     1      27.276  -1.835  53.026  1.00  0.00     0.214 A 
HETATM   19  O1  UNL     1      26.476  -1.233  51.806  1.00  0.00    -0.346 OA
BRANCH  17  20
HETATM   20  C3  UNL     1      27.850   0.049  54.685  1.00  0.00     0.155 C 
BRANCH  20  21
HETATM   21  N1  UNL     1      29.079   0.677  54.337  1.00  0.00    -0.417 N 
HETATM   22  C4  UNL     1      28.950   2.062  53.969  1.00  0.00     0.142 C 
HETATM   23  C5  UNL     1      29.986  -0.081  53.547  1.00  0.00     0.142 C 
ENDBRANCH  20  21
ENDBRANCH  17  20
ENDBRANCH   1  16
TORSDOF 7
ENDMDL
MODEL 9
REMARK VINA RESULT:      -6.7      2.062      3.013
REMARK  7 active torsions:
REMARK  status: ('A' for Active; 'I' for Inactive)
REMARK    1  A    between atoms: C2_2  and  C3_3 
REMARK    2  A    between atoms: C3_3  and  N1_4 
REMARK    3  A    between atoms: C6_7  and  C7_9 
REMARK    4  A    between atoms: C10_12  and  C11_13 
REMARK    5  A    between atoms: C11_13  and  O2_14 
REMARK    6  A    between atoms: O2_14  and  C12_15 
REMARK    7  A    between atoms: C12_15  and  C13_16 
ROOT
HETATM    1  C7  UNL     1      26.424   5.770  48.927  1.00  0.00    -0.002 A 
HETATM    2  C8  UNL     1      25.264   5.823  49.665  1.00  0.00     0.015 A 
HETATM    3  C9  UNL     1      24.815   4.758  50.413  1.00  0.00     0.010 A 
HETATM    4  C10 UNL     1      25.588   3.618  50.392  1.00  0.00    -0.035 A 
HETATM    5  C19 UNL     1      26.745   3.555  49.660  1.00  0.00     0.010 A 
HETATM    6  C20 UNL     1      27.182   4.635  48.914  1.00  0.00     0.015 A 
ENDROOT
BRANCH   4   7
HETATM    7  C11 UNL     1      25.093   2.474  51.205  1.00  0.00     0.206 C 
BRANCH   7   8
HETATM    8  O2  UNL     1      26.064   1.520  51.433  1.00  0.00    -0.382 OA
BRANCH   8   9
HETATM    9  C12 UNL     1      26.253   1.295  52.775  1.00  0.00     0.206 C 
BRANCH   9  10
HETATM   10  C13 UNL     1      27.458   0.468  53.031  1.00  0.00    -0.035 A 
HETATM   11  C14 UNL     1      27.391  -0.910  52.868  1.00  0.00     0.009 A 
HETATM   12  C15 UNL     1      28.439  -1.788  53.074  1.00  0.00     0.001 A 
HETATM   13  C16 UNL     1      29.639  -1.229  53.474  1.00  0.00     0.000 A 
HETATM   14  C17 UNL     1      29.769   0.123  53.652  1.00  0.00     0.001 A 
HETATM   15  C18 UNL     1      28.690   0.951  53.432  1.00  0.00     0.009 A 
ENDBRANCH   9  10
ENDBRANCH   8   9
ENDBRANCH   7   8
ENDBRANCH   4   7
BRANCH   1  16
HETATM   16  C6  UNL     1      26.936   6.850  48.131  1.00  0.00     0.085 A 
HETATM   17  C2  UNL     1      28.164   7.537  47.850  1.00  0.00    -0.004 A 
HETATM   18  C1  UNL     1      27.595   8.387  46.984  1.00  0.00     0.214 A 
HETATM   19  O1  UNL     1      26.285   7.584  47.343  1.00  0.00    -0.346 OA
BRANCH  17  20
HETATM   20  C3  UNL     1      29.582   7.418  48.304  1.00  0.00     0.155 C 
BRANCH  20  21
HETATM   21  N1  UNL     1      30.289   6.625  47.357  1.00  0.00    -0.417 N 
HETATM   22  C4  UNL     1      30.786   5.381  47.883  1.00  0.00     0.142 C 
HETATM   23  C5  UNL     1      31.170   7.311  46.477  1.00  0.00     0.142 C 
ENDBRANCH  20  21
ENDBRANCH  17  20
ENDBRANCH   1  16
TORSDOF 7
ENDMDL
