MODEL 1
REMARK VINA RESULT:      -8.0      0.000      0.000
REMARK  6 active torsions:
REMARK  status: ('A' for Active; 'I' for Inactive)
REMARK    1  A    between atoms: O1_2  and  C2_3 
REMARK    2  A    between atoms: C2_3  and  C3_4 
REMARK    3  A    between atoms: C3_4  and  O2_5 
REMARK    4  A    between atoms: O2_5  and  C4_6 
REMARK    5  A    between atoms: C9_13  and  O3_14 
REMARK    6  A    between atoms: O3_14  and  C10_15 
ROOT
HETATM    1  C4  UNL     1      24.341   3.545  51.991  1.00  0.00     0.079 C 
HETATM    2  C5  UNL     1      24.328   3.058  53.296  1.00  0.00     0.056 C 
HETATM    3  C6  UNL     1      25.377   2.173  53.234  1.00  0.00     0.120 C 
HETATM    4  N1  UNL     1      25.524   1.166  52.383  1.00  0.00    -0.261 NA
HETATM    5  C7  UNL     1      26.326   0.669  51.412  1.00  0.00     0.181 C 
HETATM    6  N2  UNL     1      27.220   0.838  52.342  1.00  0.00    -0.223 NA
HETATM    7  C8  UNL     1      27.342   2.334  52.469  1.00  0.00     0.144 A 
HETATM    8  C9  UNL     1      26.371   2.746  51.405  1.00  0.00     0.086 C 
HETATM    9  C11 UNL     1      24.928   2.427  51.299  1.00  0.00     0.010 C 
HETATM   10  C12 UNL     1      23.708   1.680  50.989  1.00  0.00     0.074 C 
HETATM   11  C13 UNL     1      23.032   0.725  52.020  1.00  0.00     0.022 C 
HETATM   12  C14 UNL     1      22.998  -0.045  53.193  1.00  0.00     0.134 C 
HETATM   13  F1  UNL     1      21.738  -0.632  53.296  1.00  0.00    -0.205 F 
HETATM   14  C15 UNL     1      23.915  -0.564  54.272  1.00  0.00     0.070 C 
HETATM   15 CL1  UNL     1      22.825  -1.347  55.465  1.00  0.00    -0.081 Cl
HETATM   16  C16 UNL     1      25.238  -0.714  54.833  1.00  0.00     0.030 C 
HETATM   17  C17 UNL     1      26.505  -0.216  54.253  1.00  0.00     0.301 C 
HETATM   18  N3  UNL     1      27.408   0.870  54.594  1.00  0.00     0.107 NA
HETATM   19  C18 UNL     1      28.100   1.464  53.316  1.00  0.00     0.334 A 
HETATM   20  H19 UNL     1      28.163   0.701  55.231  1.00  0.00     0.318 HD
ENDROOT
BRANCH   1  21
HETATM   21  O2  UNL     1      24.044   4.581  51.154  1.00  0.00    -0.348 OA
BRANCH  21  22
HETATM   22  C3  UNL     1      23.268   5.710  51.494  1.00  0.00     0.201 C 
BRANCH  22  23
HETATM   23  C2  UNL     1      23.950   6.966  51.013  1.00  0.00     0.193 C 
BRANCH  23  24
HETATM   24  O1  UNL     1      25.274   6.730  50.711  1.00  0.00    -0.394 OA
HETATM   25  C1  UNL     1      25.919   7.815  50.124  1.00  0.00     0.201 C 
ENDBRANCH  23  24
ENDBRANCH  22  23
ENDBRANCH  21  22
ENDBRANCH   1  21
BRANCH   8  26
HETATM   26  O3  UNL     1      27.023   3.494  50.485  1.00  0.00    -0.342 OA
BRANCH  26  27
HETATM   27  C10 UNL     1      26.748   3.840  49.186  1.00  0.00     0.260 C 
HETATM   28 BR1  UNL     1      28.074   5.125  48.587  1.00  0.00    -0.067 Br
ENDBRANCH  26  27
ENDBRANCH   8  26
TORSDOF 6
ENDMDL
MODEL 2
REMARK VINA RESULT:      -7.6      4.233      6.305
REMARK  6 active torsions:
REMARK  status: ('A' for Active; 'I' for Inactive)
REMARK    1  A    between atoms: O1_2  and  C2_3 
REMARK    2  A    between atoms: C2_3  and  C3_4 
REMARK    3  A    between atoms: C3_4  and  O2_5 
REMARK    4  A    between atoms: O2_5  and  C4_6 
REMARK    5  A    between atoms: C9_13  and  O3_14 
REMARK    6  A    between atoms: O3_14  and  C10_15 
ROOT
HETATM    1  C4  UNL     1      25.445   1.318  53.426  1.00  0.00     0.079 C 
HETATM    2  C5  UNL     1      25.226   2.694  53.442  1.00  0.00     0.056 C 
HETATM    3  C6  UNL     1      24.058   2.759  52.721  1.00  0.00     0.120 C 
HETATM    4  N1  UNL     1      23.845   2.286  51.499  1.00  0.00    -0.261 NA
HETATM    5  C7  UNL     1      23.090   1.420  50.783  1.00  0.00     0.181 C 
HETATM    6  N2  UNL     1      22.135   2.075  51.377  1.00  0.00    -0.223 NA
HETATM    7  C8  UNL     1      22.250   1.667  52.822  1.00  0.00     0.144 A 
HETATM    8  C9  UNL     1      23.393   0.705  52.711  1.00  0.00     0.086 C 
HETATM    9  C11 UNL     1      24.765   0.957  52.211  1.00  0.00     0.010 C 
HETATM   10  C12 UNL     1      25.871   1.126  51.267  1.00  0.00     0.074 C 
HETATM   11  C13 UNL     1      26.253   2.516  50.674  1.00  0.00     0.022 C 
HETATM   12  C14 UNL     1      26.023   3.868  50.377  1.00  0.00     0.134 C 
HETATM   13  F1  UNL     1      27.146   4.373  49.725  1.00  0.00    -0.205 F 
HETATM   14  C15 UNL     1      24.912   4.890  50.389  1.00  0.00     0.070 C 
HETATM   15 CL1  UNL     1      25.711   6.442  49.966  1.00  0.00    -0.081 Cl
HETATM   16  C16 UNL     1      23.528   5.239  50.603  1.00  0.00     0.030 C 
HETATM   17  C17 UNL     1      22.437   4.322  51.003  1.00  0.00     0.301 C 
HETATM   18  N3  UNL     1      21.694   4.119  52.235  1.00  0.00     0.107 NA
HETATM   19  C18 UNL     1      21.264   2.619  52.407  1.00  0.00     0.334 A 
HETATM   20  H19 UNL     1      20.853   4.639  52.394  1.00  0.00     0.318 HD
ENDROOT
BRANCH   1  21
HETATM   21  O2  UNL     1      26.006   0.242  54.052  1.00  0.00    -0.348 OA
BRANCH  21  22
HETATM   22  C3  UNL     1      26.927   0.306  55.120  1.00  0.00     0.201 C 
BRANCH  22  23
HETATM   23  C2  UNL     1      28.336   0.342  54.583  1.00  0.00     0.193 C 
BRANCH  23  24
HETATM   24  O1  UNL     1      28.925   1.568  54.810  1.00  0.00    -0.394 OA
HETATM   25  C1  UNL     1      28.874   2.427  53.717  1.00  0.00     0.201 C 
ENDBRANCH  23  24
ENDBRANCH  22  23
ENDBRANCH  21  22
ENDBRANCH   1  21
BRANCH   8  26
HETATM   26  O3  UNL     1      22.986  -0.508  53.148  1.00  0.00    -0.342 OA
BRANCH  26  27
HETATM   27  C10 UNL     1      22.509  -0.965  54.352  1.00  0.00     0.260 C 
HETATM   28 BR1  UNL     1      20.625  -1.388  54.158  1.00  0.00    -0.067 Br
ENDBRANCH  26  27
ENDBRANCH   8  26
TORSDOF 6
ENDMDL
MODEL 3
REMARK VINA RESULT:      -7.4      4.161      6.543
REMARK  6 active torsions:
REMARK  status: ('A' for Active; 'I' for Inactive)
REMARK    1  A    between atoms: O1_2  and  C2_3 
REMARK    2  A    between atoms: C2_3  and  C3_4 
REMARK    3  A    between atoms: C3_4  and  O2_5 
REMARK    4  A    between atoms: O2_5  and  C4_6 
REMARK    5  A    between atoms: C9_13  and  O3_14 
REMARK    6  A    between atoms: O3_14  and  C10_15 
ROOT
HETATM    1  C4  UNL     1      25.103   1.824  53.090  1.00  0.00     0.079 C 
HETATM    2  C5  UNL     1      24.570   3.078  53.381  1.00  0.00     0.056 C 
HETATM    3  C6  UNL     1      23.358   2.978  52.742  1.00  0.00     0.120 C 
HETATM    4  N1  UNL     1      23.150   2.689  51.463  1.00  0.00    -0.261 NA
HETATM    5  C7  UNL     1      22.556   1.802  50.630  1.00  0.00     0.181 C 
HETATM    6  N2  UNL     1      21.532   2.087  51.383  1.00  0.00    -0.223 NA
HETATM    7  C8  UNL     1      21.872   1.473  52.715  1.00  0.00     0.144 A 
HETATM    8  C9  UNL     1      23.194   0.858  52.367  1.00  0.00     0.086 C 
HETATM    9  C11 UNL     1      24.417   1.525  51.861  1.00  0.00     0.010 C 
HETATM   10  C12 UNL     1      25.360   2.124  50.917  1.00  0.00     0.074 C 
HETATM   11  C13 UNL     1      25.350   3.648  50.585  1.00  0.00     0.022 C 
HETATM   12  C14 UNL     1      24.783   4.931  50.565  1.00  0.00     0.134 C 
HETATM   13  F1  UNL     1      25.693   5.804  49.970  1.00  0.00    -0.205 F 
HETATM   14  C15 UNL     1      23.471   5.628  50.825  1.00  0.00     0.070 C 
HETATM   15 CL1  UNL     1      23.842   7.379  50.671  1.00  0.00    -0.081 Cl
HETATM   16  C16 UNL     1      22.069   5.581  51.167  1.00  0.00     0.030 C 
HETATM   17  C17 UNL     1      21.265   4.368  51.434  1.00  0.00     0.301 C 
HETATM   18  N3  UNL     1      20.707   3.775  52.638  1.00  0.00     0.107 NA
HETATM   19  C18 UNL     1      20.658   2.209  52.538  1.00  0.00     0.334 A 
HETATM   20  H19 UNL     1      19.786   4.035  52.933  1.00  0.00     0.318 HD
ENDROOT
BRANCH   1  21
HETATM   21  O2  UNL     1      25.955   0.828  53.471  1.00  0.00    -0.348 OA
BRANCH  21  22
HETATM   22  C3  UNL     1      26.369   0.567  54.794  1.00  0.00     0.201 C 
BRANCH  22  23
HETATM   23  C2  UNL     1      27.828   0.184  54.811  1.00  0.00     0.193 C 
BRANCH  23  24
HETATM   24  O1  UNL     1      28.064  -0.912  54.008  1.00  0.00    -0.394 OA
HETATM   25  C1  UNL     1      29.384  -1.022  53.580  1.00  0.00     0.201 C 
ENDBRANCH  23  24
ENDBRANCH  22  23
ENDBRANCH  21  22
ENDBRANCH   1  21
BRANCH   8  26
HETATM   26  O3  UNL     1      23.124  -0.475  52.582  1.00  0.00    -0.342 OA
BRANCH  26  27
HETATM   27  C10 UNL     1      22.285  -1.268  53.325  1.00  0.00     0.260 C 
HETATM   28 BR1  UNL     1      22.887  -1.258  55.170  1.00  0.00    -0.067 Br
ENDBRANCH  26  27
ENDBRANCH   8  26
TORSDOF 6
ENDMDL
MODEL 4
REMARK VINA RESULT:      -6.9      4.215      5.770
REMARK  6 active torsions:
REMARK  status: ('A' for Active; 'I' for Inactive)
REMARK    1  A    between atoms: O1_2  and  C2_3 
REMARK    2  A    between atoms: C2_3  and  C3_4 
REMARK    3  A    between atoms: C3_4  and  O2_5 
REMARK    4  A    between atoms: O2_5  and  C4_6 
REMARK    5  A    between atoms: C9_13  and  O3_14 
REMARK    6  A    between atoms: O3_14  and  C10_15 
ROOT
HETATM    1  C4  UNL     1      21.813   1.917  51.263  1.00  0.00     0.079 C 
HETATM    2  C5  UNL     1      22.796   1.963  50.277  1.00  0.00     0.056 C 
HETATM    3  C6  UNL     1      23.924   1.907  51.060  1.00  0.00     0.120 C 
HETATM    4  N1  UNL     1      24.249   2.724  52.054  1.00  0.00    -0.261 NA
HETATM    5  C7  UNL     1      24.521   2.773  53.379  1.00  0.00     0.181 C 
HETATM    6  N2  UNL     1      25.360   1.839  53.036  1.00  0.00    -0.223 NA
HETATM    7  C8  UNL     1      24.484   0.667  52.680  1.00  0.00     0.144 A 
HETATM    8  C9  UNL     1      23.143   1.272  52.969  1.00  0.00     0.086 C 
HETATM    9  C11 UNL     1      22.529   2.482  52.376  1.00  0.00     0.010 C 
HETATM   10  C12 UNL     1      22.218   3.896  52.158  1.00  0.00     0.074 C 
HETATM   11  C13 UNL     1      23.022   4.779  51.154  1.00  0.00     0.022 C 
HETATM   12  C14 UNL     1      24.117   5.071  50.328  1.00  0.00     0.134 C 
HETATM   13  F1  UNL     1      23.887   6.300  49.712  1.00  0.00    -0.205 F 
HETATM   14  C15 UNL     1      25.508   4.575  50.019  1.00  0.00     0.070 C 
HETATM   15 CL1  UNL     1      26.055   5.573  48.630  1.00  0.00    -0.081 Cl
HETATM   16  C16 UNL     1      26.605   3.670  50.272  1.00  0.00     0.030 C 
HETATM   17  C17 UNL     1      26.656   2.611  51.304  1.00  0.00     0.301 C 
HETATM   18  N3  UNL     1      26.584   1.160  51.262  1.00  0.00     0.107 NA
HETATM   19  C18 UNL     1      25.907   0.581  52.554  1.00  0.00     0.334 A 
HETATM   20  H19 UNL     1      27.427   0.628  51.161  1.00  0.00     0.318 HD
ENDROOT
BRANCH   1  21
HETATM   21  O2  UNL     1      20.530   1.577  51.583  1.00  0.00    -0.348 OA
BRANCH  21  22
HETATM   22  C3  UNL     1      19.390   1.863  50.803  1.00  0.00     0.201 C 
BRANCH  22  23
HETATM   23  C2  UNL     1      18.287   2.398  51.682  1.00  0.00     0.193 C 
BRANCH  23  24
HETATM   24  O1  UNL     1      18.370   3.769  51.806  1.00  0.00    -0.394 OA
HETATM   25  C1  UNL     1      18.738   4.419  50.632  1.00  0.00     0.201 C 
ENDBRANCH  23  24
ENDBRANCH  22  23
ENDBRANCH  21  22
ENDBRANCH   1  21
BRANCH   8  26
HETATM   26  O3  UNL     1      22.524   0.525  53.912  1.00  0.00    -0.342 OA
BRANCH  26  27
HETATM   27  C10 UNL     1      22.629  -0.789  54.293  1.00  0.00     0.260 C 
HETATM   28 BR1  UNL     1      20.869  -1.605  54.219  1.00  0.00    -0.067 Br
ENDBRANCH  26  27
ENDBRANCH   8  26
TORSDOF 6
ENDMDL
MODEL 5
REMARK VINA RESULT:      -6.7      3.515      4.658
REMARK  6 active torsions:
REMARK  status: ('A' for Active; 'I' for Inactive)
REMARK    1  A    between atoms: O1_2  and  C2_3 
REMARK    2  A    between atoms: C2_3  and  C3_4 
REMARK    3  A    between atoms: C3_4  and  O2_5 
REMARK    4  A    between atoms: O2_5  and  C4_6 
REMARK    5  A    between atoms: C9_13  and  O3_14 
REMARK    6  A    between atoms: O3_14  and  C10_15 
ROOT
HETATM    1  C4  UNL     1      22.186   2.621  51.761  1.00  0.00     0.079 C 
HETATM    2  C5  UNL     1      21.035   2.434  52.524  1.00  0.00     0.056 C 
HETATM    3  C6  UNL     1      21.252   1.156  52.978  1.00  0.00     0.120 C 
HETATM    4  N1  UNL     1      21.483   0.075  52.244  1.00  0.00    -0.261 NA
HETATM    5  C7  UNL     1      22.383  -0.907  52.004  1.00  0.00     0.181 C 
HETATM    6  N2  UNL     1      22.286  -1.035  53.296  1.00  0.00    -0.223 NA
HETATM    7  C8  UNL     1      22.936   0.209  53.840  1.00  0.00     0.144 A 
HETATM    8  C9  UNL     1      23.346   0.852  52.550  1.00  0.00     0.086 C 
HETATM    9  C11 UNL     1      22.493   1.260  51.410  1.00  0.00     0.010 C 
HETATM   10  C12 UNL     1      21.713   1.157  50.175  1.00  0.00     0.074 C 
HETATM   11  C13 UNL     1      20.186   0.843  50.179  1.00  0.00     0.022 C 
HETATM   12  C14 UNL     1      18.990   0.401  50.765  1.00  0.00     0.134 C 
HETATM   13  F1  UNL     1      17.968   0.526  49.826  1.00  0.00    -0.205 F 
HETATM   14  C15 UNL     1      18.491  -0.304  52.003  1.00  0.00     0.070 C 
HETATM   15 CL1  UNL     1      16.701  -0.241  51.876  1.00  0.00    -0.081 Cl
HETATM   16  C16 UNL     1      18.745  -0.978  53.254  1.00  0.00     0.030 C 
HETATM   17  C17 UNL     1      20.069  -1.264  53.850  1.00  0.00     0.301 C 
HETATM   18  N3  UNL     1      20.808  -0.713  54.974  1.00  0.00     0.107 NA
HETATM   19  C18 UNL     1      22.356  -0.758  54.721  1.00  0.00     0.334 A 
HETATM   20  H19 UNL     1      20.691  -1.114  55.884  1.00  0.00     0.318 HD
ENDROOT
BRANCH   1  21
HETATM   21  O2  UNL     1      23.083   3.510  51.244  1.00  0.00    -0.348 OA
BRANCH  21  22
HETATM   22  C3  UNL     1      22.764   4.600  50.407  1.00  0.00     0.201 C 
BRANCH  22  23
HETATM   23  C2  UNL     1      22.742   5.876  51.210  1.00  0.00     0.193 C 
BRANCH  23  24
HETATM   24  O1  UNL     1      24.004   6.209  51.655  1.00  0.00    -0.394 OA
HETATM   25  C1  UNL     1      24.759   6.918  50.725  1.00  0.00     0.201 C 
ENDBRANCH  23  24
ENDBRANCH  22  23
ENDBRANCH  21  22
ENDBRANCH   1  21
BRANCH   8  26
HETATM   26  O3  UNL     1      24.689   1.018  52.555  1.00  0.00    -0.342 OA
BRANCH  26  27
HETATM   27  C10 UNL     1      25.686   0.613  53.406  1.00  0.00     0.260 C 
HETATM   28 BR1  UNL     1      26.612  -0.897  52.612  1.00  0.00    -0.067 Br
ENDBRANCH  26  27
ENDBRANCH   8  26
TORSDOF 6
ENDMDL
MODEL 6
REMARK VINA RESULT:      -6.6      3.685      6.049
REMARK  6 active torsions:
REMARK  status: ('A' for Active; 'I' for Inactive)
REMARK    1  A    between atoms: O1_2  and  C2_3 
REMARK    2  A    between atoms: C2_3  and  C3_4 
REMARK    3  A    between atoms: C3_4  and  O2_5 
REMARK    4  A    between atoms: O2_5  and  C4_6 
REMARK    5  A    between atoms: C9_13  and  O3_14 
REMARK    6  A    between atoms: O3_14  and  C10_15 
ROOT
HETATM    1  C4  UNL     1      22.788  -0.328  53.075  1.00  0.00     0.079 C 
HETATM    2  C5  UNL     1      21.980  -0.904  52.096  1.00  0.00     0.056 C 
HETATM    3  C6  UNL     1      21.505   0.229  51.480  1.00  0.00     0.120 C 
HETATM    4  N1  UNL     1      20.863   1.240  52.052  1.00  0.00    -0.261 NA
HETATM    5  C7  UNL     1      20.917   2.573  52.284  1.00  0.00     0.181 C 
HETATM    6  N2  UNL     1      21.084   2.587  50.993  1.00  0.00    -0.223 NA
HETATM    7  C8  UNL     1      22.452   1.990  50.792  1.00  0.00     0.144 A 
HETATM    8  C9  UNL     1      22.829   1.763  52.224  1.00  0.00     0.086 C 
HETATM    9  C11 UNL     1      22.133   0.943  53.242  1.00  0.00     0.010 C 
HETATM   10  C12 UNL     1      21.170   0.572  54.280  1.00  0.00     0.074 C 
HETATM   11  C13 UNL     1      19.811  -0.116  53.947  1.00  0.00     0.022 C 
HETATM   12  C14 UNL     1      18.775  -0.513  53.088  1.00  0.00     0.134 C 
HETATM   13  F1  UNL     1      17.832  -1.219  53.833  1.00  0.00    -0.205 F 
HETATM   14  C15 UNL     1      18.280  -0.290  51.680  1.00  0.00     0.070 C 
HETATM   15 CL1  UNL     1      16.909  -1.435  51.488  1.00  0.00    -0.081 Cl
HETATM   16  C16 UNL     1      18.386   0.371  50.400  1.00  0.00     0.030 C 
HETATM   17  C17 UNL     1      19.381   1.396  50.015  1.00  0.00     0.301 C 
HETATM   18  N3  UNL     1      20.550   1.389  49.153  1.00  0.00     0.107 NA
HETATM   19  C18 UNL     1      21.652   2.380  49.671  1.00  0.00     0.334 A 
HETATM   20  H19 UNL     1      20.448   1.614  48.182  1.00  0.00     0.318 HD
ENDROOT
BRANCH   1  21
HETATM   21  O2  UNL     1      23.875  -0.469  53.888  1.00  0.00    -0.348 OA
BRANCH  21  22
HETATM   22  C3  UNL     1      25.207  -0.633  53.451  1.00  0.00     0.201 C 
BRANCH  22  23
HETATM   23  C2  UNL     1      26.147   0.080  54.389  1.00  0.00     0.193 C 
BRANCH  23  24
HETATM   24  O1  UNL     1      27.390  -0.517  54.399  1.00  0.00    -0.394 OA
HETATM   25  C1  UNL     1      27.943  -0.687  53.133  1.00  0.00     0.201 C 
ENDBRANCH  23  24
ENDBRANCH  22  23
ENDBRANCH  21  22
ENDBRANCH   1  21
BRANCH   8  26
HETATM   26  O3  UNL     1      23.961   2.454  52.491  1.00  0.00    -0.342 OA
BRANCH  26  27
HETATM   27  C10 UNL     1      24.757   3.286  51.743  1.00  0.00     0.260 C 
HETATM   28 BR1  UNL     1      26.362   2.323  51.232  1.00  0.00    -0.067 Br
ENDBRANCH  26  27
ENDBRANCH   8  26
TORSDOF 6
ENDMDL
MODEL 7
REMARK VINA RESULT:      -6.5      7.863     10.151
REMARK  6 active torsions:
REMARK  status: ('A' for Active; 'I' for Inactive)
REMARK    1  A    between atoms: O1_2  and  C2_3 
REMARK    2  A    between atoms: C2_3  and  C3_4 
REMARK    3  A    between atoms: C3_4  and  O2_5 
REMARK    4  A    between atoms: O2_5  and  C4_6 
REMARK    5  A    between atoms: C9_13  and  O3_14 
REMARK    6  A    between atoms: O3_14  and  C10_15 
ROOT
HETATM    1  C4  UNL     1      31.745   7.100  46.004  1.00  0.00     0.079 C 
HETATM    2  C5  UNL     1      30.445   7.599  45.971  1.00  0.00     0.056 C 
HETATM    3  C6  UNL     1      30.435   8.318  47.141  1.00  0.00     0.120 C 
HETATM    4  N1  UNL     1      30.710   7.868  48.359  1.00  0.00    -0.261 NA
HETATM    5  C7  UNL     1      31.542   8.025  49.416  1.00  0.00     0.181 C 
HETATM    6  N2  UNL     1      31.158   9.261  49.277  1.00  0.00    -0.223 NA
HETATM    7  C8  UNL     1      31.794   9.702  47.985  1.00  0.00     0.144 A 
HETATM    8  C9  UNL     1      32.532   8.445  47.638  1.00  0.00     0.086 C 
HETATM    9  C11 UNL     1      31.986   7.084  47.422  1.00  0.00     0.010 C 
HETATM   10  C12 UNL     1      31.483   5.744  47.729  1.00  0.00     0.074 C 
HETATM   11  C13 UNL     1      29.967   5.456  47.953  1.00  0.00     0.022 C 
HETATM   12  C14 UNL     1      28.636   5.824  48.204  1.00  0.00     0.134 C 
HETATM   13  F1  UNL     1      27.855   4.669  48.214  1.00  0.00    -0.205 F 
HETATM   14  C15 UNL     1      27.818   7.022  48.617  1.00  0.00     0.070 C 
HETATM   15 CL1  UNL     1      26.110   6.480  48.485  1.00  0.00    -0.081 Cl
HETATM   16  C16 UNL     1      27.731   8.401  49.038  1.00  0.00     0.030 C 
HETATM   17  C17 UNL     1      28.862   9.326  49.270  1.00  0.00     0.301 C 
HETATM   18  N3  UNL     1      29.393  10.468  48.545  1.00  0.00     0.107 NA
HETATM   19  C18 UNL     1      30.948  10.589  48.723  1.00  0.00     0.334 A 
HETATM   20  H19 UNL     1      29.046  11.385  48.748  1.00  0.00     0.318 HD
ENDROOT
BRANCH   1  21
HETATM   21  O2  UNL     1      32.815   6.647  45.286  1.00  0.00    -0.348 OA
BRANCH  21  22
HETATM   22  C3  UNL     1      32.744   5.800  44.160  1.00  0.00     0.201 C 
BRANCH  22  23
HETATM   23  C2  UNL     1      33.709   4.651  44.319  1.00  0.00     0.193 C 
BRANCH  23  24
HETATM   24  O1  UNL     1      34.478   4.800  45.454  1.00  0.00    -0.394 OA
HETATM   25  C1  UNL     1      34.802   3.598  46.075  1.00  0.00     0.201 C 
ENDBRANCH  23  24
ENDBRANCH  22  23
ENDBRANCH  21  22
ENDBRANCH   1  21
BRANCH   8  26
HETATM   26  O3  UNL     1      33.852   8.725  47.547  1.00  0.00    -0.342 OA
BRANCH  26  27
HETATM   27  C10 UNL     1      34.917   8.538  48.393  1.00  0.00     0.260 C 
HETATM   28 BR1  UNL     1      35.290   6.637  48.517  1.00  0.00    -0.067 Br
ENDBRANCH  26  27
ENDBRANCH   8  26
TORSDOF 6
ENDMDL
MODEL 8
REMARK VINA RESULT:      -6.5      7.764     10.658
REMARK  6 active torsions:
REMARK  status: ('A' for Active; 'I' for Inactive)
REMARK    1  A    between atoms: O1_2  and  C2_3 
REMARK    2  A    between atoms: C2_3  and  C3_4 
REMARK    3  A    between atoms: C3_4  and  O2_5 
REMARK    4  A    between atoms: O2_5  and  C4_6 
REMARK    5  A    between atoms: C9_13  and  O3_14 
REMARK    6  A    between atoms: O3_14  and  C10_15 
ROOT
HETATM    1  C4  UNL     1      31.117   6.196  48.349  1.00  0.00     0.079 C 
HETATM    2  C5  UNL     1      31.555   7.349  48.998  1.00  0.00     0.056 C 
HETATM    3  C6  UNL     1      30.462   8.160  48.811  1.00  0.00     0.120 C 
HETATM    4  N1  UNL     1      29.894   8.484  47.655  1.00  0.00    -0.261 NA
HETATM    5  C7  UNL     1      28.739   8.418  46.953  1.00  0.00     0.181 C 
HETATM    6  N2  UNL     1      28.278   8.950  48.048  1.00  0.00    -0.223 NA
HETATM    7  C8  UNL     1      28.385   7.846  49.067  1.00  0.00     0.144 A 
HETATM    8  C9  UNL     1      28.937   6.762  48.192  1.00  0.00     0.086 C 
HETATM    9  C11 UNL     1      30.191   6.761  47.404  1.00  0.00     0.010 C 
HETATM   10  C12 UNL     1      31.115   7.012  46.296  1.00  0.00     0.074 C 
HETATM   11  C13 UNL     1      32.007   8.289  46.229  1.00  0.00     0.022 C 
HETATM   12  C14 UNL     1      32.382   9.587  46.607  1.00  0.00     0.134 C 
HETATM   13  F1  UNL     1      33.514   9.947  45.877  1.00  0.00    -0.205 F 
HETATM   14  C15 UNL     1      31.874  10.758  47.411  1.00  0.00     0.070 C 
HETATM   15 CL1  UNL     1      33.229  11.937  47.412  1.00  0.00    -0.081 Cl
HETATM   16  C16 UNL     1      30.845  11.385  48.206  1.00  0.00     0.030 C 
HETATM   17  C17 UNL     1      29.520  10.817  48.543  1.00  0.00     0.301 C 
HETATM   18  N3  UNL     1      28.939  10.271  49.757  1.00  0.00     0.107 NA
HETATM   19  C18 UNL     1      27.899   9.140  49.438  1.00  0.00     0.334 A 
HETATM   20  H19 UNL     1      28.458  10.881  50.390  1.00  0.00     0.318 HD
ENDROOT
BRANCH   1  21
HETATM   21  O2  UNL     1      31.203   4.837  48.251  1.00  0.00    -0.348 OA
BRANCH  21  22
HETATM   22  C3  UNL     1      32.358   4.116  47.881  1.00  0.00     0.201 C 
BRANCH  22  23
HETATM   23  C2  UNL     1      32.096   3.339  46.615  1.00  0.00     0.193 C 
BRANCH  23  24
HETATM   24  O1  UNL     1      32.737   3.911  45.537  1.00  0.00    -0.394 OA
HETATM   25  C1  UNL     1      33.906   4.588  45.873  1.00  0.00     0.201 C 
ENDBRANCH  23  24
ENDBRANCH  22  23
ENDBRANCH  21  22
ENDBRANCH   1  21
BRANCH   8  26
HETATM   26  O3  UNL     1      28.083   5.713  48.207  1.00  0.00    -0.342 OA
BRANCH  26  27
HETATM   27  C10 UNL     1      26.797   5.550  48.661  1.00  0.00     0.260 C 
HETATM   28 BR1  UNL     1      26.650   3.813  49.512  1.00  0.00    -0.067 Br
ENDBRANCH  26  27
ENDBRANCH   8  26
TORSDOF 6
ENDMDL
MODEL 9
REMARK VINA RESULT:      -6.5      2.906      4.883
REMARK  6 active torsions:
REMARK  status: ('A' for Active; 'I' for Inactive)
REMARK    1  A    between atoms: O1_2  and  C2_3 
REMARK    2  A    between atoms: C2_3  and  C3_4 
REMARK    3  A    between atoms: C3_4  and  O2_5 
REMARK    4  A    between atoms: O2_5  and  C4_6 
REMARK    5  A    between atoms: C9_13  and  O3_14 
REMARK    6  A    between atoms: O3_14  and  C10_15 
ROOT
HETATM    1  C4  UNL     1      24.479   3.671  50.322  1.00  0.00     0.079 C 
HETATM    2  C5  UNL     1      23.797   2.478  50.092  1.00  0.00     0.056 C 
HETATM    3  C6  UNL     1      22.533   2.844  50.485  1.00  0.00     0.120 C 
HETATM    4  N1  UNL     1      22.174   3.344  51.661  1.00  0.00    -0.261 NA
HETATM    5  C7  UNL     1      21.611   4.418  52.261  1.00  0.00     0.181 C 
HETATM    6  N2  UNL     1      20.688   4.177  51.375  1.00  0.00    -0.223 NA
HETATM    7  C8  UNL     1      21.334   4.534  50.063  1.00  0.00     0.144 A 
HETATM    8  C9  UNL     1      22.667   4.997  50.567  1.00  0.00     0.086 C 
HETATM    9  C11 UNL     1      23.665   4.243  51.362  1.00  0.00     0.010 C 
HETATM   10  C12 UNL     1      24.332   3.659  52.526  1.00  0.00     0.074 C 
HETATM   11  C13 UNL     1      24.015   2.217  53.030  1.00  0.00     0.022 C 
HETATM   12  C14 UNL     1      23.246   1.046  53.101  1.00  0.00     0.134 C 
HETATM   13  F1  UNL     1      23.891   0.147  53.950  1.00  0.00    -0.205 F 
HETATM   14  C15 UNL     1      21.895   0.514  52.692  1.00  0.00     0.070 C 
HETATM   15 CL1  UNL     1      21.939  -1.230  53.118  1.00  0.00    -0.081 Cl
HETATM   16  C16 UNL     1      20.593   0.712  52.099  1.00  0.00     0.030 C 
HETATM   17  C17 UNL     1      20.056   1.976  51.549  1.00  0.00     0.301 C 
HETATM   18  N3  UNL     1      19.804   2.460  50.202  1.00  0.00     0.107 NA
HETATM   19  C18 UNL     1      20.001   4.014  50.104  1.00  0.00     0.334 A 
HETATM   20  H19 UNL     1      18.911   2.294  49.778  1.00  0.00     0.318 HD
ENDROOT
BRANCH   1  21
HETATM   21  O2  UNL     1      25.535   4.468  49.986  1.00  0.00    -0.348 OA
BRANCH  21  22
HETATM   22  C3  UNL     1      26.732   4.028  49.382  1.00  0.00     0.201 C 
BRANCH  22  23
HETATM   23  C2  UNL     1      27.379   5.166  48.633  1.00  0.00     0.193 C 
BRANCH  23  24
HETATM   24  O1  UNL     1      28.744   4.994  48.548  1.00  0.00    -0.394 OA
HETATM   25  C1  UNL     1      29.422   6.108  48.060  1.00  0.00     0.201 C 
ENDBRANCH  23  24
ENDBRANCH  22  23
ENDBRANCH  21  22
ENDBRANCH   1  21
BRANCH   8  26
HETATM   26  O3  UNL     1      22.856   6.281  50.186  1.00  0.00    -0.342 OA
BRANCH  26  27
HETATM   27  C10 UNL     1      23.274   7.409  50.847  1.00  0.00     0.260 C 
HETATM   28 BR1  UNL     1      24.938   8.017  50.055  1.00  0.00    -0.067 Br
ENDBRANCH  26  27
ENDBRANCH   8  26
TORSDOF 6
ENDMDL
