MODEL 1
REMARK VINA RESULT:     -10.0      0.000      0.000
REMARK  2 active torsions:
REMARK  status: ('A' for Active; 'I' for Inactive)
REMARK       I    between atoms: C1_2  and  N1_3 
REMARK       I    between atoms: C1_2  and  N4_22 
REMARK    1  A    between atoms: N1_3  and  C2_4 
REMARK    2  A    between atoms: N4_22  and  C15_23 
ROOT
HETATM    1  C2  UNL     1      22.166   3.326  49.462  1.00  0.00     0.022 C 
HETATM    2  C3  UNL     1      23.444   3.032  49.362  1.00  0.00     0.073 C 
HETATM    3  C4  UNL     1      24.774   3.556  49.264  1.00  0.00     0.012 C 
HETATM    4  C5  UNL     1      25.604   4.575  49.224  1.00  0.00     0.035 C 
HETATM    5  C6  UNL     1      24.983   5.894  49.327  1.00  0.00     0.096 C 
HETATM    6  C7  UNL     1      25.915   6.937  49.913  1.00  0.00     0.170 C 
HETATM    7  C8  UNL     1      26.961   7.338  48.953  1.00  0.00     0.123 C 
HETATM    8  N2  UNL     1      27.707   6.504  48.326  1.00  0.00    -0.256 NA
HETATM    9  C9  UNL     1      27.864   5.116  48.556  1.00  0.00     0.232 C 
HETATM   10  N3  UNL     1      26.971   4.287  49.074  1.00  0.00    -0.247 NA
HETATM   11  O2  UNL     1      25.289   7.868  50.628  1.00  0.00    -0.356 OA
HETATM   12  C10 UNL     1      23.951   8.077  50.597  1.00  0.00     0.341 C 
HETATM   13  O3  UNL     1      23.385   8.443  49.384  1.00  0.00    -0.343 OA
HETATM   14  C11 UNL     1      22.024   8.643  49.470  1.00  0.00     0.340 C 
HETATM   15  O4  UNL     1      21.246   7.552  49.832  1.00  0.00    -0.363 OA
HETATM   16  C12 UNL     1      21.344   6.535  48.896  1.00  0.00     0.198 C 
HETATM   17  C13 UNL     1      20.602   5.325  49.257  1.00  0.00     0.001 C 
HETATM   18  C14 UNL     1      20.893   4.052  49.482  1.00  0.00     0.024 C 
ENDROOT
BRANCH   1  19
HETATM   19  N1  UNL     1      21.999   1.872  49.478  1.00  0.00    -0.312 N 
HETATM   20  C1  UNL     1      22.154   1.395  50.823  1.00  0.00     0.325 C 
HETATM   21  O1  UNL     1      22.391   2.367  51.606  1.00  0.00    -0.247 OA
HETATM   22  N4  UNL     1      22.080   0.093  51.345  1.00  0.00    -0.308 N 
HETATM   23  H17 UNL     1      21.883  -0.533  50.557  1.00  0.00     0.170 HD
HETATM   24  H1  UNL     1      21.812   1.041  48.825  1.00  0.00     0.170 HD
BRANCH  22  25
HETATM   25  C15 UNL     1      22.237  -0.344  52.676  1.00  0.00     0.047 A 
HETATM   26  C16 UNL     1      21.220  -0.760  53.501  1.00  0.00     0.030 A 
HETATM   27  C17 UNL     1      21.364  -1.188  54.801  1.00  0.00     0.003 A 
HETATM   28  C18 UNL     1      22.641  -1.205  55.328  1.00  0.00     0.012 A 
HETATM   29  C19 UNL     1      23.684  -0.794  54.526  1.00  0.00    -0.024 A 
HETATM   30  C20 UNL     1      24.919  -0.842  55.132  1.00  0.00     0.012 A 
HETATM   31  C24 UNL     1      23.477  -0.372  53.221  1.00  0.00     0.001 A 
HETATM   32  C21 UNL     1      26.023  -0.452  54.415  1.00  0.00     0.001 A 
HETATM   33  C22 UNL     1      25.909  -0.019  53.112  1.00  0.00     0.001 A 
HETATM   34  C23 UNL     1      24.640  -0.003  52.585  1.00  0.00     0.014 A 
ENDBRANCH  22  25
ENDBRANCH   1  19
TORSDOF 2
ENDMDL
MODEL 2
REMARK VINA RESULT:      -9.7      2.970      4.461
REMARK  2 active torsions:
REMARK  status: ('A' for Active; 'I' for Inactive)
REMARK       I    between atoms: C1_2  and  N1_3 
REMARK       I    between atoms: C1_2  and  N4_22 
REMARK    1  A    between atoms: N1_3  and  C2_4 
REMARK    2  A    between atoms: N4_22  and  C15_23 
ROOT
HETATM    1  C2  UNL     1      23.166   2.930  51.347  1.00  0.00     0.022 C 
HETATM    2  C3  UNL     1      23.655   4.089  51.732  1.00  0.00     0.073 C 
HETATM    3  C4  UNL     1      23.933   5.441  51.349  1.00  0.00     0.012 C 
HETATM    4  C5  UNL     1      23.900   6.410  50.461  1.00  0.00     0.035 C 
HETATM    5  C6  UNL     1      23.293   6.064  49.178  1.00  0.00     0.096 C 
HETATM    6  C7  UNL     1      22.696   7.264  48.467  1.00  0.00     0.170 C 
HETATM    7  C8  UNL     1      23.740   8.144  47.908  1.00  0.00     0.123 C 
HETATM    8  N2  UNL     1      24.733   8.588  48.587  1.00  0.00    -0.256 NA
HETATM    9  C9  UNL     1      24.934   8.544  49.988  1.00  0.00     0.232 C 
HETATM   10  N3  UNL     1      24.456   7.646  50.834  1.00  0.00    -0.247 NA
HETATM   11  O2  UNL     1      21.624   6.971  47.737  1.00  0.00    -0.356 OA
HETATM   12  C10 UNL     1      21.266   5.713  47.386  1.00  0.00     0.341 C 
HETATM   13  O3  UNL     1      22.154   4.982  46.610  1.00  0.00    -0.343 OA
HETATM   14  C11 UNL     1      21.684   3.725  46.301  1.00  0.00     0.340 C 
HETATM   15  O4  UNL     1      21.450   2.859  47.360  1.00  0.00    -0.363 OA
HETATM   16  C12 UNL     1      22.620   2.583  48.050  1.00  0.00     0.198 C 
HETATM   17  C13 UNL     1      22.429   1.732  49.225  1.00  0.00     0.001 C 
HETATM   18  C14 UNL     1      22.636   1.836  50.530  1.00  0.00     0.024 C 
ENDROOT
BRANCH   1  19
HETATM   19  N1  UNL     1      23.504   2.518  52.711  1.00  0.00    -0.312 N 
HETATM   20  C1  UNL     1      24.883   2.123  52.755  1.00  0.00     0.325 C 
HETATM   21  O1  UNL     1      25.408   2.243  51.605  1.00  0.00    -0.247 OA
HETATM   22  N4  UNL     1      25.667   1.657  53.824  1.00  0.00    -0.308 N 
HETATM   23  H17 UNL     1      25.059   1.635  54.651  1.00  0.00     0.170 HD
HETATM   24  H1  UNL     1      23.068   2.399  53.684  1.00  0.00     0.170 HD
BRANCH  22  25
HETATM   25  C15 UNL     1      27.024   1.276  53.835  1.00  0.00     0.047 A 
HETATM   26  C16 UNL     1      28.073   2.085  54.198  1.00  0.00     0.030 A 
HETATM   27  C17 UNL     1      29.401   1.722  54.212  1.00  0.00     0.003 A 
HETATM   28  C18 UNL     1      29.712   0.431  53.829  1.00  0.00     0.012 A 
HETATM   29  C19 UNL     1      28.681  -0.406  53.460  1.00  0.00    -0.024 A 
HETATM   30  C20 UNL     1      29.081  -1.671  53.094  1.00  0.00     0.012 A 
HETATM   31  C24 UNL     1      27.360   0.017  53.465  1.00  0.00     0.001 A 
HETATM   32  C21 UNL     1      28.128  -2.581  52.708  1.00  0.00     0.001 A 
HETATM   33  C22 UNL     1      26.792  -2.245  52.684  1.00  0.00     0.001 A 
HETATM   34  C23 UNL     1      26.480  -0.962  53.065  1.00  0.00     0.014 A 
ENDBRANCH  22  25
ENDBRANCH   1  19
TORSDOF 2
ENDMDL
MODEL 3
REMARK VINA RESULT:      -9.6      2.627      8.658
REMARK  2 active torsions:
REMARK  status: ('A' for Active; 'I' for Inactive)
REMARK       I    between atoms: C1_2  and  N1_3 
REMARK       I    between atoms: C1_2  and  N4_22 
REMARK    1  A    between atoms: N1_3  and  C2_4 
REMARK    2  A    between atoms: N4_22  and  C15_23 
ROOT
HETATM    1  C2  UNL     1      25.368   3.201  49.874  1.00  0.00     0.022 C 
HETATM    2  C3  UNL     1      26.394   2.618  50.454  1.00  0.00     0.073 C 
HETATM    3  C4  UNL     1      26.817   1.748  51.511  1.00  0.00     0.012 C 
HETATM    4  C5  UNL     1      26.542   0.974  52.538  1.00  0.00     0.035 C 
HETATM    5  C6  UNL     1      25.124   0.851  52.868  1.00  0.00     0.096 C 
HETATM    6  C7  UNL     1      24.793  -0.458  53.559  1.00  0.00     0.170 C 
HETATM    7  C8  UNL     1      25.275  -0.478  54.953  1.00  0.00     0.123 C 
HETATM    8  N2  UNL     1      26.477  -0.188  55.294  1.00  0.00    -0.256 NA
HETATM    9  C9  UNL     1      27.612  -0.021  54.465  1.00  0.00     0.232 C 
HETATM   10  N3  UNL     1      27.626   0.374  53.201  1.00  0.00    -0.247 NA
HETATM   11  O2  UNL     1      23.576  -0.915  53.278  1.00  0.00    -0.356 OA
HETATM   12  C10 UNL     1      22.600  -0.172  52.704  1.00  0.00     0.341 C 
HETATM   13  O3  UNL     1      22.161   0.954  53.387  1.00  0.00    -0.343 OA
HETATM   14  C11 UNL     1      21.160   1.625  52.720  1.00  0.00     0.340 C 
HETATM   15  O4  UNL     1      21.472   2.150  51.474  1.00  0.00    -0.363 OA
HETATM   16  C12 UNL     1      22.468   3.109  51.569  1.00  0.00     0.198 C 
HETATM   17  C13 UNL     1      22.894   3.650  50.277  1.00  0.00     0.001 C 
HETATM   18  C14 UNL     1      24.023   3.707  49.586  1.00  0.00     0.024 C 
ENDROOT
BRANCH   1  19
HETATM   19  N1  UNL     1      26.389   3.740  48.975  1.00  0.00    -0.312 N 
HETATM   20  C1  UNL     1      26.525   5.149  49.207  1.00  0.00     0.325 C 
HETATM   21  O1  UNL     1      25.723   5.520  50.120  1.00  0.00    -0.247 OA
HETATM   22  N4  UNL     1      27.367   6.099  48.603  1.00  0.00    -0.308 N 
HETATM   23  H17 UNL     1      27.926   5.598  47.903  1.00  0.00     0.170 HD
HETATM   24  H1  UNL     1      27.062   3.441  48.193  1.00  0.00     0.170 HD
BRANCH  22  25
HETATM   25  C15 UNL     1      27.477   7.481  48.855  1.00  0.00     0.047 A 
HETATM   26  C16 UNL     1      26.428   8.325  49.127  1.00  0.00     0.030 A 
HETATM   27  C17 UNL     1      26.526   9.676  49.374  1.00  0.00     0.003 A 
HETATM   28  C18 UNL     1      27.788  10.237  49.349  1.00  0.00     0.012 A 
HETATM   29  C19 UNL     1      28.862   9.418  49.079  1.00  0.00    -0.024 A 
HETATM   30  C20 UNL     1      30.079  10.060  49.075  1.00  0.00     0.012 A 
HETATM   31  C24 UNL     1      28.702   8.061  48.838  1.00  0.00     0.001 A 
HETATM   32  C21 UNL     1      31.213   9.329  48.815  1.00  0.00     0.001 A 
HETATM   33  C22 UNL     1      31.144   7.976  48.564  1.00  0.00     0.001 A 
HETATM   34  C23 UNL     1      29.890   7.415  48.590  1.00  0.00     0.014 A 
ENDBRANCH  22  25
ENDBRANCH   1  19
TORSDOF 2
ENDMDL
MODEL 4
REMARK VINA RESULT:      -9.6      2.101      3.560
REMARK  2 active torsions:
REMARK  status: ('A' for Active; 'I' for Inactive)
REMARK       I    between atoms: C1_2  and  N1_3 
REMARK       I    between atoms: C1_2  and  N4_22 
REMARK    1  A    between atoms: N1_3  and  C2_4 
REMARK    2  A    between atoms: N4_22  and  C15_23 
ROOT
HETATM    1  C2  UNL     1      25.931   4.094  49.330  1.00  0.00     0.022 C 
HETATM    2  C3  UNL     1      27.167   4.345  48.960  1.00  0.00     0.073 C 
HETATM    3  C4  UNL     1      28.106   5.359  48.583  1.00  0.00     0.012 C 
HETATM    4  C5  UNL     1      28.404   6.622  48.368  1.00  0.00     0.035 C 
HETATM    5  C6  UNL     1      27.318   7.571  48.602  1.00  0.00     0.096 C 
HETATM    6  C7  UNL     1      27.817   8.953  48.978  1.00  0.00     0.170 C 
HETATM    7  C8  UNL     1      28.389   9.662  47.818  1.00  0.00     0.123 C 
HETATM    8  N2  UNL     1      29.280   9.158  47.045  1.00  0.00    -0.256 NA
HETATM    9  C9  UNL     1      30.049   7.985  47.235  1.00  0.00     0.232 C 
HETATM   10  N3  UNL     1      29.708   6.911  47.929  1.00  0.00    -0.247 NA
HETATM   11  O2  UNL     1      27.009   9.603  49.811  1.00  0.00    -0.356 OA
HETATM   12  C10 UNL     1      25.730   9.238  50.066  1.00  0.00     0.341 C 
HETATM   13  O3  UNL     1      24.839   9.229  49.002  1.00  0.00    -0.343 OA
HETATM   14  C11 UNL     1      23.566   8.857  49.376  1.00  0.00     0.340 C 
HETATM   15  O4  UNL     1      23.406   7.580  49.894  1.00  0.00    -0.363 OA
HETATM   16  C12 UNL     1      23.741   6.615  48.957  1.00  0.00     0.198 C 
HETATM   17  C13 UNL     1      23.663   5.244  49.466  1.00  0.00     0.001 C 
HETATM   18  C14 UNL     1      24.501   4.229  49.622  1.00  0.00     0.024 C 
ENDROOT
BRANCH   1  19
HETATM   19  N1  UNL     1      26.398   2.707  49.379  1.00  0.00    -0.312 N 
HETATM   20  C1  UNL     1      26.418   2.266  50.745  1.00  0.00     0.325 C 
HETATM   21  O1  UNL     1      26.028   3.200  51.512  1.00  0.00    -0.247 OA
HETATM   22  N4  UNL     1      26.783   1.027  51.300  1.00  0.00    -0.308 N 
HETATM   23  H17 UNL     1      27.063   0.423  50.520  1.00  0.00     0.170 HD
HETATM   24  H1  UNL     1      26.743   1.914  48.744  1.00  0.00     0.170 HD
BRANCH  22  25
HETATM   25  C15 UNL     1      26.791   0.623  52.650  1.00  0.00     0.047 A 
HETATM   26  C16 UNL     1      27.876   0.680  53.490  1.00  0.00     0.030 A 
HETATM   27  C17 UNL     1      27.893   0.287  54.810  1.00  0.00     0.003 A 
HETATM   28  C18 UNL     1      26.718  -0.207  55.342  1.00  0.00     0.012 A 
HETATM   29  C19 UNL     1      25.610  -0.277  54.525  1.00  0.00    -0.024 A 
HETATM   30  C20 UNL     1      24.485  -0.781  55.136  1.00  0.00     0.012 A 
HETATM   31  C24 UNL     1      25.653   0.134  53.200  1.00  0.00     0.001 A 
HETATM   32  C21 UNL     1      23.327  -0.893  54.405  1.00  0.00     0.001 A 
HETATM   33  C22 UNL     1      23.282  -0.508  53.083  1.00  0.00     0.001 A 
HETATM   34  C23 UNL     1      24.449  -0.014  52.552  1.00  0.00     0.014 A 
ENDBRANCH  22  25
ENDBRANCH   1  19
TORSDOF 2
ENDMDL
MODEL 5
REMARK VINA RESULT:      -9.5      3.121      5.673
REMARK  2 active torsions:
REMARK  status: ('A' for Active; 'I' for Inactive)
REMARK       I    between atoms: C1_2  and  N1_3 
REMARK       I    between atoms: C1_2  and  N4_22 
REMARK    1  A    between atoms: N1_3  and  C2_4 
REMARK    2  A    between atoms: N4_22  and  C15_23 
ROOT
HETATM    1  C2  UNL     1      23.072   5.005  51.267  1.00  0.00     0.022 C 
HETATM    2  C3  UNL     1      22.045   4.489  51.906  1.00  0.00     0.073 C 
HETATM    3  C4  UNL     1      20.661   4.129  51.822  1.00  0.00     0.012 C 
HETATM    4  C5  UNL     1      19.539   4.039  51.143  1.00  0.00     0.035 C 
HETATM    5  C6  UNL     1      19.606   4.501  49.758  1.00  0.00     0.096 C 
HETATM    6  C7  UNL     1      18.587   3.823  48.863  1.00  0.00     0.170 C 
HETATM    7  C8  UNL     1      17.220   4.315  49.119  1.00  0.00     0.123 C 
HETATM    8  N2  UNL     1      16.691   4.367  50.287  1.00  0.00    -0.256 NA
HETATM    9  C9  UNL     1      17.159   3.792  51.492  1.00  0.00     0.232 C 
HETATM   10  N3  UNL     1      18.415   3.531  51.817  1.00  0.00    -0.247 NA
HETATM   11  O2  UNL     1      19.003   3.663  47.609  1.00  0.00    -0.356 OA
HETATM   12  C10 UNL     1      20.072   4.302  47.077  1.00  0.00     0.341 C 
HETATM   13  O3  UNL     1      20.036   5.688  47.026  1.00  0.00    -0.343 OA
HETATM   14  C11 UNL     1      21.166   6.231  46.455  1.00  0.00     0.340 C 
HETATM   15  O4  UNL     1      22.373   6.000  47.100  1.00  0.00    -0.363 OA
HETATM   16  C12 UNL     1      22.378   6.557  48.369  1.00  0.00     0.198 C 
HETATM   17  C13 UNL     1      23.599   6.286  49.131  1.00  0.00     0.001 C 
HETATM   18  C14 UNL     1      23.905   5.684  50.271  1.00  0.00     0.024 C 
ENDROOT
BRANCH   1  19
HETATM   19  N1  UNL     1      23.778   4.741  52.522  1.00  0.00    -0.312 N 
HETATM   20  C1  UNL     1      24.348   3.425  52.473  1.00  0.00     0.325 C 
HETATM   21  O1  UNL     1      24.076   2.872  51.363  1.00  0.00    -0.247 OA
HETATM   22  N4  UNL     1      25.112   2.723  53.422  1.00  0.00    -0.308 N 
HETATM   23  H17 UNL     1      25.215   3.340  54.235  1.00  0.00     0.170 HD
HETATM   24  H1  UNL     1      24.004   5.192  53.469  1.00  0.00     0.170 HD
BRANCH  22  25
HETATM   25  C15 UNL     1      25.659   1.426  53.344  1.00  0.00     0.047 A 
HETATM   26  C16 UNL     1      24.944   0.273  53.133  1.00  0.00     0.030 A 
HETATM   27  C17 UNL     1      25.469  -0.997  53.055  1.00  0.00     0.003 A 
HETATM   28  C18 UNL     1      26.837  -1.129  53.199  1.00  0.00     0.012 A 
HETATM   29  C19 UNL     1      27.584   0.009  53.412  1.00  0.00    -0.024 A 
HETATM   30  C20 UNL     1      28.936  -0.215  53.544  1.00  0.00     0.012 A 
HETATM   31  C24 UNL     1      26.997   1.265  53.481  1.00  0.00     0.001 A 
HETATM   32  C21 UNL     1      29.767   0.856  53.759  1.00  0.00     0.001 A 
HETATM   33  C22 UNL     1      29.268   2.138  53.842  1.00  0.00     0.001 A 
HETATM   34  C23 UNL     1      27.908   2.272  53.698  1.00  0.00     0.014 A 
ENDBRANCH  22  25
ENDBRANCH   1  19
TORSDOF 2
ENDMDL
MODEL 6
REMARK VINA RESULT:      -9.5      2.599      3.381
REMARK  2 active torsions:
REMARK  status: ('A' for Active; 'I' for Inactive)
REMARK       I    between atoms: C1_2  and  N1_3 
REMARK       I    between atoms: C1_2  and  N4_22 
REMARK    1  A    between atoms: N1_3  and  C2_4 
REMARK    2  A    between atoms: N4_22  and  C15_23 
ROOT
HETATM    1  C2  UNL     1      23.423   5.784  50.882  1.00  0.00     0.022 C 
HETATM    2  C3  UNL     1      24.651   6.255  50.894  1.00  0.00     0.073 C 
HETATM    3  C4  UNL     1      25.664   6.933  50.142  1.00  0.00     0.012 C 
HETATM    4  C5  UNL     1      26.071   7.525  49.040  1.00  0.00     0.035 C 
HETATM    5  C6  UNL     1      25.083   7.598  47.967  1.00  0.00     0.096 C 
HETATM    6  C7  UNL     1      25.312   8.774  47.037  1.00  0.00     0.170 C 
HETATM    7  C8  UNL     1      26.475   8.556  46.156  1.00  0.00     0.123 C 
HETATM    8  N2  UNL     1      27.633   8.206  46.582  1.00  0.00    -0.256 NA
HETATM    9  C9  UNL     1      28.110   8.174  47.914  1.00  0.00     0.232 C 
HETATM   10  N3  UNL     1      27.394   7.998  49.013  1.00  0.00    -0.247 NA
HETATM   11  O2  UNL     1      24.190   9.279  46.530  1.00  0.00    -0.356 OA
HETATM   12  C10 UNL     1      22.992   8.648  46.563  1.00  0.00     0.341 C 
HETATM   13  O3  UNL     1      22.889   7.426  45.913  1.00  0.00    -0.343 OA
HETATM   14  C11 UNL     1      21.626   6.882  45.999  1.00  0.00     0.340 C 
HETATM   15  O4  UNL     1      21.155   6.573  47.267  1.00  0.00    -0.363 OA
HETATM   16  C12 UNL     1      21.942   5.606  47.872  1.00  0.00     0.198 C 
HETATM   17  C13 UNL     1      21.540   5.287  49.243  1.00  0.00     0.001 C 
HETATM   18  C14 UNL     1      22.097   5.342  50.444  1.00  0.00     0.024 C 
ENDROOT
BRANCH   1  19
HETATM   19  N1  UNL     1      23.731   5.399  52.261  1.00  0.00    -0.312 N 
HETATM   20  C1  UNL     1      24.139   4.023  52.285  1.00  0.00     0.325 C 
HETATM   21  O1  UNL     1      24.114   3.540  51.111  1.00  0.00    -0.247 OA
HETATM   22  N4  UNL     1      24.534   3.205  53.357  1.00  0.00    -0.308 N 
HETATM   23  H17 UNL     1      24.484   3.781  54.205  1.00  0.00     0.170 HD
HETATM   24  H1  UNL     1      23.743   5.791  53.260  1.00  0.00     0.170 HD
BRANCH  22  25
HETATM   25  C15 UNL     1      24.931   1.853  53.348  1.00  0.00     0.047 A 
HETATM   26  C16 UNL     1      24.083   0.776  53.258  1.00  0.00     0.030 A 
HETATM   27  C17 UNL     1      24.461  -0.547  53.249  1.00  0.00     0.003 A 
HETATM   28  C18 UNL     1      25.812  -0.823  53.335  1.00  0.00     0.012 A 
HETATM   29  C19 UNL     1      26.690   0.235  53.426  1.00  0.00    -0.024 A 
HETATM   30  C20 UNL     1      28.014  -0.132  53.509  1.00  0.00     0.012 A 
HETATM   31  C24 UNL     1      26.249   1.550  53.432  1.00  0.00     0.001 A 
HETATM   32  C21 UNL     1      28.969   0.851  53.604  1.00  0.00     0.001 A 
HETATM   33  C22 UNL     1      28.618   2.184  53.616  1.00  0.00     0.001 A 
HETATM   34  C23 UNL     1      27.275   2.461  53.529  1.00  0.00     0.014 A 
ENDBRANCH  22  25
ENDBRANCH   1  19
TORSDOF 2
ENDMDL
MODEL 7
REMARK VINA RESULT:      -9.3      2.581      3.642
REMARK  2 active torsions:
REMARK  status: ('A' for Active; 'I' for Inactive)
REMARK       I    between atoms: C1_2  and  N1_3 
REMARK       I    between atoms: C1_2  and  N4_22 
REMARK    1  A    between atoms: N1_3  and  C2_4 
REMARK    2  A    between atoms: N4_22  and  C15_23 
ROOT
HETATM    1  C2  UNL     1      23.978   7.388  50.649  1.00  0.00     0.022 C 
HETATM    2  C3  UNL     1      25.275   7.214  50.529  1.00  0.00     0.073 C 
HETATM    3  C4  UNL     1      26.421   7.401  49.690  1.00  0.00     0.012 C 
HETATM    4  C5  UNL     1      26.967   7.839  48.577  1.00  0.00     0.035 C 
HETATM    5  C6  UNL     1      26.050   8.485  47.641  1.00  0.00     0.096 C 
HETATM    6  C7  UNL     1      26.739   9.500  46.749  1.00  0.00     0.170 C 
HETATM    7  C8  UNL     1      27.570   8.848  45.719  1.00  0.00     0.123 C 
HETATM    8  N2  UNL     1      28.445   7.946  45.978  1.00  0.00    -0.256 NA
HETATM    9  C9  UNL     1      28.959   7.553  47.236  1.00  0.00     0.232 C 
HETATM   10  N3  UNL     1      28.346   7.625  48.407  1.00  0.00    -0.247 NA
HETATM   11  O2  UNL     1      25.964  10.528  46.413  1.00  0.00    -0.356 OA
HETATM   12  C10 UNL     1      24.618  10.544  46.565  1.00  0.00     0.341 C 
HETATM   13  O3  UNL     1      23.880   9.594  45.874  1.00  0.00    -0.343 OA
HETATM   14  C11 UNL     1      22.524   9.711  46.090  1.00  0.00     0.340 C 
HETATM   15  O4  UNL     1      22.074   9.534  47.391  1.00  0.00    -0.363 OA
HETATM   16  C12 UNL     1      22.342   8.252  47.843  1.00  0.00     0.198 C 
HETATM   17  C13 UNL     1      21.956   8.022  49.237  1.00  0.00     0.001 C 
HETATM   18  C14 UNL     1      22.571   7.679  50.359  1.00  0.00     0.024 C 
ENDROOT
BRANCH   1  19
HETATM   19  N1  UNL     1      24.177   6.761  51.957  1.00  0.00    -0.312 N 
HETATM   20  C1  UNL     1      23.821   5.374  51.873  1.00  0.00     0.325 C 
HETATM   21  O1  UNL     1      23.436   5.092  50.696  1.00  0.00    -0.247 OA
HETATM   22  N4  UNL     1      23.842   4.364  52.850  1.00  0.00    -0.308 N 
HETATM   23  H17 UNL     1      24.180   4.796  53.717  1.00  0.00     0.170 HD
HETATM   24  H1  UNL     1      24.488   6.990  52.958  1.00  0.00     0.170 HD
BRANCH  22  25
HETATM   25  C15 UNL     1      23.485   3.005  52.736  1.00  0.00     0.047 A 
HETATM   26  C16 UNL     1      22.262   2.537  52.318  1.00  0.00     0.030 A 
HETATM   27  C17 UNL     1      21.904   1.213  52.204  1.00  0.00     0.003 A 
HETATM   28  C18 UNL     1      22.854   0.267  52.535  1.00  0.00     0.012 A 
HETATM   29  C19 UNL     1      24.091   0.702  52.958  1.00  0.00    -0.024 A 
HETATM   30  C20 UNL     1      24.974  -0.307  53.267  1.00  0.00     0.012 A 
HETATM   31  C24 UNL     1      24.395   2.053  53.054  1.00  0.00     0.001 A 
HETATM   32  C21 UNL     1      26.235   0.024  53.698  1.00  0.00     0.001 A 
HETATM   33  C22 UNL     1      26.620   1.342  53.823  1.00  0.00     0.001 A 
HETATM   34  C23 UNL     1      25.677   2.286  53.493  1.00  0.00     0.014 A 
ENDBRANCH  22  25
ENDBRANCH   1  19
TORSDOF 2
ENDMDL
MODEL 8
REMARK VINA RESULT:      -9.3      3.325      5.255
REMARK  2 active torsions:
REMARK  status: ('A' for Active; 'I' for Inactive)
REMARK       I    between atoms: C1_2  and  N1_3 
REMARK       I    between atoms: C1_2  and  N4_22 
REMARK    1  A    between atoms: N1_3  and  C2_4 
REMARK    2  A    between atoms: N4_22  and  C15_23 
ROOT
HETATM    1  C2  UNL     1      27.535   6.063  48.337  1.00  0.00     0.022 C 
HETATM    2  C3  UNL     1      28.846   5.981  48.392  1.00  0.00     0.073 C 
HETATM    3  C4  UNL     1      30.079   6.708  48.340  1.00  0.00     0.012 C 
HETATM    4  C5  UNL     1      30.739   7.841  48.232  1.00  0.00     0.035 C 
HETATM    5  C6  UNL     1      29.911   9.037  48.096  1.00  0.00     0.096 C 
HETATM    6  C7  UNL     1      30.596  10.288  48.611  1.00  0.00     0.170 C 
HETATM    7  C8  UNL     1      31.665  10.740  47.701  1.00  0.00     0.123 C 
HETATM    8  N2  UNL     1      32.598   9.975  47.264  1.00  0.00    -0.256 NA
HETATM    9  C9  UNL     1      32.945   8.673  47.697  1.00  0.00     0.232 C 
HETATM   10  N3  UNL     1      32.143   7.774  48.244  1.00  0.00    -0.247 NA
HETATM   11  O2  UNL     1      29.758  11.179  49.133  1.00  0.00    -0.356 OA
HETATM   12  C10 UNL     1      28.415  11.151  48.955  1.00  0.00     0.341 C 
HETATM   13  O3  UNL     1      27.935  11.264  47.658  1.00  0.00    -0.343 OA
HETATM   14  C11 UNL     1      26.558  11.239  47.595  1.00  0.00     0.340 C 
HETATM   15  O4  UNL     1      25.927  10.084  48.035  1.00  0.00    -0.363 OA
HETATM   16  C12 UNL     1      26.286   8.991  47.262  1.00  0.00     0.198 C 
HETATM   17  C13 UNL     1      25.708   7.726  47.720  1.00  0.00     0.001 C 
HETATM   18  C14 UNL     1      26.170   6.558  48.144  1.00  0.00     0.024 C 
ENDROOT
BRANCH   1  19
HETATM   19  N1  UNL     1      27.598   4.615  48.540  1.00  0.00    -0.312 N 
HETATM   20  C1  UNL     1      26.641   4.238  49.541  1.00  0.00     0.325 C 
HETATM   21  O1  UNL     1      26.021   5.264  49.961  1.00  0.00    -0.247 OA
HETATM   22  N4  UNL     1      26.325   2.977  50.075  1.00  0.00    -0.308 N 
HETATM   23  H17 UNL     1      26.931   2.295  49.606  1.00  0.00     0.170 HD
HETATM   24  H1  UNL     1      28.124   3.742  48.203  1.00  0.00     0.170 HD
BRANCH  22  25
HETATM   25  C15 UNL     1      25.376   2.639  51.061  1.00  0.00     0.047 A 
HETATM   26  C16 UNL     1      24.244   3.359  51.354  1.00  0.00     0.030 A 
HETATM   27  C17 UNL     1      23.312   3.037  52.315  1.00  0.00     0.003 A 
HETATM   28  C18 UNL     1      23.529   1.888  53.051  1.00  0.00     0.012 A 
HETATM   29  C19 UNL     1      24.656   1.142  52.781  1.00  0.00    -0.024 A 
HETATM   30  C20 UNL     1      24.792   0.017  53.561  1.00  0.00     0.012 A 
HETATM   31  C24 UNL     1      25.561   1.518  51.799  1.00  0.00     0.001 A 
HETATM   32  C21 UNL     1      25.884  -0.794  53.370  1.00  0.00     0.001 A 
HETATM   33  C22 UNL     1      26.832  -0.495  52.415  1.00  0.00     0.001 A 
HETATM   34  C23 UNL     1      26.618   0.646  51.681  1.00  0.00     0.014 A 
ENDBRANCH  22  25
ENDBRANCH   1  19
TORSDOF 2
ENDMDL
MODEL 9
REMARK VINA RESULT:      -9.2      2.658      3.886
REMARK  2 active torsions:
REMARK  status: ('A' for Active; 'I' for Inactive)
REMARK       I    between atoms: C1_2  and  N1_3 
REMARK       I    between atoms: C1_2  and  N4_22 
REMARK    1  A    between atoms: N1_3  and  C2_4 
REMARK    2  A    between atoms: N4_22  and  C15_23 
ROOT
HETATM    1  C2  UNL     1      23.616   6.487  50.404  1.00  0.00     0.022 C 
HETATM    2  C3  UNL     1      24.768   7.013  50.759  1.00  0.00     0.073 C 
HETATM    3  C4  UNL     1      25.917   7.746  50.320  1.00  0.00     0.012 C 
HETATM    4  C5  UNL     1      26.587   8.371  49.377  1.00  0.00     0.035 C 
HETATM    5  C6  UNL     1      25.936   8.414  48.070  1.00  0.00     0.096 C 
HETATM    6  C7  UNL     1      26.359   9.612  47.242  1.00  0.00     0.170 C 
HETATM    7  C8  UNL     1      27.731   9.460  46.721  1.00  0.00     0.123 C 
HETATM    8  N2  UNL     1      28.740   9.156  47.453  1.00  0.00    -0.256 NA
HETATM    9  C9  UNL     1      28.826   9.128  48.866  1.00  0.00     0.232 C 
HETATM   10  N3  UNL     1      27.841   8.904  49.721  1.00  0.00    -0.247 NA
HETATM   11  O2  UNL     1      25.401  10.072  46.442  1.00  0.00    -0.356 OA
HETATM   12  C10 UNL     1      24.273   9.388  46.138  1.00  0.00     0.341 C 
HETATM   13  O3  UNL     1      24.413   8.171  45.485  1.00  0.00    -0.343 OA
HETATM   14  C11 UNL     1      23.204   7.569  45.213  1.00  0.00     0.340 C 
HETATM   15  O4  UNL     1      22.413   7.222  46.299  1.00  0.00    -0.363 OA
HETATM   16  C12 UNL     1      23.044   6.283  47.099  1.00  0.00     0.198 C 
HETATM   17  C13 UNL     1      22.291   5.927  48.303  1.00  0.00     0.001 C 
HETATM   18  C14 UNL     1      22.487   5.991  49.612  1.00  0.00     0.024 C 
ENDROOT
BRANCH   1  19
HETATM   19  N1  UNL     1      23.544   6.097  51.813  1.00  0.00    -0.312 N 
HETATM   20  C1  UNL     1      23.961   4.730  51.945  1.00  0.00     0.325 C 
HETATM   21  O1  UNL     1      24.268   4.255  50.808  1.00  0.00    -0.247 OA
HETATM   22  N4  UNL     1      24.066   3.911  53.083  1.00  0.00    -0.308 N 
HETATM   23  H17 UNL     1      23.775   4.480  53.886  1.00  0.00     0.170 HD
HETATM   24  H1  UNL     1      23.275   6.481  52.778  1.00  0.00     0.170 HD
BRANCH  22  25
HETATM   25  C15 UNL     1      24.481   2.567  53.180  1.00  0.00     0.047 A 
HETATM   26  C16 UNL     1      25.775   2.146  53.364  1.00  0.00     0.030 A 
HETATM   27  C17 UNL     1      26.189   0.837  53.459  1.00  0.00     0.003 A 
HETATM   28  C18 UNL     1      25.222  -0.144  53.363  1.00  0.00     0.012 A 
HETATM   29  C19 UNL     1      23.913   0.245  53.178  1.00  0.00    -0.024 A 
HETATM   30  C20 UNL     1      23.017  -0.797  53.092  1.00  0.00     0.012 A 
HETATM   31  C24 UNL     1      23.555   1.582  53.089  1.00  0.00     0.001 A 
HETATM   32  C21 UNL     1      21.686  -0.513  52.907  1.00  0.00     0.001 A 
HETATM   33  C22 UNL     1      21.244   0.788  52.808  1.00  0.00     0.001 A 
HETATM   34  C23 UNL     1      22.204   1.766  52.905  1.00  0.00     0.014 A 
ENDBRANCH  22  25
ENDBRANCH   1  19
TORSDOF 2
ENDMDL
