MODEL 1
REMARK VINA RESULT:      -9.0      0.000      0.000
REMARK  3 active torsions:
REMARK  status: ('A' for Active; 'I' for Inactive)
REMARK    1  A    between atoms: C2_2  and  N1_3 
REMARK    2  A    between atoms: N1_3  and  C3_4 
REMARK    3  A    between atoms: C8_10  and  O1_11 
ROOT
HETATM    1  C3  UNL     1      24.911   0.040  54.165  1.00  0.00     0.158 C 
HETATM    2  C4  UNL     1      24.559   1.294  54.102  1.00  0.00     0.129 C 
HETATM    3  N2  UNL     1      24.056   1.698  53.010  1.00  0.00    -0.279 NA
HETATM    4  C5  UNL     1      23.602   0.713  52.064  1.00  0.00     0.191 C 
HETATM    5  C6  UNL     1      22.167   0.678  51.800  1.00  0.00    -0.002 A 
HETATM    6  C7  UNL     1      21.591   0.959  50.554  1.00  0.00     0.048 A 
HETATM    7  C8  UNL     1      20.256   0.953  50.215  1.00  0.00     0.066 A 
HETATM    8  C9  UNL     1      19.377   0.631  51.227  1.00  0.00     0.039 A 
HETATM    9  C10 UNL     1      19.881   0.344  52.479  1.00  0.00     0.040 A 
HETATM   10  C11 UNL     1      21.232   0.364  52.771  1.00  0.00     0.085 A 
HETATM   11  O2  UNL     1      21.433   0.033  54.107  1.00  0.00    -0.303 OA
HETATM   12  C12 UNL     1      20.890  -1.196  54.536  1.00  0.00     0.260 C 
HETATM   13  N3  UNL     1      21.867  -1.946  54.984  1.00  0.00    -0.230 NA
HETATM   14  C13 UNL     1      23.211  -1.422  54.961  1.00  0.00     0.237 C 
HETATM   15  N4  UNL     1      23.565  -0.459  54.162  1.00  0.00    -0.222 NA
ENDROOT
BRANCH   1  16
HETATM   16  N1  UNL     1      26.059  -0.798  54.223  1.00  0.00    -0.344 N 
HETATM   17  H4  UNL     1      25.981  -1.490  54.998  1.00  0.00     0.163 HD
BRANCH  16  18
HETATM   18  C2  UNL     1      27.101  -0.542  53.221  1.00  0.00     0.145 A 
HETATM   19  C1  UNL     1      26.496  -1.040  51.908  1.00  0.00     0.067 C 
HETATM   20  N5  UNL     1      28.255  -1.309  53.567  1.00  0.00    -0.268 NA
HETATM   21  C14 UNL     1      29.424  -0.904  53.805  1.00  0.00     0.116 A 
HETATM   22  C15 UNL     1      29.851   0.476  53.776  1.00  0.00     0.058 A 
HETATM   23  C16 UNL     1      28.798   1.198  53.459  1.00  0.00     0.118 A 
HETATM   24  F1  UNL     1      29.022   2.550  53.385  1.00  0.00    -0.209 F 
HETATM   25  C17 UNL     1      27.399   0.915  53.155  1.00  0.00     0.194 A 
HETATM   26 CL1  UNL     1      27.060   1.505  51.507  1.00  0.00    -0.113 Cl
ENDBRANCH  16  18
ENDBRANCH   1  16
BRANCH   7  27
HETATM   27  O1  UNL     1      19.866   1.258  48.921  1.00  0.00    -0.361 OA
HETATM   28  H8  UNL     1      19.466   2.157  48.743  1.00  0.00     0.217 HD
ENDBRANCH   7  27
TORSDOF 3
ENDMDL
MODEL 2
REMARK VINA RESULT:      -8.6      4.368      6.381
REMARK  3 active torsions:
REMARK  status: ('A' for Active; 'I' for Inactive)
REMARK    1  A    between atoms: C2_2  and  N1_3 
REMARK    2  A    between atoms: N1_3  and  C3_4 
REMARK    3  A    between atoms: C8_10  and  O1_11 
ROOT
HETATM    1  C3  UNL     1      23.794   3.566  51.384  1.00  0.00     0.158 C 
HETATM    2  C4  UNL     1      24.073   2.441  50.787  1.00  0.00     0.129 C 
HETATM    3  N2  UNL     1      24.393   1.460  51.525  1.00  0.00    -0.279 NA
HETATM    4  C5  UNL     1      24.103   1.545  52.932  1.00  0.00     0.191 C 
HETATM    5  C6  UNL     1      23.119   0.600  53.452  1.00  0.00    -0.002 A 
HETATM    6  C7  UNL     1      23.408  -0.393  54.398  1.00  0.00     0.048 A 
HETATM    7  C8  UNL     1      22.549  -1.323  54.939  1.00  0.00     0.066 A 
HETATM    8  C9  UNL     1      21.244  -1.272  54.497  1.00  0.00     0.039 A 
HETATM    9  C10 UNL     1      20.895  -0.317  53.564  1.00  0.00     0.040 A 
HETATM   10  C11 UNL     1      21.795   0.597  53.049  1.00  0.00     0.085 A 
HETATM   11  O2  UNL     1      21.155   1.429  52.136  1.00  0.00    -0.303 OA
HETATM   12  C12 UNL     1      20.020   2.120  52.609  1.00  0.00     0.260 C 
HETATM   13  N3  UNL     1      20.238   3.406  52.484  1.00  0.00    -0.230 NA
HETATM   14  C13 UNL     1      21.496   3.847  51.931  1.00  0.00     0.237 C 
HETATM   15  N4  UNL     1      22.558   3.098  51.944  1.00  0.00    -0.222 NA
ENDROOT
BRANCH   1  16
HETATM   16  N1  UNL     1      24.299   4.881  51.586  1.00  0.00    -0.344 N 
HETATM   17  H4  UNL     1      24.533   5.044  52.587  1.00  0.00     0.163 HD
BRANCH  16  18
HETATM   18  C2  UNL     1      24.389   5.731  50.392  1.00  0.00     0.145 A 
HETATM   19  C1  UNL     1      25.503   5.097  49.558  1.00  0.00     0.067 C 
HETATM   20  N5  UNL     1      24.758   7.047  50.805  1.00  0.00    -0.268 NA
HETATM   21  C14 UNL     1      24.138   8.130  50.621  1.00  0.00     0.116 A 
HETATM   22  C15 UNL     1      22.879   8.262  49.927  1.00  0.00     0.058 A 
HETATM   23  C16 UNL     1      22.523   7.057  49.539  1.00  0.00     0.118 A 
HETATM   24  F1  UNL     1      21.335   6.992  48.855  1.00  0.00    -0.209 F 
HETATM   25  C17 UNL     1      23.095   5.719  49.656  1.00  0.00     0.194 A 
HETATM   26 CL1  UNL     1      23.366   5.085  48.012  1.00  0.00    -0.113 Cl
ENDBRANCH  16  18
ENDBRANCH   1  16
BRANCH   7  27
HETATM   27  O1  UNL     1      23.013  -2.238  55.872  1.00  0.00    -0.361 OA
HETATM   28  H8  UNL     1      23.048  -3.203  55.616  1.00  0.00     0.217 HD
ENDBRANCH   7  27
TORSDOF 3
ENDMDL
MODEL 3
REMARK VINA RESULT:      -8.6      4.268      5.903
REMARK  3 active torsions:
REMARK  status: ('A' for Active; 'I' for Inactive)
REMARK    1  A    between atoms: C2_2  and  N1_3 
REMARK    2  A    between atoms: N1_3  and  C3_4 
REMARK    3  A    between atoms: C8_10  and  O1_11 
ROOT
HETATM    1  C3  UNL     1      23.645   3.622  51.303  1.00  0.00     0.158 C 
HETATM    2  C4  UNL     1      23.949   2.500  50.713  1.00  0.00     0.129 C 
HETATM    3  N2  UNL     1      24.297   1.533  51.455  1.00  0.00    -0.279 NA
HETATM    4  C5  UNL     1      24.012   1.620  52.864  1.00  0.00     0.191 C 
HETATM    5  C6  UNL     1      23.054   0.653  53.393  1.00  0.00    -0.002 A 
HETATM    6  C7  UNL     1      23.372  -0.325  54.345  1.00  0.00     0.048 A 
HETATM    7  C8  UNL     1      22.540  -1.274  54.896  1.00  0.00     0.066 A 
HETATM    8  C9  UNL     1      21.232  -1.259  54.460  1.00  0.00     0.039 A 
HETATM    9  C10 UNL     1      20.855  -0.319  53.523  1.00  0.00     0.040 A 
HETATM   10  C11 UNL     1      21.729   0.614  52.997  1.00  0.00     0.085 A 
HETATM   11  O2  UNL     1      21.064   1.423  52.081  1.00  0.00    -0.303 OA
HETATM   12  C12 UNL     1      19.914   2.088  52.555  1.00  0.00     0.260 C 
HETATM   13  N3  UNL     1      20.098   3.379  52.421  1.00  0.00    -0.230 NA
HETATM   14  C13 UNL     1      21.342   3.848  51.859  1.00  0.00     0.237 C 
HETATM   15  N4  UNL     1      22.423   3.126  51.872  1.00  0.00    -0.222 NA
ENDROOT
BRANCH   1  16
HETATM   16  N1  UNL     1      24.116   4.950  51.494  1.00  0.00    -0.344 N 
HETATM   17  H4  UNL     1      24.285   5.148  52.503  1.00  0.00     0.163 HD
BRANCH  16  18
HETATM   18  C2  UNL     1      24.270   5.764  50.282  1.00  0.00     0.145 A 
HETATM   19  C1  UNL     1      22.855   5.867  49.711  1.00  0.00     0.067 C 
HETATM   20  N5  UNL     1      25.127   5.066  49.378  1.00  0.00    -0.268 NA
HETATM   21  C14 UNL     1      26.220   5.448  48.879  1.00  0.00     0.116 A 
HETATM   22  C15 UNL     1      26.852   6.721  49.133  1.00  0.00     0.058 A 
HETATM   23  C16 UNL     1      26.075   7.379  49.965  1.00  0.00     0.118 A 
HETATM   24  F1  UNL     1      26.525   8.626  50.320  1.00  0.00    -0.209 F 
HETATM   25  C17 UNL     1      24.806   7.108  50.633  1.00  0.00     0.194 A 
HETATM   26 CL1  UNL     1      23.634   8.353  50.124  1.00  0.00    -0.113 Cl
ENDBRANCH  16  18
ENDBRANCH   1  16
BRANCH   7  27
HETATM   27  O1  UNL     1      23.031  -2.170  55.833  1.00  0.00    -0.361 OA
HETATM   28  H8  UNL     1      22.446  -2.928  56.120  1.00  0.00     0.217 HD
ENDBRANCH   7  27
TORSDOF 3
ENDMDL
MODEL 4
REMARK VINA RESULT:      -8.4      5.504      6.969
REMARK  3 active torsions:
REMARK  status: ('A' for Active; 'I' for Inactive)
REMARK    1  A    between atoms: C2_2  and  N1_3 
REMARK    2  A    between atoms: N1_3  and  C3_4 
REMARK    3  A    between atoms: C8_10  and  O1_11 
ROOT
HETATM    1  C3  UNL     1      25.618   4.950  50.073  1.00  0.00     0.158 C 
HETATM    2  C4  UNL     1      25.713   3.920  49.280  1.00  0.00     0.129 C 
HETATM    3  N2  UNL     1      26.292   2.889  49.738  1.00  0.00    -0.279 NA
HETATM    4  C5  UNL     1      26.492   2.798  51.160  1.00  0.00     0.191 C 
HETATM    5  C6  UNL     1      25.770   1.733  51.851  1.00  0.00    -0.002 A 
HETATM    6  C7  UNL     1      26.391   0.665  52.513  1.00  0.00     0.048 A 
HETATM    7  C8  UNL     1      25.794  -0.378  53.185  1.00  0.00     0.066 A 
HETATM    8  C9  UNL     1      24.416  -0.373  53.209  1.00  0.00     0.039 A 
HETATM    9  C10 UNL     1      23.744   0.653  52.575  1.00  0.00     0.040 A 
HETATM   10  C11 UNL     1      24.389   1.680  51.913  1.00  0.00     0.085 A 
HETATM   11  O2  UNL     1      23.453   2.559  51.377  1.00  0.00    -0.303 OA
HETATM   12  C12 UNL     1      22.524   3.111  52.283  1.00  0.00     0.260 C 
HETATM   13  N3  UNL     1      22.647   4.415  52.259  1.00  0.00    -0.230 NA
HETATM   14  C13 UNL     1      23.631   5.003  51.382  1.00  0.00     0.237 C 
HETATM   15  N4  UNL     1      24.657   4.335  50.946  1.00  0.00    -0.222 NA
ENDROOT
BRANCH   1  16
HETATM   16  N1  UNL     1      26.120   6.267  50.263  1.00  0.00    -0.344 N 
HETATM   17  H4  UNL     1      26.124   6.526  51.272  1.00  0.00     0.163 HD
BRANCH  16  18
HETATM   18  C2  UNL     1      26.522   6.989  49.050  1.00  0.00     0.145 A 
HETATM   19  C1  UNL     1      25.229   7.135  48.248  1.00  0.00     0.067 C 
HETATM   20  N5  UNL     1      27.465   6.184  48.341  1.00  0.00    -0.268 NA
HETATM   21  C14 UNL     1      28.648   6.470  48.009  1.00  0.00     0.116 A 
HETATM   22  C15 UNL     1      29.315   7.719  48.292  1.00  0.00     0.058 A 
HETATM   23  C16 UNL     1      28.459   8.474  48.946  1.00  0.00     0.118 A 
HETATM   24  F1  UNL     1      28.929   9.713  49.301  1.00  0.00    -0.209 F 
HETATM   25  C17 UNL     1      27.083   8.320  49.409  1.00  0.00     0.194 A 
HETATM   26 CL1  UNL     1      26.096   9.594  48.645  1.00  0.00    -0.113 Cl
ENDBRANCH  16  18
ENDBRANCH   1  16
BRANCH   7  27
HETATM   27  O1  UNL     1      26.574  -1.354  53.786  1.00  0.00    -0.361 OA
HETATM   28  H8  UNL     1      26.938  -2.090  53.217  1.00  0.00     0.217 HD
ENDBRANCH   7  27
TORSDOF 3
ENDMDL
MODEL 5
REMARK VINA RESULT:      -8.3      3.851      7.364
REMARK  3 active torsions:
REMARK  status: ('A' for Active; 'I' for Inactive)
REMARK    1  A    between atoms: C2_2  and  N1_3 
REMARK    2  A    between atoms: N1_3  and  C3_4 
REMARK    3  A    between atoms: C8_10  and  O1_11 
ROOT
HETATM    1  C3  UNL     1      20.688   0.897  51.882  1.00  0.00     0.158 C 
HETATM    2  C4  UNL     1      21.570   0.573  50.979  1.00  0.00     0.129 C 
HETATM    3  N2  UNL     1      22.683   1.181  51.014  1.00  0.00    -0.279 NA
HETATM    4  C5  UNL     1      23.021   1.911  52.208  1.00  0.00     0.191 C 
HETATM    5  C6  UNL     1      24.163   1.416  52.971  1.00  0.00    -0.002 A 
HETATM    6  C7  UNL     1      25.348   2.138  53.168  1.00  0.00     0.048 A 
HETATM    7  C8  UNL     1      26.470   1.752  53.867  1.00  0.00     0.066 A 
HETATM    8  C9  UNL     1      26.423   0.501  54.444  1.00  0.00     0.039 A 
HETATM    9  C10 UNL     1      25.283  -0.261  54.286  1.00  0.00     0.040 A 
HETATM   10  C11 UNL     1      24.180   0.170  53.574  1.00  0.00     0.085 A 
HETATM   11  O2  UNL     1      23.192  -0.809  53.590  1.00  0.00    -0.303 OA
HETATM   12  C12 UNL     1      22.772  -1.251  54.862  1.00  0.00     0.260 C 
HETATM   13  N3  UNL     1      21.487  -1.019  54.976  1.00  0.00    -0.230 NA
HETATM   14  C13 UNL     1      20.791  -0.404  53.872  1.00  0.00     0.237 C 
HETATM   15  N4  UNL     1      21.410   0.299  52.970  1.00  0.00    -0.222 NA
ENDROOT
BRANCH   1  16
HETATM   16  N1  UNL     1      19.439   1.561  52.040  1.00  0.00    -0.344 N 
HETATM   17  H4  UNL     1      18.735   0.936  52.485  1.00  0.00     0.163 HD
BRANCH  16  18
HETATM   18  C2  UNL     1      19.378   2.948  51.563  1.00  0.00     0.145 A 
HETATM   19  C1  UNL     1      20.501   3.659  52.318  1.00  0.00     0.067 C 
HETATM   20  N5  UNL     1      18.107   3.490  51.924  1.00  0.00    -0.268 NA
HETATM   21  C14 UNL     1      17.218   3.974  51.172  1.00  0.00     0.116 A 
HETATM   22  C15 UNL     1      17.309   4.080  49.735  1.00  0.00     0.058 A 
HETATM   23  C16 UNL     1      18.475   3.584  49.384  1.00  0.00     0.118 A 
HETATM   24  F1  UNL     1      18.735   3.603  48.037  1.00  0.00    -0.209 F 
HETATM   25  C17 UNL     1      19.607   2.994  50.093  1.00  0.00     0.194 A 
HETATM   26 CL1  UNL     1      21.049   3.988  49.759  1.00  0.00    -0.113 Cl
ENDBRANCH  16  18
ENDBRANCH   1  16
BRANCH   7  27
HETATM   27  O1  UNL     1      27.559   2.604  53.959  1.00  0.00    -0.361 OA
HETATM   28  H8  UNL     1      27.781   3.180  53.172  1.00  0.00     0.217 HD
ENDBRANCH   7  27
TORSDOF 3
ENDMDL
MODEL 6
REMARK VINA RESULT:      -8.2      4.380      7.832
REMARK  3 active torsions:
REMARK  status: ('A' for Active; 'I' for Inactive)
REMARK    1  A    between atoms: C2_2  and  N1_3 
REMARK    2  A    between atoms: N1_3  and  C3_4 
REMARK    3  A    between atoms: C8_10  and  O1_11 
ROOT
HETATM    1  C3  UNL     1      20.674   0.986  51.929  1.00  0.00     0.158 C 
HETATM    2  C4  UNL     1      21.549   0.693  51.009  1.00  0.00     0.129 C 
HETATM    3  N2  UNL     1      22.661   1.302  51.054  1.00  0.00    -0.279 NA
HETATM    4  C5  UNL     1      23.008   1.994  52.268  1.00  0.00     0.191 C 
HETATM    5  C6  UNL     1      24.157   1.477  53.005  1.00  0.00    -0.002 A 
HETATM    6  C7  UNL     1      25.342   2.195  53.215  1.00  0.00     0.048 A 
HETATM    7  C8  UNL     1      26.471   1.789  53.892  1.00  0.00     0.066 A 
HETATM    8  C9  UNL     1      26.432   0.520  54.428  1.00  0.00     0.039 A 
HETATM    9  C10 UNL     1      25.292  -0.239  54.256  1.00  0.00     0.040 A 
HETATM   10  C11 UNL     1      24.182   0.213  53.567  1.00  0.00     0.085 A 
HETATM   11  O2  UNL     1      23.196  -0.769  53.560  1.00  0.00    -0.303 OA
HETATM   12  C12 UNL     1      22.788  -1.253  54.821  1.00  0.00     0.260 C 
HETATM   13  N3  UNL     1      21.504  -1.027  54.954  1.00  0.00    -0.230 NA
HETATM   14  C13 UNL     1      20.797  -0.378  53.875  1.00  0.00     0.237 C 
HETATM   15  N4  UNL     1      21.406   0.355  52.991  1.00  0.00    -0.222 NA
ENDROOT
BRANCH   1  16
HETATM   16  N1  UNL     1      19.426   1.641  52.119  1.00  0.00    -0.344 N 
HETATM   17  H4  UNL     1      19.453   2.270  52.949  1.00  0.00     0.163 HD
BRANCH  16  18
HETATM   18  C2  UNL     1      18.372   1.321  51.149  1.00  0.00     0.145 A 
HETATM   19  C1  UNL     1      18.160  -0.186  51.301  1.00  0.00     0.067 C 
HETATM   20  N5  UNL     1      18.855   1.632  49.842  1.00  0.00    -0.268 NA
HETATM   21  C14 UNL     1      18.367   2.426  48.992  1.00  0.00     0.116 A 
HETATM   22  C15 UNL     1      17.172   3.215  49.179  1.00  0.00     0.058 A 
HETATM   23  C16 UNL     1      16.712   2.941  50.380  1.00  0.00     0.118 A 
HETATM   24  F1  UNL     1      15.567   3.609  50.731  1.00  0.00    -0.209 F 
HETATM   25  C17 UNL     1      17.129   2.072  51.477  1.00  0.00     0.194 A 
HETATM   26 CL1  UNL     1      15.813   0.912  51.796  1.00  0.00    -0.113 Cl
ENDBRANCH  16  18
ENDBRANCH   1  16
BRANCH   7  27
HETATM   27  O1  UNL     1      27.559   2.640  54.002  1.00  0.00    -0.361 OA
HETATM   28  H8  UNL     1      27.653   3.189  54.832  1.00  0.00     0.217 HD
ENDBRANCH   7  27
TORSDOF 3
ENDMDL
MODEL 7
REMARK VINA RESULT:      -8.1      3.737      5.211
REMARK  3 active torsions:
REMARK  status: ('A' for Active; 'I' for Inactive)
REMARK    1  A    between atoms: C2_2  and  N1_3 
REMARK    2  A    between atoms: N1_3  and  C3_4 
REMARK    3  A    between atoms: C8_10  and  O1_11 
ROOT
HETATM    1  C3  UNL     1      25.117   2.802  51.815  1.00  0.00     0.158 C 
HETATM    2  C4  UNL     1      24.520   3.287  52.867  1.00  0.00     0.129 C 
HETATM    3  N2  UNL     1      23.299   2.987  53.029  1.00  0.00    -0.279 NA
HETATM    4  C5  UNL     1      22.761   1.893  52.263  1.00  0.00     0.191 C 
HETATM    5  C6  UNL     1      22.334   0.719  53.017  1.00  0.00    -0.002 A 
HETATM    6  C7  UNL     1      21.010   0.264  53.078  1.00  0.00     0.048 A 
HETATM    7  C8  UNL     1      20.518  -0.826  53.762  1.00  0.00     0.066 A 
HETATM    8  C9  UNL     1      21.442  -1.560  54.475  1.00  0.00     0.039 A 
HETATM    9  C10 UNL     1      22.764  -1.163  54.457  1.00  0.00     0.040 A 
HETATM   10  C11 UNL     1      23.209  -0.060  53.754  1.00  0.00     0.085 A 
HETATM   11  O2  UNL     1      24.583   0.088  53.924  1.00  0.00    -0.303 OA
HETATM   12  C12 UNL     1      25.378  -1.026  53.581  1.00  0.00     0.260 C 
HETATM   13  N3  UNL     1      26.215  -0.662  52.641  1.00  0.00    -0.230 NA
HETATM   14  C13 UNL     1      26.176   0.700  52.166  1.00  0.00     0.237 C 
HETATM   15  N4  UNL     1      25.122   1.450  52.298  1.00  0.00    -0.222 NA
ENDROOT
BRANCH   1  16
HETATM   16  N1  UNL     1      25.659   3.188  50.558  1.00  0.00    -0.344 N 
HETATM   17  H4  UNL     1      26.520   2.645  50.336  1.00  0.00     0.163 HD
BRANCH  16  18
HETATM   18  C2  UNL     1      24.932   4.239  49.835  1.00  0.00     0.145 A 
HETATM   19  C1  UNL     1      23.843   3.490  49.068  1.00  0.00     0.067 C 
HETATM   20  N5  UNL     1      25.840   4.871  48.931  1.00  0.00    -0.268 NA
HETATM   21  C14 UNL     1      26.168   6.087  48.870  1.00  0.00     0.116 A 
HETATM   22  C15 UNL     1      25.673   7.129  49.739  1.00  0.00     0.058 A 
HETATM   23  C16 UNL     1      24.834   6.563  50.580  1.00  0.00     0.118 A 
HETATM   24  F1  UNL     1      24.260   7.415  51.491  1.00  0.00    -0.209 F 
HETATM   25  C17 UNL     1      24.340   5.207  50.798  1.00  0.00     0.194 A 
HETATM   26 CL1  UNL     1      22.569   5.222  50.595  1.00  0.00    -0.113 Cl
ENDBRANCH  16  18
ENDBRANCH   1  16
BRANCH   7  27
HETATM   27  O1  UNL     1      19.167  -1.129  53.707  1.00  0.00    -0.361 OA
HETATM   28  H8  UNL     1      18.511  -0.435  54.000  1.00  0.00     0.217 HD
ENDBRANCH   7  27
TORSDOF 3
ENDMDL
MODEL 8
REMARK VINA RESULT:      -8.1      3.562      7.027
REMARK  3 active torsions:
REMARK  status: ('A' for Active; 'I' for Inactive)
REMARK    1  A    between atoms: C2_2  and  N1_3 
REMARK    2  A    between atoms: N1_3  and  C3_4 
REMARK    3  A    between atoms: C8_10  and  O1_11 
ROOT
HETATM    1  C3  UNL     1      23.442   2.152  51.854  1.00  0.00     0.158 C 
HETATM    2  C4  UNL     1      24.363   2.038  50.938  1.00  0.00     0.129 C 
HETATM    3  N2  UNL     1      25.513   2.497  51.215  1.00  0.00    -0.279 NA
HETATM    4  C5  UNL     1      25.815   2.790  52.591  1.00  0.00     0.191 C 
HETATM    5  C6  UNL     1      26.856   1.978  53.215  1.00  0.00    -0.002 A 
HETATM    6  C7  UNL     1      28.073   2.488  53.684  1.00  0.00     0.048 A 
HETATM    7  C8  UNL     1      29.108   1.800  54.280  1.00  0.00     0.066 A 
HETATM    8  C9  UNL     1      28.923   0.443  54.434  1.00  0.00     0.039 A 
HETATM    9  C10 UNL     1      27.743  -0.122  53.992  1.00  0.00     0.040 A 
HETATM   10  C11 UNL     1      26.733   0.611  53.398  1.00  0.00     0.085 A 
HETATM   11  O2  UNL     1      25.675  -0.227  53.061  1.00  0.00    -0.303 OA
HETATM   12  C12 UNL     1      25.128  -0.996  54.109  1.00  0.00     0.260 C 
HETATM   13  N3  UNL     1      23.860  -0.689  54.229  1.00  0.00    -0.230 NA
HETATM   14  C13 UNL     1      23.298   0.299  53.340  1.00  0.00     0.237 C 
HETATM   15  N4  UNL     1      24.033   1.183  52.734  1.00  0.00    -0.222 NA
ENDROOT
BRANCH   1  16
HETATM   16  N1  UNL     1      22.240   2.851  52.152  1.00  0.00    -0.344 N 
HETATM   17  H4  UNL     1      22.306   3.340  53.069  1.00  0.00     0.163 HD
BRANCH  16  18
HETATM   18  C2  UNL     1      21.170   2.755  51.151  1.00  0.00     0.145 A 
HETATM   19  C1  UNL     1      19.920   3.244  51.882  1.00  0.00     0.067 C 
HETATM   20  N5  UNL     1      21.029   1.384  50.775  1.00  0.00    -0.268 NA
HETATM   21  C14 UNL     1      21.134   0.870  49.628  1.00  0.00     0.116 A 
HETATM   22  C15 UNL     1      21.433   1.593  48.415  1.00  0.00     0.058 A 
HETATM   23  C16 UNL     1      21.567   2.860  48.743  1.00  0.00     0.118 A 
HETATM   24  F1  UNL     1      21.856   3.703  47.700  1.00  0.00    -0.209 F 
HETATM   25  C17 UNL     1      21.483   3.624  49.983  1.00  0.00     0.194 A 
HETATM   26 CL1  UNL     1      20.191   4.839  49.799  1.00  0.00    -0.113 Cl
ENDBRANCH  16  18
ENDBRANCH   1  16
BRANCH   7  27
HETATM   27  O1  UNL     1      30.248   2.475  54.685  1.00  0.00    -0.361 OA
HETATM   28  H8  UNL     1      30.280   3.468  54.572  1.00  0.00     0.217 HD
ENDBRANCH   7  27
TORSDOF 3
ENDMDL
MODEL 9
REMARK VINA RESULT:      -8.1      3.265      4.394
REMARK  3 active torsions:
REMARK  status: ('A' for Active; 'I' for Inactive)
REMARK    1  A    between atoms: C2_2  and  N1_3 
REMARK    2  A    between atoms: N1_3  and  C3_4 
REMARK    3  A    between atoms: C8_10  and  O1_11 
ROOT
HETATM    1  C3  UNL     1      22.228   1.948  51.820  1.00  0.00     0.158 C 
HETATM    2  C4  UNL     1      21.268   2.672  52.324  1.00  0.00     0.129 C 
HETATM    3  N2  UNL     1      20.098   2.469  51.879  1.00  0.00    -0.279 NA
HETATM    4  C5  UNL     1      19.855   1.265  51.128  1.00  0.00     0.191 C 
HETATM    5  C6  UNL     1      18.942   0.298  51.730  1.00  0.00    -0.002 A 
HETATM    6  C7  UNL     1      17.711  -0.072  51.172  1.00  0.00     0.048 A 
HETATM    7  C8  UNL     1      16.791  -0.969  51.668  1.00  0.00     0.066 A 
HETATM    8  C9  UNL     1      17.120  -1.578  52.860  1.00  0.00     0.039 A 
HETATM    9  C10 UNL     1      18.320  -1.257  53.461  1.00  0.00     0.040 A 
HETATM   10  C11 UNL     1      19.212  -0.348  52.924  1.00  0.00     0.085 A 
HETATM   11  O2  UNL     1      20.326  -0.232  53.751  1.00  0.00    -0.303 OA
HETATM   12  C12 UNL     1      21.012  -1.429  54.045  1.00  0.00     0.260 C 
HETATM   13  N3  UNL     1      22.248  -1.311  53.626  1.00  0.00    -0.230 NA
HETATM   14  C13 UNL     1      22.651  -0.079  52.992  1.00  0.00     0.237 C 
HETATM   15  N4  UNL     1      21.794   0.730  52.443  1.00  0.00    -0.222 NA
ENDROOT
BRANCH   1  16
HETATM   16  N1  UNL     1      23.371   2.035  50.977  1.00  0.00    -0.344 N 
HETATM   17  H4  UNL     1      23.306   1.362  50.185  1.00  0.00     0.163 HD
BRANCH  16  18
HETATM   18  C2  UNL     1      24.390   3.017  51.367  1.00  0.00     0.145 A 
HETATM   19  C1  UNL     1      24.593   2.782  52.864  1.00  0.00     0.067 C 
HETATM   20  N5  UNL     1      23.868   4.324  51.128  1.00  0.00    -0.268 NA
HETATM   21  C14 UNL     1      24.336   5.234  50.392  1.00  0.00     0.116 A 
HETATM   22  C15 UNL     1      25.544   5.133  49.607  1.00  0.00     0.058 A 
HETATM   23  C16 UNL     1      26.039   3.933  49.814  1.00  0.00     0.118 A 
HETATM   24  F1  UNL     1      27.202   3.658  49.139  1.00  0.00    -0.209 F 
HETATM   25  C17 UNL     1      25.650   2.774  50.611  1.00  0.00     0.194 A 
HETATM   26 CL1  UNL     1      26.964   2.427  51.766  1.00  0.00    -0.113 Cl
ENDBRANCH  16  18
ENDBRANCH   1  16
BRANCH   7  27
HETATM   27  O1  UNL     1      15.616  -1.214  50.975  1.00  0.00    -0.361 OA
HETATM   28  H8  UNL     1      14.746  -1.048  51.438  1.00  0.00     0.217 HD
ENDBRANCH   7  27
TORSDOF 3
ENDMDL
