MODEL 1
REMARK VINA RESULT:      -7.7      0.000      0.000
REMARK  4 active torsions:
REMARK  status: ('A' for Active; 'I' for Inactive)
REMARK       I    between atoms: N1_2  and  C2_3 
REMARK       I    between atoms: C2_3  and  N2_4 
REMARK    1  A    between atoms: N3_5  and  C3_6 
REMARK    2  A    between atoms: C3_6  and  C4_7 
REMARK    3  A    between atoms: C4_7  and  C5_8 
REMARK    4  A    between atoms: C5_8  and  C6_9 
ROOT
HETATM    1  C5  UNL     1      25.247  -0.241  53.746  1.00  0.00     0.279 C 
HETATM    2  N4  UNL     1      24.857   0.998  54.307  1.00  0.00    -0.249 NA
HETATM    3  C12 UNL     1      24.670   1.866  53.379  1.00  0.00     0.048 C 
HETATM    4  C13 UNL     1      24.300   3.253  52.989  1.00  0.00     0.057 C 
HETATM    5  C14 UNL     1      23.388   3.037  51.803  1.00  0.00     0.009 C 
HETATM    6  C15 UNL     1      23.802   1.700  51.204  1.00  0.00     0.048 C 
HETATM    7  C16 UNL     1      24.943   1.210  52.063  1.00  0.00     0.197 C 
HETATM    8  C17 UNL     1      26.283   1.662  51.574  1.00  0.00     0.056 C 
HETATM    9  N5  UNL     1      24.926  -0.183  52.352  1.00  0.00     0.134 N 
HETATM   10  H22 UNL     1      24.086  -0.691  52.069  1.00  0.00     0.321 HD
ENDROOT
BRANCH   1  11
HETATM   11  C4  UNL     1      24.680  -1.402  54.473  1.00  0.00     0.093 C 
BRANCH  11  12
HETATM   12  C3  UNL     1      23.723  -1.077  55.588  1.00  0.00     0.157 C 
BRANCH  12  13
HETATM   13  N3  UNL     1      22.335  -1.361  55.189  1.00  0.00    -0.263 NA
HETATM   14  C2  UNL     1      21.824  -0.853  54.121  1.00  0.00     0.161 C 
HETATM   15  N1  UNL     1      21.135  -0.364  52.975  1.00  0.00    -0.373 NA
HETATM   16  N2  UNL     1      20.804  -1.663  54.729  1.00  0.00    -0.273 NA
HETATM   17  C1  UNL     1      20.143   0.457  53.069  1.00  0.00     0.319 C 
HETATM   18  H3  UNL     1      19.976  -2.299  54.678  1.00  0.00     0.127 HD
HETATM   19  H4  UNL     1      19.997  -2.276  54.456  1.00  0.00     0.127 HD
ENDBRANCH  12  13
ENDBRANCH  11  12
ENDBRANCH   1  11
BRANCH   1  20
HETATM   20  C6  UNL     1      26.743  -0.355  53.824  1.00  0.00     0.002 A 
HETATM   21  C7  UNL     1      27.564   0.426  54.621  1.00  0.00     0.014 A 
HETATM   22  C8  UNL     1      28.929   0.222  54.603  1.00  0.00     0.043 A 
HETATM   23  C9  UNL     1      29.507  -0.757  53.798  1.00  0.00     0.116 A 
HETATM   24  F1  UNL     1      30.871  -0.909  53.826  1.00  0.00    -0.206 F 
HETATM   25  C10 UNL     1      28.724  -1.549  52.996  1.00  0.00     0.043 A 
HETATM   26  C11 UNL     1      27.369  -1.311  53.045  1.00  0.00     0.014 A 
ENDBRANCH   1  20
TORSDOF 4
ENDMDL
MODEL 2
REMARK VINA RESULT:      -7.7      3.662      6.326
REMARK  4 active torsions:
REMARK  status: ('A' for Active; 'I' for Inactive)
REMARK       I    between atoms: N1_2  and  C2_3 
REMARK       I    between atoms: C2_3  and  N2_4 
REMARK    1  A    between atoms: N3_5  and  C3_6 
REMARK    2  A    between atoms: C3_6  and  C4_7 
REMARK    3  A    between atoms: C4_7  and  C5_8 
REMARK    4  A    between atoms: C5_8  and  C6_9 
ROOT
HETATM    1  C5  UNL     1      24.250   2.407  51.421  1.00  0.00     0.279 C 
HETATM    2  N4  UNL     1      23.979   2.923  50.132  1.00  0.00    -0.249 NA
HETATM    3  C12 UNL     1      23.496   4.109  50.221  1.00  0.00     0.048 C 
HETATM    4  C13 UNL     1      22.966   5.322  49.542  1.00  0.00     0.057 C 
HETATM    5  C14 UNL     1      23.628   6.449  50.301  1.00  0.00     0.009 C 
HETATM    6  C15 UNL     1      23.926   5.892  51.687  1.00  0.00     0.048 C 
HETATM    7  C16 UNL     1      23.410   4.473  51.669  1.00  0.00     0.197 C 
HETATM    8  C17 UNL     1      21.984   4.359  52.107  1.00  0.00     0.056 C 
HETATM    9  N5  UNL     1      24.242   3.520  52.322  1.00  0.00     0.134 N 
HETATM   10  H22 UNL     1      25.160   3.854  52.620  1.00  0.00     0.321 HD
ENDROOT
BRANCH   1  11
HETATM   11  C4  UNL     1      25.476   1.576  51.460  1.00  0.00     0.093 C 
BRANCH  11  12
HETATM   12  C3  UNL     1      26.775   2.309  51.255  1.00  0.00     0.157 C 
BRANCH  12  13
HETATM   13  N3  UNL     1      27.480   2.495  52.534  1.00  0.00    -0.263 NA
HETATM   14  C2  UNL     1      28.175   1.548  53.063  1.00  0.00     0.161 C 
HETATM   15  N1  UNL     1      28.974   0.597  53.758  1.00  0.00    -0.373 NA
HETATM   16  N2  UNL     1      28.268   2.680  53.945  1.00  0.00    -0.273 NA
HETATM   17  C1  UNL     1      28.615   0.098  54.894  1.00  0.00     0.319 C 
HETATM   18  H3  UNL     1      28.785   3.279  54.630  1.00  0.00     0.127 HD
HETATM   19  H4  UNL     1      28.952   3.133  54.599  1.00  0.00     0.127 HD
ENDBRANCH  12  13
ENDBRANCH  11  12
ENDBRANCH   1  11
BRANCH   1  20
HETATM   20  C6  UNL     1      23.105   1.528  51.837  1.00  0.00     0.002 A 
HETATM   21  C7  UNL     1      22.105   1.064  50.996  1.00  0.00     0.014 A 
HETATM   22  C8  UNL     1      21.105   0.260  51.503  1.00  0.00     0.043 A 
HETATM   23  C9  UNL     1      21.072  -0.100  52.849  1.00  0.00     0.116 A 
HETATM   24  F1  UNL     1      20.049  -0.903  53.290  1.00  0.00    -0.206 F 
HETATM   25  C10 UNL     1      22.046   0.341  53.710  1.00  0.00     0.043 A 
HETATM   26  C11 UNL     1      23.024   1.140  53.162  1.00  0.00     0.014 A 
ENDBRANCH   1  20
TORSDOF 4
ENDMDL
MODEL 3
REMARK VINA RESULT:      -7.5      3.279      5.796
REMARK  4 active torsions:
REMARK  status: ('A' for Active; 'I' for Inactive)
REMARK       I    between atoms: N1_2  and  C2_3 
REMARK       I    between atoms: C2_3  and  N2_4 
REMARK    1  A    between atoms: N3_5  and  C3_6 
REMARK    2  A    between atoms: C3_6  and  C4_7 
REMARK    3  A    between atoms: C4_7  and  C5_8 
REMARK    4  A    between atoms: C5_8  and  C6_9 
ROOT
HETATM    1  C5  UNL     1      23.668   2.955  51.304  1.00  0.00     0.279 C 
HETATM    2  N4  UNL     1      22.427   3.632  51.317  1.00  0.00    -0.249 NA
HETATM    3  C12 UNL     1      21.640   3.132  50.433  1.00  0.00     0.048 C 
HETATM    4  C13 UNL     1      20.313   3.140  49.759  1.00  0.00     0.057 C 
HETATM    5  C14 UNL     1      19.976   1.670  49.664  1.00  0.00     0.009 C 
HETATM    6  C15 UNL     1      21.313   0.940  49.658  1.00  0.00     0.048 C 
HETATM    7  C16 UNL     1      22.362   2.024  49.736  1.00  0.00     0.197 C 
HETATM    8  C17 UNL     1      22.805   2.512  48.393  1.00  0.00     0.056 C 
HETATM    9  N5  UNL     1      23.467   1.733  50.585  1.00  0.00     0.134 N 
HETATM   10  H22 UNL     1      23.385   0.891  51.158  1.00  0.00     0.321 HD
ENDROOT
BRANCH   1  11
HETATM   11  C4  UNL     1      24.250   2.799  52.658  1.00  0.00     0.093 C 
BRANCH  11  12
HETATM   12  C3  UNL     1      24.286   1.395  53.201  1.00  0.00     0.157 C 
BRANCH  12  13
HETATM   13  N3  UNL     1      25.544   0.723  52.835  1.00  0.00    -0.263 NA
HETATM   14  C2  UNL     1      26.328   0.228  53.729  1.00  0.00     0.161 C 
HETATM   15  N1  UNL     1      27.282  -0.360  54.605  1.00  0.00    -0.373 NA
HETATM   16  N2  UNL     1      26.937  -0.024  52.452  1.00  0.00    -0.273 NA
HETATM   17  C1  UNL     1      28.468   0.129  54.758  1.00  0.00     0.319 C 
HETATM   18  H3  UNL     1      27.510  -0.607  51.799  1.00  0.00     0.127 HD
HETATM   19  H4  UNL     1      27.527  -0.748  51.973  1.00  0.00     0.127 HD
ENDBRANCH  12  13
ENDBRANCH  11  12
ENDBRANCH   1  11
BRANCH   1  20
HETATM   20  C6  UNL     1      24.645   3.758  50.492  1.00  0.00     0.002 A 
HETATM   21  C7  UNL     1      24.466   5.075  50.097  1.00  0.00     0.014 A 
HETATM   22  C8  UNL     1      25.442   5.702  49.350  1.00  0.00     0.043 A 
HETATM   23  C9  UNL     1      26.612   5.043  48.980  1.00  0.00     0.116 A 
HETATM   24  F1  UNL     1      27.543   5.725  48.236  1.00  0.00    -0.206 F 
HETATM   25  C10 UNL     1      26.823   3.739  49.353  1.00  0.00     0.043 A 
HETATM   26  C11 UNL     1      25.824   3.151  50.097  1.00  0.00     0.014 A 
ENDBRANCH   1  20
TORSDOF 4
ENDMDL
MODEL 4
REMARK VINA RESULT:      -7.3      2.049      2.806
REMARK  4 active torsions:
REMARK  status: ('A' for Active; 'I' for Inactive)
REMARK       I    between atoms: N1_2  and  C2_3 
REMARK       I    between atoms: C2_3  and  N2_4 
REMARK    1  A    between atoms: N3_5  and  C3_6 
REMARK    2  A    between atoms: C3_6  and  C4_7 
REMARK    3  A    between atoms: C4_7  and  C5_8 
REMARK    4  A    between atoms: C5_8  and  C6_9 
ROOT
HETATM    1  C5  UNL     1      23.892   1.390  52.697  1.00  0.00     0.279 C 
HETATM    2  N4  UNL     1      23.694   2.702  53.185  1.00  0.00    -0.249 NA
HETATM    3  C12 UNL     1      23.791   3.551  52.226  1.00  0.00     0.048 C 
HETATM    4  C13 UNL     1      23.752   4.967  51.771  1.00  0.00     0.057 C 
HETATM    5  C14 UNL     1      22.958   4.885  50.488  1.00  0.00     0.009 C 
HETATM    6  C15 UNL     1      23.165   3.470  49.965  1.00  0.00     0.048 C 
HETATM    7  C16 UNL     1      24.079   2.802  50.965  1.00  0.00     0.197 C 
HETATM    8  C17 UNL     1      25.529   2.964  50.634  1.00  0.00     0.056 C 
HETATM    9  N5  UNL     1      23.753   1.452  51.273  1.00  0.00     0.134 N 
HETATM   10  H22 UNL     1      22.867   1.107  50.899  1.00  0.00     0.321 HD
ENDROOT
BRANCH   1  11
HETATM   11  C4  UNL     1      23.026   0.392  53.369  1.00  0.00     0.093 C 
BRANCH  11  12
HETATM   12  C3  UNL     1      21.585   0.786  53.550  1.00  0.00     0.157 C 
BRANCH  12  13
HETATM   13  N3  UNL     1      20.990   1.206  52.270  1.00  0.00    -0.263 NA
HETATM   14  C2  UNL     1      20.227   2.240  52.189  1.00  0.00     0.161 C 
HETATM   15  N1  UNL     1      19.373   3.353  51.954  1.00  0.00    -0.373 NA
HETATM   16  N2  UNL     1      20.324   1.686  50.866  1.00  0.00    -0.273 NA
HETATM   17  C1  UNL     1      18.134   3.209  51.617  1.00  0.00     0.319 C 
HETATM   18  H3  UNL     1      20.359   1.779  49.825  1.00  0.00     0.127 HD
HETATM   19  H4  UNL     1      20.341   1.998  49.864  1.00  0.00     0.127 HD
ENDBRANCH  12  13
ENDBRANCH  11  12
ENDBRANCH   1  11
BRANCH   1  20
HETATM   20  C6  UNL     1      25.316   0.989  52.958  1.00  0.00     0.002 A 
HETATM   21  C7  UNL     1      26.192   1.653  53.802  1.00  0.00     0.014 A 
HETATM   22  C8  UNL     1      27.480   1.182  53.956  1.00  0.00     0.043 A 
HETATM   23  C9  UNL     1      27.927   0.048  53.281  1.00  0.00     0.116 A 
HETATM   24  F1  UNL     1      29.220  -0.367  53.479  1.00  0.00    -0.206 F 
HETATM   25  C10 UNL     1      27.087  -0.634  52.438  1.00  0.00     0.043 A 
HETATM   26  C11 UNL     1      25.811  -0.130  52.313  1.00  0.00     0.014 A 
ENDBRANCH   1  20
TORSDOF 4
ENDMDL
MODEL 5
REMARK VINA RESULT:      -7.0      3.417      5.833
REMARK  4 active torsions:
REMARK  status: ('A' for Active; 'I' for Inactive)
REMARK       I    between atoms: N1_2  and  C2_3 
REMARK       I    between atoms: C2_3  and  N2_4 
REMARK    1  A    between atoms: N3_5  and  C3_6 
REMARK    2  A    between atoms: C3_6  and  C4_7 
REMARK    3  A    between atoms: C4_7  and  C5_8 
REMARK    4  A    between atoms: C5_8  and  C6_9 
ROOT
HETATM    1  C5  UNL     1      24.053   2.549  51.749  1.00  0.00     0.279 C 
HETATM    2  N4  UNL     1      23.457   1.798  50.710  1.00  0.00    -0.249 NA
HETATM    3  C12 UNL     1      22.405   1.200  51.143  1.00  0.00     0.048 C 
HETATM    4  C13 UNL     1      21.249   0.303  50.873  1.00  0.00     0.057 C 
HETATM    5  C14 UNL     1      20.109   1.004  51.576  1.00  0.00     0.009 C 
HETATM    6  C15 UNL     1      20.751   1.820  52.690  1.00  0.00     0.048 C 
HETATM    7  C16 UNL     1      22.232   1.543  52.588  1.00  0.00     0.197 C 
HETATM    8  C17 UNL     1      22.670   0.373  53.411  1.00  0.00     0.056 C 
HETATM    9  N5  UNL     1      23.073   2.674  52.786  1.00  0.00     0.134 N 
HETATM   10  H22 UNL     1      22.602   3.579  52.844  1.00  0.00     0.321 HD
ENDROOT
BRANCH   1  11
HETATM   11  C4  UNL     1      24.628   3.830  51.272  1.00  0.00     0.093 C 
BRANCH  11  12
HETATM   12  C3  UNL     1      25.150   3.831  49.861  1.00  0.00     0.157 C 
BRANCH  12  13
HETATM   13  N3  UNL     1      26.014   4.998  49.621  1.00  0.00    -0.263 NA
HETATM   14  C2  UNL     1      25.667   6.181  49.993  1.00  0.00     0.161 C 
HETATM   15  N1  UNL     1      25.411   7.535  50.349  1.00  0.00    -0.373 NA
HETATM   16  N2  UNL     1      26.955   6.301  49.367  1.00  0.00    -0.273 NA
HETATM   17  C1  UNL     1      25.208   8.451  49.461  1.00  0.00     0.319 C 
HETATM   18  H3  UNL     1      27.900   6.739  49.271  1.00  0.00     0.127 HD
HETATM   19  H4  UNL     1      27.835   6.867  49.443  1.00  0.00     0.127 HD
ENDBRANCH  12  13
ENDBRANCH  11  12
ENDBRANCH   1  11
BRANCH   1  20
HETATM   20  C6  UNL     1      25.180   1.748  52.338  1.00  0.00     0.002 A 
HETATM   21  C7  UNL     1      25.796   0.667  51.728  1.00  0.00     0.014 A 
HETATM   22  C8  UNL     1      26.823   0.012  52.375  1.00  0.00     0.043 A 
HETATM   23  C9  UNL     1      27.262   0.413  53.635  1.00  0.00     0.116 A 
HETATM   24  F1  UNL     1      28.289  -0.282  54.225  1.00  0.00    -0.206 F 
HETATM   25  C10 UNL     1      26.675   1.479  54.269  1.00  0.00     0.043 A 
HETATM   26  C11 UNL     1      25.654   2.103  53.587  1.00  0.00     0.014 A 
ENDBRANCH   1  20
TORSDOF 4
ENDMDL
MODEL 6
REMARK VINA RESULT:      -6.9      4.694      7.268
REMARK  4 active torsions:
REMARK  status: ('A' for Active; 'I' for Inactive)
REMARK       I    between atoms: N1_2  and  C2_3 
REMARK       I    between atoms: C2_3  and  N2_4 
REMARK    1  A    between atoms: N3_5  and  C3_6 
REMARK    2  A    between atoms: C3_6  and  C4_7 
REMARK    3  A    between atoms: C4_7  and  C5_8 
REMARK    4  A    between atoms: C5_8  and  C6_9 
ROOT
HETATM    1  C5  UNL     1      24.693   3.742  50.343  1.00  0.00     0.279 C 
HETATM    2  N4  UNL     1      23.549   4.132  49.608  1.00  0.00    -0.249 NA
HETATM    3  C12 UNL     1      23.004   5.161  50.150  1.00  0.00     0.048 C 
HETATM    4  C13 UNL     1      21.920   6.180  50.141  1.00  0.00     0.057 C 
HETATM    5  C14 UNL     1      22.660   7.460  50.455  1.00  0.00     0.009 C 
HETATM    6  C15 UNL     1      23.896   7.040  51.239  1.00  0.00     0.048 C 
HETATM    7  C16 UNL     1      23.807   5.537  51.355  1.00  0.00     0.197 C 
HETATM    8  C17 UNL     1      23.074   5.083  52.577  1.00  0.00     0.056 C 
HETATM    9  N5  UNL     1      25.039   4.845  51.188  1.00  0.00     0.134 N 
HETATM   10  H22 UNL     1      25.833   5.408  50.878  1.00  0.00     0.321 HD
ENDROOT
BRANCH   1  11
HETATM   11  C4  UNL     1      25.789   3.248  49.476  1.00  0.00     0.093 C 
BRANCH  11  12
HETATM   12  C3  UNL     1      26.923   4.209  49.235  1.00  0.00     0.157 C 
BRANCH  12  13
HETATM   13  N3  UNL     1      26.422   5.494  48.721  1.00  0.00    -0.263 NA
HETATM   14  C2  UNL     1      27.132   6.566  48.782  1.00  0.00     0.161 C 
HETATM   15  N1  UNL     1      27.803   7.821  48.783  1.00  0.00    -0.373 NA
HETATM   16  N2  UNL     1      25.887   6.923  48.158  1.00  0.00    -0.273 NA
HETATM   17  C1  UNL     1      27.401   8.814  49.504  1.00  0.00     0.319 C 
HETATM   18  H3  UNL     1      25.318   7.481  47.480  1.00  0.00     0.127 HD
HETATM   19  H4  UNL     1      25.513   7.576  47.427  1.00  0.00     0.127 HD
ENDBRANCH  12  13
ENDBRANCH  11  12
ENDBRANCH   1  11
BRANCH   1  20
HETATM   20  C6  UNL     1      24.313   2.617  51.263  1.00  0.00     0.002 A 
HETATM   21  C7  UNL     1      25.027   2.226  52.385  1.00  0.00     0.014 A 
HETATM   22  C8  UNL     1      24.571   1.172  53.151  1.00  0.00     0.043 A 
HETATM   23  C9  UNL     1      23.403   0.486  52.824  1.00  0.00     0.116 A 
HETATM   24  F1  UNL     1      23.005  -0.553  53.627  1.00  0.00    -0.206 F 
HETATM   25  C10 UNL     1      22.672   0.846  51.720  1.00  0.00     0.043 A 
HETATM   26  C11 UNL     1      23.163   1.902  50.984  1.00  0.00     0.014 A 
ENDBRANCH   1  20
TORSDOF 4
ENDMDL
MODEL 7
REMARK VINA RESULT:      -6.9      9.264     11.517
REMARK  4 active torsions:
REMARK  status: ('A' for Active; 'I' for Inactive)
REMARK       I    between atoms: N1_2  and  C2_3 
REMARK       I    between atoms: C2_3  and  N2_4 
REMARK    1  A    between atoms: N3_5  and  C3_6 
REMARK    2  A    between atoms: C3_6  and  C4_7 
REMARK    3  A    between atoms: C4_7  and  C5_8 
REMARK    4  A    between atoms: C5_8  and  C6_9 
ROOT
HETATM    1  C5  UNL     1      28.253   7.450  48.363  1.00  0.00     0.279 C 
HETATM    2  N4  UNL     1      28.731   7.995  47.148  1.00  0.00    -0.249 NA
HETATM    3  C12 UNL     1      29.385   9.077  47.375  1.00  0.00     0.048 C 
HETATM    4  C13 UNL     1      30.166  10.227  46.844  1.00  0.00     0.057 C 
HETATM    5  C14 UNL     1      31.316  10.330  47.819  1.00  0.00     0.009 C 
HETATM    6  C15 UNL     1      30.804   9.737  49.125  1.00  0.00     0.048 C 
HETATM    7  C16 UNL     1      29.376   9.330  48.849  1.00  0.00     0.197 C 
HETATM    8  C17 UNL     1      28.388  10.415  49.141  1.00  0.00     0.056 C 
HETATM    9  N5  UNL     1      28.982   8.087  49.418  1.00  0.00     0.134 N 
HETATM   10  H22 UNL     1      29.727   7.530  49.841  1.00  0.00     0.321 HD
ENDROOT
BRANCH   1  11
HETATM   11  C4  UNL     1      28.289   5.969  48.380  1.00  0.00     0.093 C 
BRANCH  11  12
HETATM   12  C3  UNL     1      29.593   5.337  47.970  1.00  0.00     0.157 C 
BRANCH  12  13
HETATM   13  N3  UNL     1      30.597   5.465  49.039  1.00  0.00    -0.263 NA
HETATM   14  C2  UNL     1      31.751   5.992  48.819  1.00  0.00     0.161 C 
HETATM   15  N1  UNL     1      33.057   6.549  48.719  1.00  0.00    -0.373 NA
HETATM   16  N2  UNL     1      31.720   5.616  50.206  1.00  0.00    -0.273 NA
HETATM   17  C1  UNL     1      34.122   5.829  48.840  1.00  0.00     0.319 C 
HETATM   18  H3  UNL     1      31.979   5.759  51.210  1.00  0.00     0.127 HD
HETATM   19  H4  UNL     1      32.088   5.939  51.134  1.00  0.00     0.127 HD
ENDBRANCH  12  13
ENDBRANCH  11  12
ENDBRANCH   1  11
BRANCH   1  20
HETATM   20  C6  UNL     1      26.819   7.861  48.543  1.00  0.00     0.002 A 
HETATM   21  C7  UNL     1      25.976   8.287  47.529  1.00  0.00     0.014 A 
HETATM   22  C8  UNL     1      24.675   8.638  47.825  1.00  0.00     0.043 A 
HETATM   23  C9  UNL     1      24.182   8.575  49.127  1.00  0.00     0.116 A 
HETATM   24  F1  UNL     1      22.878   8.939  49.354  1.00  0.00    -0.206 F 
HETATM   25  C10 UNL     1      24.989   8.158  50.155  1.00  0.00     0.043 A 
HETATM   26  C11 UNL     1      26.279   7.818  49.815  1.00  0.00     0.014 A 
ENDBRANCH   1  20
TORSDOF 4
ENDMDL
MODEL 8
REMARK VINA RESULT:      -6.9      4.078      7.093
REMARK  4 active torsions:
REMARK  status: ('A' for Active; 'I' for Inactive)
REMARK       I    between atoms: N1_2  and  C2_3 
REMARK       I    between atoms: C2_3  and  N2_4 
REMARK    1  A    between atoms: N3_5  and  C3_6 
REMARK    2  A    between atoms: C3_6  and  C4_7 
REMARK    3  A    between atoms: C4_7  and  C5_8 
REMARK    4  A    between atoms: C5_8  and  C6_9 
ROOT
HETATM    1  C5  UNL     1      23.724   3.029  51.757  1.00  0.00     0.279 C 
HETATM    2  N4  UNL     1      24.185   3.199  53.083  1.00  0.00    -0.249 NA
HETATM    3  C12 UNL     1      25.216   2.461  53.291  1.00  0.00     0.048 C 
HETATM    4  C13 UNL     1      26.278   1.991  54.221  1.00  0.00     0.057 C 
HETATM    5  C14 UNL     1      27.515   2.006  53.353  1.00  0.00     0.009 C 
HETATM    6  C15 UNL     1      27.018   1.832  51.924  1.00  0.00     0.048 C 
HETATM    7  C16 UNL     1      25.517   1.711  52.033  1.00  0.00     0.197 C 
HETATM    8  C17 UNL     1      25.051   0.298  52.197  1.00  0.00     0.056 C 
HETATM    9  N5  UNL     1      24.782   2.398  51.027  1.00  0.00     0.134 N 
HETATM   10  H22 UNL     1      25.323   3.010  50.414  1.00  0.00     0.321 HD
ENDROOT
BRANCH   1  11
HETATM   11  C4  UNL     1      23.215   4.289  51.162  1.00  0.00     0.093 C 
BRANCH  11  12
HETATM   12  C3  UNL     1      23.825   4.687  49.845  1.00  0.00     0.157 C 
BRANCH  12  13
HETATM   13  N3  UNL     1      24.985   5.570  50.049  1.00  0.00    -0.263 NA
HETATM   14  C2  UNL     1      25.889   5.714  49.143  1.00  0.00     0.161 C 
HETATM   15  N1  UNL     1      26.955   5.966  48.235  1.00  0.00    -0.373 NA
HETATM   16  N2  UNL     1      26.274   6.540  50.254  1.00  0.00    -0.273 NA
HETATM   17  C1  UNL     1      28.164   5.576  48.470  1.00  0.00     0.319 C 
HETATM   18  H3  UNL     1      26.715   7.398  50.660  1.00  0.00     0.127 HD
HETATM   19  H4  UNL     1      26.756   7.453  50.446  1.00  0.00     0.127 HD
ENDBRANCH  12  13
ENDBRANCH  11  12
ENDBRANCH   1  11
BRANCH   1  20
HETATM   20  C6  UNL     1      22.584   2.051  51.765  1.00  0.00     0.002 A 
HETATM   21  C7  UNL     1      22.128   1.344  50.663  1.00  0.00     0.014 A 
HETATM   22  C8  UNL     1      21.067   0.472  50.803  1.00  0.00     0.043 A 
HETATM   23  C9  UNL     1      20.438   0.282  52.031  1.00  0.00     0.116 A 
HETATM   24  F1  UNL     1      19.388  -0.600  52.101  1.00  0.00    -0.206 F 
HETATM   25  C10 UNL     1      20.863   0.965  53.143  1.00  0.00     0.043 A 
HETATM   26  C11 UNL     1      21.923   1.824  52.959  1.00  0.00     0.014 A 
ENDBRANCH   1  20
TORSDOF 4
ENDMDL
MODEL 9
REMARK VINA RESULT:      -6.8      2.546      4.182
REMARK  4 active torsions:
REMARK  status: ('A' for Active; 'I' for Inactive)
REMARK       I    between atoms: N1_2  and  C2_3 
REMARK       I    between atoms: C2_3  and  N2_4 
REMARK    1  A    between atoms: N3_5  and  C3_6 
REMARK    2  A    between atoms: C3_6  and  C4_7 
REMARK    3  A    between atoms: C4_7  and  C5_8 
REMARK    4  A    between atoms: C5_8  and  C6_9 
ROOT
HETATM    1  C5  UNL     1      23.001   3.385  51.792  1.00  0.00     0.279 C 
HETATM    2  N4  UNL     1      23.530   4.685  51.971  1.00  0.00    -0.249 NA
HETATM    3  C12 UNL     1      24.142   5.065  50.908  1.00  0.00     0.048 C 
HETATM    4  C13 UNL     1      24.920   6.112  50.192  1.00  0.00     0.057 C 
HETATM    5  C14 UNL     1      24.299   6.110  48.815  1.00  0.00     0.009 C 
HETATM    6  C15 UNL     1      23.722   4.713  48.625  1.00  0.00     0.048 C 
HETATM    7  C16 UNL     1      24.049   3.967  49.896  1.00  0.00     0.197 C 
HETATM    8  C17 UNL     1      25.365   3.258  49.840  1.00  0.00     0.056 C 
HETATM    9  N5  UNL     1      23.012   3.124  50.384  1.00  0.00     0.134 N 
HETATM   10  H22 UNL     1      22.110   3.201  49.913  1.00  0.00     0.321 HD
ENDROOT
BRANCH   1  11
HETATM   11  C4  UNL     1      21.687   3.205  52.454  1.00  0.00     0.093 C 
BRANCH  11  12
HETATM   12  C3  UNL     1      20.599   2.606  51.604  1.00  0.00     0.157 C 
BRANCH  12  13
HETATM   13  N3  UNL     1      20.182   1.296  52.131  1.00  0.00    -0.263 NA
HETATM   14  C2  UNL     1      20.523   0.905  53.310  1.00  0.00     0.161 C 
HETATM   15  N1  UNL     1      20.824   0.348  54.584  1.00  0.00    -0.373 NA
HETATM   16  N2  UNL     1      19.732  -0.147  52.732  1.00  0.00    -0.273 NA
HETATM   17  C1  UNL     1      21.587  -0.685  54.719  1.00  0.00     0.319 C 
HETATM   18  H3  UNL     1      19.043  -0.931  52.801  1.00  0.00     0.127 HD
HETATM   19  H4  UNL     1      19.041  -0.882  53.020  1.00  0.00     0.127 HD
ENDBRANCH  12  13
ENDBRANCH  11  12
ENDBRANCH   1  11
BRANCH   1  20
HETATM   20  C6  UNL     1      23.947   2.392  52.406  1.00  0.00     0.002 A 
HETATM   21  C7  UNL     1      23.959   1.031  52.144  1.00  0.00     0.014 A 
HETATM   22  C8  UNL     1      24.882   0.223  52.776  1.00  0.00     0.043 A 
HETATM   23  C9  UNL     1      25.809   0.742  53.678  1.00  0.00     0.116 A 
HETATM   24  F1  UNL     1      26.699  -0.117  54.273  1.00  0.00    -0.206 F 
HETATM   25  C10 UNL     1      25.825   2.085  53.961  1.00  0.00     0.043 A 
HETATM   26  C11 UNL     1      24.888   2.855  53.309  1.00  0.00     0.014 A 
ENDBRANCH   1  20
TORSDOF 4
ENDMDL
