MODEL 1
REMARK VINA RESULT:      -7.7      0.000      0.000
REMARK  2 active torsions:
REMARK  status: ('A' for Active; 'I' for Inactive)
REMARK    1  A    between atoms: O1_2  and  C2_3 
REMARK    2  A    between atoms: C3_4  and  O2_5 
ROOT
HETATM    1  C2  UNL     1      20.750   2.069  52.562  1.00  0.00     0.085 C 
HETATM    2  C3  UNL     1      21.870   2.621  52.234  1.00  0.00     0.108 C 
HETATM    3  C5  UNL     1      23.378   2.213  52.258  1.00  0.00     0.217 C 
HETATM    4  O3  UNL     1      23.745   2.430  51.004  1.00  0.00    -0.374 OA
HETATM    5  C6  UNL     1      24.795   3.122  50.541  1.00  0.00     0.171 C 
HETATM    6  C7  UNL     1      26.199   2.586  50.517  1.00  0.00     0.055 C 
HETATM    7  C8  UNL     1      26.522   2.034  51.773  1.00  0.00     0.107 C 
HETATM    8  C9  UNL     1      27.765   2.131  52.525  1.00  0.00     0.013 C 
HETATM    9  C10 UNL     1      27.813   1.503  53.756  1.00  0.00    -0.009 C 
HETATM   10 BR1  UNL     1      29.421   1.753  54.745  1.00  0.00    -0.056 Br
HETATM   11  C11 UNL     1      26.814   0.613  54.520  1.00  0.00     0.086 C 
HETATM   12  C12 UNL     1      25.810   0.075  53.539  1.00  0.00    -0.038 C 
HETATM   13  C13 UNL     1      26.472  -0.556  52.518  1.00  0.00     0.091 C 
HETATM   14  N1  UNL     1      26.408   0.531  51.551  1.00  0.00    -0.390 N 
HETATM   15  C14 UNL     1      24.364   0.135  53.438  1.00  0.00     0.022 C 
HETATM   16  C15 UNL     1      23.435   0.932  52.956  1.00  0.00     0.024 C 
HETATM   17  C16 UNL     1      22.178   0.205  53.278  1.00  0.00     0.164 C 
HETATM   18  O4  UNL     1      22.024  -0.976  53.760  1.00  0.00    -0.292 OA
HETATM   19  C17 UNL     1      20.796   0.714  53.101  1.00  0.00     0.150 C 
HETATM   20  H17 UNL     1      26.260   0.141  50.590  1.00  0.00     0.159 HD
ENDROOT
BRANCH   1  21
HETATM   21  O1  UNL     1      19.631   2.851  52.352  1.00  0.00    -0.357 OA
HETATM   22  C1  UNL     1      18.576   2.281  51.591  1.00  0.00     0.209 C 
ENDBRANCH   1  21
BRANCH   2  23
HETATM   23  O2  UNL     1      21.699   3.929  51.725  1.00  0.00    -0.355 OA
HETATM   24  C4  UNL     1      22.285   5.046  52.397  1.00  0.00     0.209 C 
ENDBRANCH   2  23
TORSDOF 2
ENDMDL
MODEL 2
REMARK VINA RESULT:      -7.2      3.428      6.029
REMARK  2 active torsions:
REMARK  status: ('A' for Active; 'I' for Inactive)
REMARK    1  A    between atoms: O1_2  and  C2_3 
REMARK    2  A    between atoms: C3_4  and  O2_5 
ROOT
HETATM    1  C2  UNL     1      25.689   0.458  53.234  1.00  0.00     0.085 C 
HETATM    2  C3  UNL     1      25.241   1.528  52.666  1.00  0.00     0.108 C 
HETATM    3  C5  UNL     1      23.845   2.067  52.217  1.00  0.00     0.217 C 
HETATM    4  O3  UNL     1      23.794   3.245  52.818  1.00  0.00    -0.374 OA
HETATM    5  C6  UNL     1      23.500   4.445  52.298  1.00  0.00     0.171 C 
HETATM    6  C7  UNL     1      22.099   4.901  52.000  1.00  0.00     0.055 C 
HETATM    7  C8  UNL     1      21.413   3.901  51.281  1.00  0.00     0.107 C 
HETATM    8  C9  UNL     1      20.504   4.042  50.152  1.00  0.00     0.013 C 
HETATM    9  C10 UNL     1      19.975   2.885  49.614  1.00  0.00    -0.009 C 
HETATM   10 BR1  UNL     1      18.881   3.118  48.073  1.00  0.00    -0.056 Br
HETATM   11  C11 UNL     1      20.081   1.399  50.010  1.00  0.00     0.086 C 
HETATM   12  C12 UNL     1      20.533   1.320  51.442  1.00  0.00    -0.038 C 
HETATM   13  C13 UNL     1      19.684   2.060  52.223  1.00  0.00     0.091 C 
HETATM   14  N1  UNL     1      20.514   3.252  52.326  1.00  0.00    -0.390 N 
HETATM   15  C14 UNL     1      21.656   0.694  52.113  1.00  0.00     0.022 C 
HETATM   16  C15 UNL     1      22.909   0.964  52.415  1.00  0.00     0.024 C 
HETATM   17  C16 UNL     1      23.342  -0.257  53.144  1.00  0.00     0.164 C 
HETATM   18  O4  UNL     1      22.642  -1.263  53.531  1.00  0.00    -0.292 OA
HETATM   19  C17 UNL     1      24.721  -0.573  53.590  1.00  0.00     0.150 C 
HETATM   20  H17 UNL     1      20.426   3.663  53.285  1.00  0.00     0.159 HD
ENDROOT
BRANCH   1  21
HETATM   21  O1  UNL     1      27.055   0.434  53.436  1.00  0.00    -0.357 OA
HETATM   22  C1  UNL     1      27.509   0.189  54.759  1.00  0.00     0.209 C 
ENDBRANCH   1  21
BRANCH   2  23
HETATM   23  O2  UNL     1      26.269   2.453  52.370  1.00  0.00    -0.355 OA
HETATM   24  C4  UNL     1      26.612   2.737  51.012  1.00  0.00     0.209 C 
ENDBRANCH   2  23
TORSDOF 2
ENDMDL
MODEL 3
REMARK VINA RESULT:      -6.9      3.004      4.368
REMARK  2 active torsions:
REMARK  status: ('A' for Active; 'I' for Inactive)
REMARK    1  A    between atoms: O1_2  and  C2_3 
REMARK    2  A    between atoms: C3_4  and  O2_5 
ROOT
HETATM    1  C2  UNL     1      19.184  -0.869  53.229  1.00  0.00     0.085 C 
HETATM    2  C3  UNL     1      19.343  -0.027  52.263  1.00  0.00     0.108 C 
HETATM    3  C5  UNL     1      20.501   0.882  51.739  1.00  0.00     0.217 C 
HETATM    4  O3  UNL     1      20.580   0.526  50.466  1.00  0.00    -0.374 OA
HETATM    5  C6  UNL     1      20.591   1.301  49.373  1.00  0.00     0.171 C 
HETATM    6  C7  UNL     1      21.803   2.055  48.900  1.00  0.00     0.055 C 
HETATM    7  C8  UNL     1      22.378   2.760  49.976  1.00  0.00     0.107 C 
HETATM    8  C9  UNL     1      22.932   4.107  50.000  1.00  0.00     0.013 C 
HETATM    9  C10 UNL     1      23.423   4.570  51.206  1.00  0.00    -0.009 C 
HETATM   10 BR1  UNL     1      24.034   6.374  51.208  1.00  0.00    -0.056 Br
HETATM   11  C11 UNL     1      23.591   3.917  52.592  1.00  0.00     0.086 C 
HETATM   12  C12 UNL     1      23.548   2.424  52.422  1.00  0.00    -0.038 C 
HETATM   13  C13 UNL     1      24.488   2.050  51.498  1.00  0.00     0.091 C 
HETATM   14  N1  UNL     1      23.589   1.918  50.359  1.00  0.00    -0.390 N 
HETATM   15  C14 UNL     1      22.720   1.368  52.973  1.00  0.00     0.022 C 
HETATM   16  C15 UNL     1      21.572   0.775  52.725  1.00  0.00     0.024 C 
HETATM   17  C16 UNL     1      21.487  -0.241  53.808  1.00  0.00     0.164 C 
HETATM   18  O4  UNL     1      22.370  -0.577  54.678  1.00  0.00    -0.292 OA
HETATM   19  C17 UNL     1      20.320  -1.105  54.114  1.00  0.00     0.150 C 
HETATM   20  H17 UNL     1      23.884   1.106  49.767  1.00  0.00     0.159 HD
ENDROOT
BRANCH   1  21
HETATM   21  O1  UNL     1      17.933  -1.449  53.296  1.00  0.00    -0.357 OA
HETATM   22  C1  UNL     1      17.868  -2.798  53.735  1.00  0.00     0.209 C 
ENDBRANCH   1  21
BRANCH   2  23
HETATM   23  O2  UNL     1      18.179   0.118  51.475  1.00  0.00    -0.355 OA
HETATM   24  C4  UNL     1      17.457   1.351  51.477  1.00  0.00     0.209 C 
ENDBRANCH   2  23
TORSDOF 2
ENDMDL
MODEL 4
REMARK VINA RESULT:      -6.7      5.172      7.824
REMARK  2 active torsions:
REMARK  status: ('A' for Active; 'I' for Inactive)
REMARK    1  A    between atoms: O1_2  and  C2_3 
REMARK    2  A    between atoms: C3_4  and  O2_5 
ROOT
HETATM    1  C2  UNL     1      27.777   8.079  47.840  1.00  0.00     0.085 C 
HETATM    2  C3  UNL     1      26.618   7.978  48.399  1.00  0.00     0.108 C 
HETATM    3  C5  UNL     1      25.810   6.853  49.123  1.00  0.00     0.217 C 
HETATM    4  O3  UNL     1      25.503   7.428  50.275  1.00  0.00    -0.374 OA
HETATM    5  C6  UNL     1      24.310   7.526  50.878  1.00  0.00     0.171 C 
HETATM    6  C7  UNL     1      23.668   6.400  51.641  1.00  0.00     0.055 C 
HETATM    7  C8  UNL     1      23.707   5.219  50.873  1.00  0.00     0.107 C 
HETATM    8  C9  UNL     1      22.680   4.200  50.704  1.00  0.00     0.013 C 
HETATM    9  C10 UNL     1      22.972   3.137  49.871  1.00  0.00    -0.009 C 
HETATM   10 BR1  UNL     1      21.557   1.893  49.597  1.00  0.00    -0.056 Br
HETATM   11  C11 UNL     1      24.239   2.728  49.095  1.00  0.00     0.086 C 
HETATM   12  C12 UNL     1      25.417   3.441  49.698  1.00  0.00    -0.038 C 
HETATM   13  C13 UNL     1      25.461   3.178  51.043  1.00  0.00     0.091 C 
HETATM   14  N1  UNL     1      24.842   4.416  51.497  1.00  0.00    -0.390 N 
HETATM   15  C14 UNL     1      26.427   4.343  49.178  1.00  0.00     0.022 C 
HETATM   16  C15 UNL     1      26.590   5.630  48.958  1.00  0.00     0.024 C 
HETATM   17  C16 UNL     1      27.969   5.697  48.404  1.00  0.00     0.164 C 
HETATM   18  O4  UNL     1      28.850   4.768  48.306  1.00  0.00    -0.292 OA
HETATM   19  C17 UNL     1      28.630   6.895  47.831  1.00  0.00     0.150 C 
HETATM   20  H17 UNL     1      25.299   4.735  52.384  1.00  0.00     0.159 HD
ENDROOT
BRANCH   1  21
HETATM   21  O1  UNL     1      28.064   9.324  47.315  1.00  0.00    -0.357 OA
HETATM   22  C1  UNL     1      29.296   9.918  47.696  1.00  0.00     0.209 C 
ENDBRANCH   1  21
BRANCH   2  23
HETATM   23  O2  UNL     1      25.885   9.186  48.348  1.00  0.00    -0.355 OA
HETATM   24  C4  UNL     1      24.708   9.280  47.543  1.00  0.00     0.209 C 
ENDBRANCH   2  23
TORSDOF 2
ENDMDL
MODEL 5
REMARK VINA RESULT:      -6.7      3.144      5.034
REMARK  2 active torsions:
REMARK  status: ('A' for Active; 'I' for Inactive)
REMARK    1  A    between atoms: O1_2  and  C2_3 
REMARK    2  A    between atoms: C3_4  and  O2_5 
ROOT
HETATM    1  C2  UNL     1      22.682  -0.360  53.044  1.00  0.00     0.085 C 
HETATM    2  C3  UNL     1      22.124   0.352  52.123  1.00  0.00     0.108 C 
HETATM    3  C5  UNL     1      22.511   1.610  51.280  1.00  0.00     0.217 C 
HETATM    4  O3  UNL     1      22.324   1.183  50.041  1.00  0.00    -0.374 OA
HETATM    5  C6  UNL     1      21.631   1.756  49.048  1.00  0.00     0.171 C 
HETATM    6  C7  UNL     1      22.149   2.905  48.227  1.00  0.00     0.055 C 
HETATM    7  C8  UNL     1      22.661   3.906  49.076  1.00  0.00     0.107 C 
HETATM    8  C9  UNL     1      22.527   5.353  48.974  1.00  0.00     0.013 C 
HETATM    9  C10 UNL     1      23.119   6.116  49.962  1.00  0.00    -0.009 C 
HETATM   10 BR1  UNL     1      22.821   7.993  49.841  1.00  0.00    -0.056 Br
HETATM   11  C11 UNL     1      24.001   5.763  51.175  1.00  0.00     0.086 C 
HETATM   12  C12 UNL     1      24.580   4.393  50.959  1.00  0.00    -0.038 C 
HETATM   13  C13 UNL     1      25.231   4.364  49.753  1.00  0.00     0.091 C 
HETATM   14  N1  UNL     1      24.171   3.726  48.983  1.00  0.00    -0.390 N 
HETATM   15  C14 UNL     1      24.543   3.151  51.708  1.00  0.00     0.022 C 
HETATM   16  C15 UNL     1      23.771   2.092  51.837  1.00  0.00     0.024 C 
HETATM   17  C16 UNL     1      24.507   1.270  52.835  1.00  0.00     0.164 C 
HETATM   18  O4  UNL     1      25.676   1.454  53.335  1.00  0.00    -0.292 OA
HETATM   19  C17 UNL     1      24.021   0.025  53.478  1.00  0.00     0.150 C 
HETATM   20  H17 UNL     1      24.589   3.063  48.288  1.00  0.00     0.159 HD
ENDROOT
BRANCH   1  21
HETATM   21  O1  UNL     1      21.922  -1.416  53.505  1.00  0.00    -0.357 OA
HETATM   22  C1  UNL     1      21.888  -1.626  54.909  1.00  0.00     0.209 C 
ENDBRANCH   1  21
BRANCH   2  23
HETATM   23  O2  UNL     1      20.833  -0.116  51.786  1.00  0.00    -0.355 OA
HETATM   24  C4  UNL     1      19.677   0.650  52.131  1.00  0.00     0.209 C 
ENDBRANCH   2  23
TORSDOF 2
ENDMDL
MODEL 6
REMARK VINA RESULT:      -6.6      3.326      6.497
REMARK  2 active torsions:
REMARK  status: ('A' for Active; 'I' for Inactive)
REMARK    1  A    between atoms: O1_2  and  C2_3 
REMARK    2  A    between atoms: C3_4  and  O2_5 
ROOT
HETATM    1  C2  UNL     1      27.123   1.985  53.219  1.00  0.00     0.085 C 
HETATM    2  C3  UNL     1      25.947   1.612  53.599  1.00  0.00     0.108 C 
HETATM    3  C5  UNL     1      24.529   1.517  52.949  1.00  0.00     0.217 C 
HETATM    4  O3  UNL     1      24.202   0.255  53.176  1.00  0.00    -0.374 OA
HETATM    5  C6  UNL     1      23.079  -0.241  53.714  1.00  0.00     0.171 C 
HETATM    6  C7  UNL     1      21.787  -0.383  52.957  1.00  0.00     0.055 C 
HETATM    7  C8  UNL     1      21.491   0.821  52.286  1.00  0.00     0.107 C 
HETATM    8  C9  UNL     1      20.209   1.494  52.133  1.00  0.00     0.013 C 
HETATM    9  C10 UNL     1      20.198   2.687  51.435  1.00  0.00    -0.009 C 
HETATM   10 BR1  UNL     1      18.518   3.581  51.359  1.00  0.00    -0.056 Br
HETATM   11  C11 UNL     1      21.287   3.470  50.677  1.00  0.00     0.086 C 
HETATM   12  C12 UNL     1      22.420   2.531  50.369  1.00  0.00    -0.038 C 
HETATM   13  C13 UNL     1      21.931   1.440  49.699  1.00  0.00     0.091 C 
HETATM   14  N1  UNL     1      21.866   0.534  50.838  1.00  0.00    -0.390 N 
HETATM   15  C14 UNL     1      23.839   2.527  50.671  1.00  0.00     0.022 C 
HETATM   16  C15 UNL     1      24.648   2.147  51.637  1.00  0.00     0.024 C 
HETATM   17  C16 UNL     1      25.988   2.514  51.107  1.00  0.00     0.164 C 
HETATM   18  O4  UNL     1      26.309   2.946  49.941  1.00  0.00    -0.292 OA
HETATM   19  C17 UNL     1      27.273   2.452  51.845  1.00  0.00     0.150 C 
HETATM   20  H17 UNL     1      22.131  -0.434  50.535  1.00  0.00     0.159 HD
ENDROOT
BRANCH   1  21
HETATM   21  O1  UNL     1      28.105   1.886  54.184  1.00  0.00    -0.357 OA
HETATM   22  C1  UNL     1      29.279   1.163  53.842  1.00  0.00     0.209 C 
ENDBRANCH   1  21
BRANCH   2  23
HETATM   23  O2  UNL     1      25.925   1.180  54.945  1.00  0.00    -0.355 OA
HETATM   24  C4  UNL     1      26.260  -0.170  55.273  1.00  0.00     0.209 C 
ENDBRANCH   2  23
TORSDOF 2
ENDMDL
MODEL 7
REMARK VINA RESULT:      -6.6      3.385      6.095
REMARK  2 active torsions:
REMARK  status: ('A' for Active; 'I' for Inactive)
REMARK    1  A    between atoms: O1_2  and  C2_3 
REMARK    2  A    between atoms: C3_4  and  O2_5 
ROOT
HETATM    1  C2  UNL     1      25.123   0.419  52.602  1.00  0.00     0.085 C 
HETATM    2  C3  UNL     1      23.960   0.817  52.207  1.00  0.00     0.108 C 
HETATM    3  C5  UNL     1      23.407   1.984  51.327  1.00  0.00     0.217 C 
HETATM    4  O3  UNL     1      22.680   1.337  50.431  1.00  0.00    -0.374 OA
HETATM    5  C6  UNL     1      21.413   1.558  50.054  1.00  0.00     0.171 C 
HETATM    6  C7  UNL     1      21.005   2.657  49.113  1.00  0.00     0.055 C 
HETATM    7  C8  UNL     1      21.591   3.874  49.515  1.00  0.00     0.107 C 
HETATM    8  C9  UNL     1      21.007   5.208  49.545  1.00  0.00     0.013 C 
HETATM    9  C10 UNL     1      21.803   6.239  50.007  1.00  0.00    -0.009 C 
HETATM   10 BR1  UNL     1      20.957   7.940  50.129  1.00  0.00    -0.056 Br
HETATM   11  C11 UNL     1      23.276   6.309  50.453  1.00  0.00     0.086 C 
HETATM   12  C12 UNL     1      23.996   5.108  49.906  1.00  0.00    -0.038 C 
HETATM   13  C13 UNL     1      23.814   5.054  48.548  1.00  0.00     0.091 C 
HETATM   14  N1  UNL     1      22.748   4.062  48.542  1.00  0.00    -0.390 N 
HETATM   15  C14 UNL     1      24.759   4.028  50.503  1.00  0.00     0.022 C 
HETATM   16  C15 UNL     1      24.551   2.845  51.040  1.00  0.00     0.024 C 
HETATM   17  C16 UNL     1      25.926   2.397  51.390  1.00  0.00     0.164 C 
HETATM   18  O4  UNL     1      27.054   2.940  51.104  1.00  0.00    -0.292 OA
HETATM   19  C17 UNL     1      26.285   1.186  52.167  1.00  0.00     0.150 C 
HETATM   20  H17 UNL     1      22.864   3.423  47.719  1.00  0.00     0.159 HD
ENDROOT
BRANCH   1  21
HETATM   21  O1  UNL     1      25.112  -0.708  53.400  1.00  0.00    -0.357 OA
HETATM   22  C1  UNL     1      25.609  -0.569  54.724  1.00  0.00     0.209 C 
ENDBRANCH   1  21
BRANCH   2  23
HETATM   23  O2  UNL     1      22.915  -0.003  52.690  1.00  0.00    -0.355 OA
HETATM   24  C4  UNL     1      21.982   0.507  53.646  1.00  0.00     0.209 C 
ENDBRANCH   2  23
TORSDOF 2
ENDMDL
MODEL 8
REMARK VINA RESULT:      -6.4      8.783     11.273
REMARK  2 active torsions:
REMARK  status: ('A' for Active; 'I' for Inactive)
REMARK    1  A    between atoms: O1_2  and  C2_3 
REMARK    2  A    between atoms: C3_4  and  O2_5 
ROOT
HETATM    1  C2  UNL     1      31.648   5.745  47.010  1.00  0.00     0.085 C 
HETATM    2  C3  UNL     1      31.550   7.030  47.093  1.00  0.00     0.108 C 
HETATM    3  C5  UNL     1      30.530   8.046  47.701  1.00  0.00     0.217 C 
HETATM    4  O3  UNL     1      31.304   8.788  48.477  1.00  0.00    -0.374 OA
HETATM    5  C6  UNL     1      31.405  10.123  48.538  1.00  0.00     0.171 C 
HETATM    6  C7  UNL     1      30.410  11.000  49.245  1.00  0.00     0.055 C 
HETATM    7  C8  UNL     1      29.102  10.650  48.856  1.00  0.00     0.107 C 
HETATM    8  C9  UNL     1      27.969  11.515  48.558  1.00  0.00     0.013 C 
HETATM    9  C10 UNL     1      26.788  10.908  48.177  1.00  0.00    -0.009 C 
HETATM   10 BR1  UNL     1      25.374  12.087  47.693  1.00  0.00    -0.056 Br
HETATM   11  C11 UNL     1      26.355   9.433  48.063  1.00  0.00     0.086 C 
HETATM   12  C12 UNL     1      27.300   8.596  48.880  1.00  0.00    -0.038 C 
HETATM   13  C13 UNL     1      27.338   9.082  50.161  1.00  0.00     0.091 C 
HETATM   14  N1  UNL     1      28.574   9.843  50.036  1.00  0.00    -0.390 N 
HETATM   15  C14 UNL     1      28.168   7.473  48.584  1.00  0.00     0.022 C 
HETATM   16  C15 UNL     1      29.388   7.250  48.142  1.00  0.00     0.024 C 
HETATM   17  C16 UNL     1      29.477   5.766  48.155  1.00  0.00     0.164 C 
HETATM   18  O4  UNL     1      28.645   4.907  48.624  1.00  0.00    -0.292 OA
HETATM   19  C17 UNL     1      30.585   4.946  47.608  1.00  0.00     0.150 C 
HETATM   20  H17 UNL     1      29.122   9.776  50.927  1.00  0.00     0.159 HD
ENDROOT
BRANCH   1  21
HETATM   21  O1  UNL     1      32.774   5.289  46.353  1.00  0.00    -0.357 OA
HETATM   22  C1  UNL     1      32.679   4.027  45.707  1.00  0.00     0.209 C 
ENDBRANCH   1  21
BRANCH   2  23
HETATM   23  O2  UNL     1      32.636   7.696  46.480  1.00  0.00    -0.355 OA
HETATM   24  C4  UNL     1      32.434   8.457  45.287  1.00  0.00     0.209 C 
ENDBRANCH   2  23
TORSDOF 2
ENDMDL
MODEL 9
REMARK VINA RESULT:      -6.4      6.760      8.857
REMARK  2 active torsions:
REMARK  status: ('A' for Active; 'I' for Inactive)
REMARK    1  A    between atoms: O1_2  and  C2_3 
REMARK    2  A    between atoms: C3_4  and  O2_5 
ROOT
HETATM    1  C2  UNL     1      25.858   4.896  49.384  1.00  0.00     0.085 C 
HETATM    2  C3  UNL     1      25.659   6.162  49.229  1.00  0.00     0.108 C 
HETATM    3  C5  UNL     1      26.479   7.374  48.681  1.00  0.00     0.217 C 
HETATM    4  O3  UNL     1      25.659   7.877  47.772  1.00  0.00    -0.374 OA
HETATM    5  C6  UNL     1      25.253   9.144  47.612  1.00  0.00     0.171 C 
HETATM    6  C7  UNL     1      26.095  10.213  46.972  1.00  0.00     0.055 C 
HETATM    7  C8  UNL     1      27.387  10.205  47.535  1.00  0.00     0.107 C 
HETATM    8  C9  UNL     1      28.232  11.331  47.908  1.00  0.00     0.013 C 
HETATM    9  C10 UNL     1      29.464  11.042  48.463  1.00  0.00    -0.009 C 
HETATM   10 BR1  UNL     1      30.482  12.547  49.034  1.00  0.00    -0.056 Br
HETATM   11  C11 UNL     1      30.216   9.723  48.724  1.00  0.00     0.086 C 
HETATM   12  C12 UNL     1      29.612   8.653  47.857  1.00  0.00    -0.038 C 
HETATM   13  C13 UNL     1      29.626   9.070  46.552  1.00  0.00     0.091 C 
HETATM   14  N1  UNL     1      28.240   9.511  46.480  1.00  0.00    -0.390 N 
HETATM   15  C14 UNL     1      29.003   7.363  48.122  1.00  0.00     0.022 C 
HETATM   16  C15 UNL     1      27.824   6.866  48.431  1.00  0.00     0.024 C 
HETATM   17  C16 UNL     1      28.093   5.404  48.504  1.00  0.00     0.164 C 
HETATM   18  O4  UNL     1      29.159   4.758  48.193  1.00  0.00    -0.292 OA
HETATM   19  C17 UNL     1      27.149   4.359  48.968  1.00  0.00     0.150 C 
HETATM   20  H17 UNL     1      27.844   9.281  45.537  1.00  0.00     0.159 HD
ENDROOT
BRANCH   1  21
HETATM   21  O1  UNL     1      24.797   4.202  49.932  1.00  0.00    -0.357 OA
HETATM   22  C1  UNL     1      25.109   3.078  50.742  1.00  0.00     0.209 C 
ENDBRANCH   1  21
BRANCH   2  23
HETATM   23  O2  UNL     1      24.375   6.564  49.664  1.00  0.00    -0.355 OA
HETATM   24  C4  UNL     1      24.233   7.370  50.836  1.00  0.00     0.209 C 
ENDBRANCH   2  23
TORSDOF 2
ENDMDL
