MODEL 1
REMARK VINA RESULT:      -7.9      0.000      0.000
REMARK  3 active torsions:
REMARK  status: ('A' for Active; 'I' for Inactive)
REMARK    1  A    between atoms: C5_5  and  N1_6 
REMARK       I    between atoms: N1_6  and  C6_7 
REMARK    2  A    between atoms: C6_7  and  C7_9 
REMARK    3  A    between atoms: C14_17  and  N2_18 
ROOT
HETATM    1  C1  UNL     1      29.410   1.367  54.573  1.00  0.00     0.068 C 
HETATM    2  C2  UNL     1      28.136   0.839  54.009  1.00  0.00     0.007 C 
HETATM    3  C3  UNL     1      27.222   1.765  53.766  1.00  0.00     0.027 C 
HETATM    4  C4  UNL     1      25.884   1.571  53.220  1.00  0.00     0.031 C 
HETATM    5  C5  UNL     1      25.320   0.480  52.724  1.00  0.00     0.038 C 
HETATM    6  C13 UNL     1      25.933  -0.858  52.602  1.00  0.00     0.080 C 
HETATM    7  C14 UNL     1      27.112  -1.301  53.070  1.00  0.00     0.132 C 
HETATM    8  N3  UNL     1      28.085  -0.571  53.815  1.00  0.00    -0.345 N 
HETATM    9  H13 UNL     1      28.833  -1.147  54.261  1.00  0.00     0.167 HD
ENDROOT
BRANCH   5  10
HETATM   10  N1  UNL     1      23.971   0.467  52.221  1.00  0.00    -0.323 N 
HETATM   11  C6  UNL     1      23.072  -0.067  53.215  1.00  0.00     0.256 C 
HETATM   12  O1  UNL     1      23.634  -0.412  54.309  1.00  0.00    -0.267 OA
HETATM   13  H6  UNL     1      23.610   0.783  51.283  1.00  0.00     0.169 HD
BRANCH  11  14
HETATM   14  C7  UNL     1      21.651  -0.190  52.962  1.00  0.00     0.032 A 
HETATM   15  C8  UNL     1      20.721  -0.818  53.763  1.00  0.00     0.018 A 
HETATM   16  C9  UNL     1      19.380  -0.869  53.408  1.00  0.00     0.025 A 
HETATM   17  C10 UNL     1      18.947  -0.275  52.219  1.00  0.00     0.034 A 
HETATM   18 CL1  UNL     1      17.263  -0.316  51.734  1.00  0.00    -0.084 Cl
HETATM   19  C11 UNL     1      19.860   0.353  51.413  1.00  0.00     0.025 A 
HETATM   20  C12 UNL     1      21.187   0.390  51.786  1.00  0.00     0.018 A 
ENDBRANCH  11  14
ENDBRANCH   5  10
BRANCH   7  21
HETATM   21  N2  UNL     1      27.484  -2.665  52.813  1.00  0.00    -0.208 N 
HETATM   22  F1  UNL     1      28.680  -3.168  53.187  1.00  0.00    -0.100 F 
HETATM   23  H12 UNL     1      26.813  -3.277  52.326  1.00  0.00     0.201 HD
ENDBRANCH   7  21
TORSDOF 3
ENDMDL
MODEL 2
REMARK VINA RESULT:      -7.6      4.821      6.824
REMARK  3 active torsions:
REMARK  status: ('A' for Active; 'I' for Inactive)
REMARK    1  A    between atoms: C5_5  and  N1_6 
REMARK       I    between atoms: N1_6  and  C6_7 
REMARK    2  A    between atoms: C6_7  and  C7_9 
REMARK    3  A    between atoms: C14_17  and  N2_18 
ROOT
HETATM    1  C1  UNL     1      21.906  -1.389  54.003  1.00  0.00     0.068 C 
HETATM    2  C2  UNL     1      22.949  -0.393  53.626  1.00  0.00     0.007 C 
HETATM    3  C3  UNL     1      22.471   0.727  53.106  1.00  0.00     0.027 C 
HETATM    4  C4  UNL     1      23.226   1.883  52.641  1.00  0.00     0.031 C 
HETATM    5  C5  UNL     1      24.520   2.149  52.742  1.00  0.00     0.038 C 
HETATM    6  C13 UNL     1      25.553   1.302  53.374  1.00  0.00     0.080 C 
HETATM    7  C14 UNL     1      25.450   0.052  53.856  1.00  0.00     0.132 C 
HETATM    8  N3  UNL     1      24.295  -0.784  53.877  1.00  0.00    -0.345 N 
HETATM    9  H13 UNL     1      24.472  -1.788  54.102  1.00  0.00     0.167 HD
ENDROOT
BRANCH   5  10
HETATM   10  N1  UNL     1      25.106   3.356  52.220  1.00  0.00    -0.323 N 
HETATM   11  C6  UNL     1      25.206   3.281  50.783  1.00  0.00     0.256 C 
HETATM   12  O1  UNL     1      24.770   2.192  50.276  1.00  0.00    -0.267 OA
HETATM   13  H6  UNL     1      25.436   4.211  52.739  1.00  0.00     0.169 HD
BRANCH  11  14
HETATM   14  C7  UNL     1      25.762   4.369  50.005  1.00  0.00     0.032 A 
HETATM   15  C8  UNL     1      25.227   5.631  49.849  1.00  0.00     0.018 A 
HETATM   16  C9  UNL     1      25.859   6.592  49.073  1.00  0.00     0.025 A 
HETATM   17  C10 UNL     1      27.063   6.291  48.430  1.00  0.00     0.034 A 
HETATM   18 CL1  UNL     1      27.894   7.477  47.440  1.00  0.00    -0.084 Cl
HETATM   19  C11 UNL     1      27.607   5.043  48.575  1.00  0.00     0.025 A 
HETATM   20  C12 UNL     1      26.961   4.104  49.352  1.00  0.00     0.018 A 
ENDBRANCH  11  14
ENDBRANCH   5  10
BRANCH   7  21
HETATM   21  N2  UNL     1      26.618  -0.560  54.430  1.00  0.00    -0.208 N 
HETATM   22  F1  UNL     1      27.475   0.123  55.218  1.00  0.00    -0.100 F 
HETATM   23  H12 UNL     1      26.803  -1.554  54.230  1.00  0.00     0.201 HD
ENDBRANCH   7  21
TORSDOF 3
ENDMDL
MODEL 3
REMARK VINA RESULT:      -7.6      5.420      6.525
REMARK  3 active torsions:
REMARK  status: ('A' for Active; 'I' for Inactive)
REMARK    1  A    between atoms: C5_5  and  N1_6 
REMARK       I    between atoms: N1_6  and  C6_7 
REMARK    2  A    between atoms: C6_7  and  C7_9 
REMARK    3  A    between atoms: C14_17  and  N2_18 
ROOT
HETATM    1  C1  UNL     1      28.769   6.594  47.895  1.00  0.00     0.068 C 
HETATM    2  C2  UNL     1      27.586   6.050  48.619  1.00  0.00     0.007 C 
HETATM    3  C3  UNL     1      27.526   4.728  48.650  1.00  0.00     0.027 C 
HETATM    4  C4  UNL     1      26.501   3.900  49.274  1.00  0.00     0.031 C 
HETATM    5  C5  UNL     1      25.486   4.247  50.051  1.00  0.00     0.038 C 
HETATM    6  C13 UNL     1      25.132   5.612  50.490  1.00  0.00     0.080 C 
HETATM    7  C14 UNL     1      25.653   6.791  50.109  1.00  0.00     0.132 C 
HETATM    8  N3  UNL     1      26.699   7.020  49.169  1.00  0.00    -0.345 N 
HETATM    9  H13 UNL     1      26.816   8.010  48.858  1.00  0.00     0.167 HD
ENDROOT
BRANCH   5  10
HETATM   10  N1  UNL     1      24.559   3.285  50.588  1.00  0.00    -0.323 N 
HETATM   11  C6  UNL     1      25.205   2.476  51.593  1.00  0.00     0.256 C 
HETATM   12  O1  UNL     1      26.432   2.764  51.799  1.00  0.00    -0.267 OA
HETATM   13  H6  UNL     1      23.547   3.131  50.341  1.00  0.00     0.169 HD
BRANCH  11  14
HETATM   14  C7  UNL     1      24.491   1.429  52.294  1.00  0.00     0.032 A 
HETATM   15  C8  UNL     1      25.045   0.396  53.022  1.00  0.00     0.018 A 
HETATM   16  C9  UNL     1      24.250  -0.552  53.650  1.00  0.00     0.025 A 
HETATM   17  C10 UNL     1      22.857  -0.471  53.555  1.00  0.00     0.034 A 
HETATM   18 CL1  UNL     1      21.816  -1.648  54.334  1.00  0.00    -0.084 Cl
HETATM   19  C11 UNL     1      22.292   0.548  52.836  1.00  0.00     0.025 A 
HETATM   20  C12 UNL     1      23.103   1.478  52.219  1.00  0.00     0.018 A 
ENDBRANCH  11  14
ENDBRANCH   5  10
BRANCH   7  21
HETATM   21  N2  UNL     1      25.126   7.994  50.693  1.00  0.00    -0.208 N 
HETATM   22  F1  UNL     1      23.886   8.054  51.225  1.00  0.00    -0.100 F 
HETATM   23  H12 UNL     1      25.717   8.838  50.703  1.00  0.00     0.201 HD
ENDBRANCH   7  21
TORSDOF 3
ENDMDL
MODEL 4
REMARK VINA RESULT:      -7.5      2.128      2.816
REMARK  3 active torsions:
REMARK  status: ('A' for Active; 'I' for Inactive)
REMARK    1  A    between atoms: C5_5  and  N1_6 
REMARK       I    between atoms: N1_6  and  C6_7 
REMARK    2  A    between atoms: C6_7  and  C7_9 
REMARK    3  A    between atoms: C14_17  and  N2_18 
ROOT
HETATM    1  C1  UNL     1      30.211  -2.130  53.808  1.00  0.00     0.068 C 
HETATM    2  C2  UNL     1      29.126  -1.182  53.430  1.00  0.00     0.007 C 
HETATM    3  C3  UNL     1      28.027  -1.764  52.975  1.00  0.00     0.027 C 
HETATM    4  C4  UNL     1      26.800  -1.117  52.527  1.00  0.00     0.031 C 
HETATM    5  C5  UNL     1      26.442   0.157  52.587  1.00  0.00     0.038 C 
HETATM    6  C13 UNL     1      27.231   1.276  53.142  1.00  0.00     0.080 C 
HETATM    7  C14 UNL     1      28.502   1.287  53.576  1.00  0.00     0.132 C 
HETATM    8  N3  UNL     1      29.423   0.199  53.610  1.00  0.00    -0.345 N 
HETATM    9  H13 UNL     1      30.419   0.459  53.786  1.00  0.00     0.167 HD
ENDROOT
BRANCH   5  10
HETATM   10  N1  UNL     1      25.174   0.628  52.090  1.00  0.00    -0.323 N 
HETATM   11  C6  UNL     1      24.121   0.295  53.017  1.00  0.00     0.256 C 
HETATM   12  O1  UNL     1      24.508  -0.332  54.060  1.00  0.00    -0.267 OA
HETATM   13  H6  UNL     1      24.963   1.146  51.198  1.00  0.00     0.169 HD
BRANCH  11  14
HETATM   14  C7  UNL     1      22.742   0.657  52.757  1.00  0.00     0.032 A 
HETATM   15  C8  UNL     1      21.680   0.546  53.630  1.00  0.00     0.018 A 
HETATM   16  C9  UNL     1      20.398   0.928  53.259  1.00  0.00     0.025 A 
HETATM   17  C10 UNL     1      20.163   1.439  51.979  1.00  0.00     0.034 A 
HETATM   18 CL1  UNL     1      18.559   1.934  51.471  1.00  0.00    -0.084 Cl
HETATM   19  C11 UNL     1      21.208   1.556  51.101  1.00  0.00     0.025 A 
HETATM   20  C12 UNL     1      22.473   1.169  51.492  1.00  0.00     0.018 A 
ENDBRANCH  11  14
ENDBRANCH   5  10
BRANCH   7  21
HETATM   21  N2  UNL     1      29.045   2.521  54.077  1.00  0.00    -0.208 N 
HETATM   22  F1  UNL     1      30.122   2.556  54.891  1.00  0.00    -0.100 F 
HETATM   23  H12 UNL     1      28.593   3.406  53.804  1.00  0.00     0.201 HD
ENDBRANCH   7  21
TORSDOF 3
ENDMDL
MODEL 5
REMARK VINA RESULT:      -7.4      3.266      3.594
REMARK  3 active torsions:
REMARK  status: ('A' for Active; 'I' for Inactive)
REMARK    1  A    between atoms: C5_5  and  N1_6 
REMARK       I    between atoms: N1_6  and  C6_7 
REMARK    2  A    between atoms: C6_7  and  C7_9 
REMARK    3  A    between atoms: C14_17  and  N2_18 
ROOT
HETATM    1  C1  UNL     1      29.237  -0.323  54.143  1.00  0.00     0.068 C 
HETATM    2  C2  UNL     1      27.798  -0.066  53.852  1.00  0.00     0.007 C 
HETATM    3  C3  UNL     1      27.575   0.540  52.697  1.00  0.00     0.027 C 
HETATM    4  C4  UNL     1      26.288   0.927  52.131  1.00  0.00     0.031 C 
HETATM    5  C5  UNL     1      25.061   0.659  52.551  1.00  0.00     0.038 C 
HETATM    6  C13 UNL     1      24.684  -0.127  53.744  1.00  0.00     0.080 C 
HETATM    7  C14 UNL     1      25.464  -0.620  54.720  1.00  0.00     0.132 C 
HETATM    8  N3  UNL     1      26.880  -0.506  54.848  1.00  0.00    -0.345 N 
HETATM    9  H13 UNL     1      27.270  -0.776  55.778  1.00  0.00     0.167 HD
ENDROOT
BRANCH   5  10
HETATM   10  N1  UNL     1      23.887   1.127  51.861  1.00  0.00    -0.323 N 
HETATM   11  C6  UNL     1      23.506   2.429  52.352  1.00  0.00     0.256 C 
HETATM   12  O1  UNL     1      24.260   2.892  53.272  1.00  0.00    -0.267 OA
HETATM   13  H6  UNL     1      23.333   0.654  51.101  1.00  0.00     0.169 HD
BRANCH  11  14
HETATM   14  C7  UNL     1      22.353   3.128  51.822  1.00  0.00     0.032 A 
HETATM   15  C8  UNL     1      21.058   3.060  52.292  1.00  0.00     0.018 A 
HETATM   16  C9  UNL     1      20.034   3.783  51.694  1.00  0.00     0.025 A 
HETATM   17  C10 UNL     1      20.306   4.602  50.594  1.00  0.00     0.034 A 
HETATM   18 CL1  UNL     1      19.042   5.531  49.810  1.00  0.00    -0.084 Cl
HETATM   19  C11 UNL     1      21.587   4.680  50.116  1.00  0.00     0.025 A 
HETATM   20  C12 UNL     1      22.587   3.952  50.727  1.00  0.00     0.018 A 
ENDBRANCH  11  14
ENDBRANCH   5  10
BRANCH   7  21
HETATM   21  N2  UNL     1      24.845  -1.361  55.785  1.00  0.00    -0.208 N 
HETATM   22  F1  UNL     1      23.508  -1.530  55.862  1.00  0.00    -0.100 F 
HETATM   23  H12 UNL     1      25.446  -1.775  56.513  1.00  0.00     0.201 HD
ENDBRANCH   7  21
TORSDOF 3
ENDMDL
MODEL 6
REMARK VINA RESULT:      -7.3      2.947      3.865
REMARK  3 active torsions:
REMARK  status: ('A' for Active; 'I' for Inactive)
REMARK    1  A    between atoms: C5_5  and  N1_6 
REMARK       I    between atoms: N1_6  and  C6_7 
REMARK    2  A    between atoms: C6_7  and  C7_9 
REMARK    3  A    between atoms: C14_17  and  N2_18 
ROOT
HETATM    1  C1  UNL     1      27.164   0.317  54.864  1.00  0.00     0.068 C 
HETATM    2  C2  UNL     1      25.893   0.548  54.121  1.00  0.00     0.007 C 
HETATM    3  C3  UNL     1      25.138  -0.531  53.986  1.00  0.00     0.027 C 
HETATM    4  C4  UNL     1      23.847  -0.633  53.316  1.00  0.00     0.031 C 
HETATM    5  C5  UNL     1      23.075   0.318  52.812  1.00  0.00     0.038 C 
HETATM    6  C13 UNL     1      23.347   1.770  52.804  1.00  0.00     0.080 C 
HETATM    7  C14 UNL     1      24.458   2.430  53.171  1.00  0.00     0.132 C 
HETATM    8  N3  UNL     1      25.675   1.880  53.669  1.00  0.00    -0.345 N 
HETATM    9  H13 UNL     1      26.486   2.537  53.698  1.00  0.00     0.167 HD
ENDROOT
BRANCH   5  10
HETATM   10  N1  UNL     1      21.814   0.035  52.176  1.00  0.00    -0.323 N 
HETATM   11  C6  UNL     1      20.775  -0.096  53.167  1.00  0.00     0.256 C 
HETATM   12  O1  UNL     1      21.167   0.059  54.373  1.00  0.00    -0.267 OA
HETATM   13  H6  UNL     1      21.598  -0.074  51.151  1.00  0.00     0.169 HD
BRANCH  11  14
HETATM   14  C7  UNL     1      19.405  -0.382  52.793  1.00  0.00     0.032 A 
HETATM   15  C8  UNL     1      18.671   0.242  51.806  1.00  0.00     0.018 A 
HETATM   16  C9  UNL     1      17.358  -0.125  51.542  1.00  0.00     0.025 A 
HETATM   17  C10 UNL     1      16.754  -1.146  52.282  1.00  0.00     0.034 A 
HETATM   18 CL1  UNL     1      15.098  -1.639  51.980  1.00  0.00    -0.084 Cl
HETATM   19  C11 UNL     1      17.470  -1.775  53.265  1.00  0.00     0.025 A 
HETATM   20  C12 UNL     1      18.773  -1.393  53.509  1.00  0.00     0.018 A 
ENDBRANCH  11  14
ENDBRANCH   5  10
BRANCH   7  21
HETATM   21  N2  UNL     1      24.470   3.864  53.067  1.00  0.00    -0.208 N 
HETATM   22  F1  UNL     1      23.335   4.594  53.052  1.00  0.00    -0.100 F 
HETATM   23  H12 UNL     1      25.378   4.346  53.003  1.00  0.00     0.201 HD
ENDBRANCH   7  21
TORSDOF 3
ENDMDL
MODEL 7
REMARK VINA RESULT:      -7.1      4.090      4.846
REMARK  3 active torsions:
REMARK  status: ('A' for Active; 'I' for Inactive)
REMARK    1  A    between atoms: C5_5  and  N1_6 
REMARK       I    between atoms: N1_6  and  C6_7 
REMARK    2  A    between atoms: C6_7  and  C7_9 
REMARK    3  A    between atoms: C14_17  and  N2_18 
ROOT
HETATM    1  C1  UNL     1      29.197  -2.196  53.274  1.00  0.00     0.068 C 
HETATM    2  C2  UNL     1      28.410  -0.933  53.193  1.00  0.00     0.007 C 
HETATM    3  C3  UNL     1      27.133  -1.105  52.888  1.00  0.00     0.027 C 
HETATM    4  C4  UNL     1      26.110  -0.077  52.734  1.00  0.00     0.031 C 
HETATM    5  C5  UNL     1      26.169   1.222  52.983  1.00  0.00     0.038 C 
HETATM    6  C13 UNL     1      27.332   1.976  53.496  1.00  0.00     0.080 C 
HETATM    7  C14 UNL     1      28.594   1.562  53.694  1.00  0.00     0.132 C 
HETATM    8  N3  UNL     1      29.135   0.265  53.454  1.00  0.00    -0.345 N 
HETATM    9  H13 UNL     1      30.177   0.202  53.473  1.00  0.00     0.167 HD
ENDROOT
BRANCH   5  10
HETATM   10  N1  UNL     1      25.048   2.102  52.772  1.00  0.00    -0.323 N 
HETATM   11  C6  UNL     1      25.158   2.749  51.487  1.00  0.00     0.256 C 
HETATM   12  O1  UNL     1      26.194   2.425  50.815  1.00  0.00    -0.267 OA
HETATM   13  H6  UNL     1      24.231   2.299  53.406  1.00  0.00     0.169 HD
BRANCH  11  14
HETATM   14  C7  UNL     1      24.156   3.689  51.026  1.00  0.00     0.032 A 
HETATM   15  C8  UNL     1      24.016   4.185  49.746  1.00  0.00     0.018 A 
HETATM   16  C9  UNL     1      23.009   5.086  49.428  1.00  0.00     0.025 A 
HETATM   17  C10 UNL     1      22.110   5.507  50.413  1.00  0.00     0.034 A 
HETATM   18 CL1  UNL     1      20.824   6.644  50.052  1.00  0.00    -0.084 Cl
HETATM   19  C11 UNL     1      22.237   5.023  51.688  1.00  0.00     0.025 A 
HETATM   20  C12 UNL     1      23.245   4.129  51.980  1.00  0.00     0.018 A 
ENDBRANCH  11  14
ENDBRANCH   5  10
BRANCH   7  21
HETATM   21  N2  UNL     1      29.552   2.502  54.209  1.00  0.00    -0.208 N 
HETATM   22  F1  UNL     1      30.143   2.341  55.412  1.00  0.00    -0.100 F 
HETATM   23  H12 UNL     1      29.793   3.325  53.638  1.00  0.00     0.201 HD
ENDBRANCH   7  21
TORSDOF 3
ENDMDL
MODEL 8
REMARK VINA RESULT:      -7.1      5.435      6.470
REMARK  3 active torsions:
REMARK  status: ('A' for Active; 'I' for Inactive)
REMARK    1  A    between atoms: C5_5  and  N1_6 
REMARK       I    between atoms: N1_6  and  C6_7 
REMARK    2  A    between atoms: C6_7  and  C7_9 
REMARK    3  A    between atoms: C14_17  and  N2_18 
ROOT
HETATM    1  C1  UNL     1      24.683   8.256  47.461  1.00  0.00     0.068 C 
HETATM    2  C2  UNL     1      24.880   6.943  48.138  1.00  0.00     0.007 C 
HETATM    3  C3  UNL     1      23.773   6.230  48.277  1.00  0.00     0.027 C 
HETATM    4  C4  UNL     1      23.635   4.916  48.892  1.00  0.00     0.031 C 
HETATM    5  C5  UNL     1      24.566   4.081  49.328  1.00  0.00     0.038 C 
HETATM    6  C13 UNL     1      26.029   4.288  49.297  1.00  0.00     0.080 C 
HETATM    7  C14 UNL     1      26.726   5.386  48.958  1.00  0.00     0.132 C 
HETATM    8  N3  UNL     1      26.215   6.647  48.534  1.00  0.00    -0.345 N 
HETATM    9  H13 UNL     1      26.907   7.429  48.518  1.00  0.00     0.167 HD
ENDROOT
BRANCH   5  10
HETATM   10  N1  UNL     1      24.248   2.805  49.917  1.00  0.00    -0.323 N 
HETATM   11  C6  UNL     1      23.968   2.961  51.323  1.00  0.00     0.256 C 
HETATM   12  O1  UNL     1      24.056   4.160  51.753  1.00  0.00    -0.267 OA
HETATM   13  H6  UNL     1      24.203   1.858  49.460  1.00  0.00     0.169 HD
BRANCH  11  14
HETATM   14  C7  UNL     1      23.618   1.827  52.154  1.00  0.00     0.032 A 
HETATM   15  C8  UNL     1      24.467   0.834  52.598  1.00  0.00     0.018 A 
HETATM   16  C9  UNL     1      24.008  -0.206  53.393  1.00  0.00     0.025 A 
HETATM   17  C10 UNL     1      22.661  -0.262  53.764  1.00  0.00     0.034 A 
HETATM   18 CL1  UNL     1      22.040  -1.558  54.768  1.00  0.00    -0.084 Cl
HETATM   19  C11 UNL     1      21.806   0.717  53.332  1.00  0.00     0.025 A 
HETATM   20  C12 UNL     1      22.285   1.741  52.541  1.00  0.00     0.018 A 
ENDBRANCH  11  14
ENDBRANCH   5  10
BRANCH   7  21
HETATM   21  N2  UNL     1      28.161   5.330  49.011  1.00  0.00    -0.208 N 
HETATM   22  F1  UNL     1      28.897   4.765  48.031  1.00  0.00    -0.100 F 
HETATM   23  H12 UNL     1      28.641   5.737  49.828  1.00  0.00     0.201 HD
ENDBRANCH   7  21
TORSDOF 3
ENDMDL
MODEL 9
REMARK VINA RESULT:      -7.1      4.582      7.405
REMARK  3 active torsions:
REMARK  status: ('A' for Active; 'I' for Inactive)
REMARK    1  A    between atoms: C5_5  and  N1_6 
REMARK       I    between atoms: N1_6  and  C6_7 
REMARK    2  A    between atoms: C6_7  and  C7_9 
REMARK    3  A    between atoms: C14_17  and  N2_18 
ROOT
HETATM    1  C1  UNL     1      16.948  -0.635  52.684  1.00  0.00     0.068 C 
HETATM    2  C2  UNL     1      18.410  -0.435  52.474  1.00  0.00     0.007 C 
HETATM    3  C3  UNL     1      18.717   0.202  51.354  1.00  0.00     0.027 C 
HETATM    4  C4  UNL     1      20.047   0.547  50.866  1.00  0.00     0.031 C 
HETATM    5  C5  UNL     1      21.225   0.435  51.460  1.00  0.00     0.038 C 
HETATM    6  C13 UNL     1      21.489  -0.091  52.816  1.00  0.00     0.080 C 
HETATM    7  C14 UNL     1      20.645  -0.681  53.679  1.00  0.00     0.132 C 
HETATM    8  N3  UNL     1      19.257  -0.950  53.496  1.00  0.00    -0.345 N 
HETATM    9  H13 UNL     1      18.830  -1.599  54.194  1.00  0.00     0.167 HD
ENDROOT
BRANCH   5  10
HETATM   10  N1  UNL     1      22.454   0.830  50.823  1.00  0.00    -0.323 N 
HETATM   11  C6  UNL     1      22.756   2.207  51.132  1.00  0.00     0.256 C 
HETATM   12  O1  UNL     1      21.900   2.782  51.885  1.00  0.00    -0.267 OA
HETATM   13  H6  UNL     1      23.096   0.263  50.210  1.00  0.00     0.169 HD
BRANCH  11  14
HETATM   14  C7  UNL     1      23.943   2.855  50.614  1.00  0.00     0.032 A 
HETATM   15  C8  UNL     1      25.252   2.565  50.938  1.00  0.00     0.018 A 
HETATM   16  C9  UNL     1      26.308   3.263  50.370  1.00  0.00     0.025 A 
HETATM   17  C10 UNL     1      26.058   4.284  49.448  1.00  0.00     0.034 A 
HETATM   18 CL1  UNL     1      27.363   5.190  48.707  1.00  0.00    -0.084 Cl
HETATM   19  C11 UNL     1      24.763   4.584  49.116  1.00  0.00     0.025 A 
HETATM   20  C12 UNL     1      23.730   3.876  49.694  1.00  0.00     0.018 A 
ENDBRANCH  11  14
ENDBRANCH   5  10
BRANCH   7  21
HETATM   21  N2  UNL     1      21.155  -1.108  54.953  1.00  0.00    -0.208 N 
HETATM   22  F1  UNL     1      22.417  -0.840  55.351  1.00  0.00    -0.100 F 
HETATM   23  H12 UNL     1      20.532  -1.637  55.582  1.00  0.00     0.201 HD
ENDBRANCH   7  21
TORSDOF 3
ENDMDL
