MODEL 1
REMARK VINA RESULT:      -9.4      0.000      0.000
REMARK  5 active torsions:
REMARK  status: ('A' for Active; 'I' for Inactive)
REMARK    1  A    between atoms: C6_6  and  C7_7 
REMARK    2  A    between atoms: C7_7  and  N1_8 
REMARK       I    between atoms: N1_8  and  C8_9 
REMARK    3  A    between atoms: N1_8  and  C15_18 
REMARK       I    between atoms: C8_9  and  N2_11 
REMARK    4  A    between atoms: N2_11  and  C9_12 
REMARK    5  A    between atoms: C16_19  and  O2_20 
ROOT
HETATM    1  N1  UNL     1      26.293   1.757  52.290  1.00  0.00    -0.296 N 
HETATM    2  C8  UNL     1      26.180   2.542  51.139  1.00  0.00     0.327 C 
HETATM    3  O1  UNL     1      25.142   3.261  51.204  1.00  0.00    -0.246 OA
HETATM    4  N2  UNL     1      26.591   3.003  49.884  1.00  0.00    -0.309 N 
HETATM    5  H9  UNL     1      27.465   2.509  49.649  1.00  0.00     0.170 HD
ENDROOT
BRANCH   1   6
HETATM    6  C7  UNL     1      25.172   2.022  53.133  1.00  0.00     0.172 C 
BRANCH   6   7
HETATM    7  C6  UNL     1      24.039   1.090  53.062  1.00  0.00    -0.039 A 
HETATM    8  C5  UNL     1      23.726   0.073  53.935  1.00  0.00     0.009 A 
HETATM    9  C4  UNL     1      22.636  -0.765  53.884  1.00  0.00     0.001 A 
HETATM   10  C3  UNL     1      21.721  -0.623  52.873  1.00  0.00     0.007 A 
HETATM   11  C2  UNL     1      21.944   0.372  51.943  1.00  0.00    -0.061 A 
HETATM   12  C1  UNL     1      20.919   0.477  50.872  1.00  0.00     0.048 C 
HETATM   13  C22 UNL     1      23.051   1.162  52.065  1.00  0.00     0.015 A 
ENDBRANCH   6   7
ENDBRANCH   1   6
BRANCH   1  14
HETATM   14  C15 UNL     1      27.190   0.806  52.884  1.00  0.00     0.049 C 
HETATM   15  C16 UNL     1      28.473   1.065  53.207  1.00  0.00     0.066 C 
HETATM   16  C17 UNL     1      29.699   0.508  53.778  1.00  0.00     0.070 C 
HETATM   17  C18 UNL     1      29.615  -0.937  54.149  1.00  0.00     0.033 C 
HETATM   18  C19 UNL     1      29.075  -1.795  53.070  1.00  0.00    -0.030 C 
HETATM   19  C20 UNL     1      27.813  -1.594  52.701  1.00  0.00    -0.025 C 
HETATM   20  C21 UNL     1      26.867  -0.572  53.277  1.00  0.00     0.086 C 
BRANCH  15  21
HETATM   21  O2  UNL     1      28.929   2.341  52.942  1.00  0.00    -0.363 OA
HETATM   22  H15 UNL     1      29.919   2.597  53.045  1.00  0.00     0.217 HD
ENDBRANCH  15  21
ENDBRANCH   1  14
BRANCH   4  23
HETATM   23  C9  UNL     1      25.652   3.984  49.402  1.00  0.00     0.036 A 
HETATM   24  C10 UNL     1      26.212   5.246  49.244  1.00  0.00     0.029 A 
HETATM   25  C11 UNL     1      25.434   6.275  48.792  1.00  0.00     0.002 A 
HETATM   26  C12 UNL     1      24.113   6.012  48.511  1.00  0.00     0.000 A 
HETATM   27  C13 UNL     1      23.519   4.760  48.658  1.00  0.00     0.002 A 
HETATM   28  C14 UNL     1      24.329   3.740  49.116  1.00  0.00     0.029 A 
ENDBRANCH   4  23
TORSDOF 5
ENDMDL
MODEL 2
REMARK VINA RESULT:      -9.4      0.668      1.376
REMARK  5 active torsions:
REMARK  status: ('A' for Active; 'I' for Inactive)
REMARK    1  A    between atoms: C6_6  and  C7_7 
REMARK    2  A    between atoms: C7_7  and  N1_8 
REMARK       I    between atoms: N1_8  and  C8_9 
REMARK    3  A    between atoms: N1_8  and  C15_18 
REMARK       I    between atoms: C8_9  and  N2_11 
REMARK    4  A    between atoms: N2_11  and  C9_12 
REMARK    5  A    between atoms: C16_19  and  O2_20 
ROOT
HETATM    1  N1  UNL     1      25.982   2.284  52.178  1.00  0.00    -0.296 N 
HETATM    2  C8  UNL     1      25.965   3.067  51.020  1.00  0.00     0.327 C 
HETATM    3  O1  UNL     1      24.925   3.786  50.997  1.00  0.00    -0.246 OA
HETATM    4  N2  UNL     1      26.479   3.526  49.803  1.00  0.00    -0.309 N 
HETATM    5  H9  UNL     1      27.369   3.031  49.642  1.00  0.00     0.170 HD
ENDROOT
BRANCH   1   6
HETATM    6  C7  UNL     1      24.795   2.550  52.925  1.00  0.00     0.172 C 
BRANCH   6   7
HETATM    7  C6  UNL     1      23.662   1.633  52.742  1.00  0.00    -0.039 A 
HETATM    8  C5  UNL     1      22.869   1.484  51.627  1.00  0.00     0.009 A 
HETATM    9  C4  UNL     1      21.838   0.589  51.450  1.00  0.00     0.001 A 
HETATM   10  C3  UNL     1      21.516  -0.279  52.461  1.00  0.00     0.007 A 
HETATM   11  C2  UNL     1      22.254  -0.210  53.625  1.00  0.00    -0.061 A 
HETATM   12  C1  UNL     1      21.858  -1.174  54.683  1.00  0.00     0.048 C 
HETATM   13  C22 UNL     1      23.262   0.707  53.720  1.00  0.00     0.015 A 
ENDBRANCH   6   7
ENDBRANCH   1   6
BRANCH   1  14
HETATM   14  C15 UNL     1      26.826   1.334  52.846  1.00  0.00     0.049 C 
HETATM   15  C16 UNL     1      28.068   1.602  53.298  1.00  0.00     0.066 C 
HETATM   16  C17 UNL     1      29.238   1.050  53.981  1.00  0.00     0.070 C 
HETATM   17  C18 UNL     1      29.134  -0.400  54.324  1.00  0.00     0.033 C 
HETATM   18  C19 UNL     1      28.714  -1.250  53.187  1.00  0.00    -0.030 C 
HETATM   19  C20 UNL     1      27.492  -1.057  52.697  1.00  0.00    -0.025 C 
HETATM   20  C21 UNL     1      26.481  -0.051  53.188  1.00  0.00     0.086 C 
BRANCH  15  21
HETATM   21  O2  UNL     1      28.533   2.886  53.095  1.00  0.00    -0.363 OA
HETATM   22  H15 UNL     1      28.214   3.677  53.669  1.00  0.00     0.217 HD
ENDBRANCH  15  21
ENDBRANCH   1  14
BRANCH   4  23
HETATM   23  C9  UNL     1      25.583   4.506  49.243  1.00  0.00     0.036 A 
HETATM   24  C10 UNL     1      26.169   5.756  49.084  1.00  0.00     0.029 A 
HETATM   25  C11 UNL     1      25.433   6.782  48.562  1.00  0.00     0.002 A 
HETATM   26  C12 UNL     1      24.126   6.529  48.213  1.00  0.00     0.000 A 
HETATM   27  C13 UNL     1      23.507   5.288  48.357  1.00  0.00     0.002 A 
HETATM   28  C14 UNL     1      24.274   4.271  48.887  1.00  0.00     0.029 A 
ENDBRANCH   4  23
TORSDOF 5
ENDMDL
MODEL 3
REMARK VINA RESULT:      -9.4      1.509      4.982
REMARK  5 active torsions:
REMARK  status: ('A' for Active; 'I' for Inactive)
REMARK    1  A    between atoms: C6_6  and  C7_7 
REMARK    2  A    between atoms: C7_7  and  N1_8 
REMARK       I    between atoms: N1_8  and  C8_9 
REMARK    3  A    between atoms: N1_8  and  C15_18 
REMARK       I    between atoms: C8_9  and  N2_11 
REMARK    4  A    between atoms: N2_11  and  C9_12 
REMARK    5  A    between atoms: C16_19  and  O2_20 
ROOT
HETATM    1  N1  UNL     1      23.972   1.884  52.254  1.00  0.00    -0.296 N 
HETATM    2  C8  UNL     1      24.308   2.593  51.097  1.00  0.00     0.327 C 
HETATM    3  O1  UNL     1      25.363   3.264  51.290  1.00  0.00    -0.246 OA
HETATM    4  N2  UNL     1      24.122   3.002  49.772  1.00  0.00    -0.309 N 
HETATM    5  H9  UNL     1      23.270   2.536  49.426  1.00  0.00     0.170 HD
ENDROOT
BRANCH   1   6
HETATM    6  C7  UNL     1      24.928   2.189  53.269  1.00  0.00     0.172 C 
BRANCH   6   7
HETATM    7  C6  UNL     1      26.175   1.412  53.277  1.00  0.00    -0.039 A 
HETATM    8  C5  UNL     1      27.432   1.837  53.642  1.00  0.00     0.009 A 
HETATM    9  C4  UNL     1      28.585   1.088  53.689  1.00  0.00     0.001 A 
HETATM   10  C3  UNL     1      28.544  -0.239  53.346  1.00  0.00     0.007 A 
HETATM   11  C2  UNL     1      27.326  -0.764  52.965  1.00  0.00    -0.061 A 
HETATM   12  C1  UNL     1      27.344  -2.205  52.606  1.00  0.00     0.048 C 
HETATM   13  C22 UNL     1      26.228   0.048  52.945  1.00  0.00     0.015 A 
ENDBRANCH   6   7
ENDBRANCH   1   6
BRANCH   1  14
HETATM   14  C15 UNL     1      22.994   0.940  52.715  1.00  0.00     0.049 C 
HETATM   15  C16 UNL     1      21.689   1.222  52.904  1.00  0.00     0.066 C 
HETATM   16  C17 UNL     1      20.394   0.681  53.317  1.00  0.00     0.070 C 
HETATM   17  C18 UNL     1      20.429  -0.743  53.770  1.00  0.00     0.033 C 
HETATM   18  C19 UNL     1      21.483  -1.019  54.773  1.00  0.00    -0.030 C 
HETATM   19  C20 UNL     1      22.748  -0.887  54.383  1.00  0.00    -0.025 C 
HETATM   20  C21 UNL     1      23.222  -0.480  53.011  1.00  0.00     0.086 C 
BRANCH  15  21
HETATM   21  O2  UNL     1      21.293   2.515  52.625  1.00  0.00    -0.363 OA
HETATM   22  H15 UNL     1      20.398   2.894  52.960  1.00  0.00     0.217 HD
ENDBRANCH  15  21
ENDBRANCH   1  14
BRANCH   4  23
HETATM   23  C9  UNL     1      25.180   3.906  49.397  1.00  0.00     0.036 A 
HETATM   24  C10 UNL     1      24.737   5.204  49.175  1.00  0.00     0.029 A 
HETATM   25  C11 UNL     1      25.635   6.168  48.811  1.00  0.00     0.002 A 
HETATM   26  C12 UNL     1      26.955   5.805  48.678  1.00  0.00     0.000 A 
HETATM   27  C13 UNL     1      27.434   4.514  48.893  1.00  0.00     0.002 A 
HETATM   28  C14 UNL     1      26.505   3.561  49.259  1.00  0.00     0.029 A 
ENDBRANCH   4  23
TORSDOF 5
ENDMDL
MODEL 4
REMARK VINA RESULT:      -9.1      2.234      7.529
REMARK  5 active torsions:
REMARK  status: ('A' for Active; 'I' for Inactive)
REMARK    1  A    between atoms: C6_6  and  C7_7 
REMARK    2  A    between atoms: C7_7  and  N1_8 
REMARK       I    between atoms: N1_8  and  C8_9 
REMARK    3  A    between atoms: N1_8  and  C15_18 
REMARK       I    between atoms: C8_9  and  N2_11 
REMARK    4  A    between atoms: N2_11  and  C9_12 
REMARK    5  A    between atoms: C16_19  and  O2_20 
ROOT
HETATM    1  N1  UNL     1      24.774   3.270  50.975  1.00  0.00    -0.296 N 
HETATM    2  C8  UNL     1      25.511   2.727  52.033  1.00  0.00     0.327 C 
HETATM    3  O1  UNL     1      26.633   2.319  51.616  1.00  0.00    -0.246 OA
HETATM    4  N2  UNL     1      25.715   2.360  53.367  1.00  0.00    -0.309 N 
HETATM    5  H9  UNL     1      24.867   2.626  53.889  1.00  0.00     0.170 HD
ENDROOT
BRANCH   1   6
HETATM    6  C7  UNL     1      25.540   3.147  49.777  1.00  0.00     0.172 C 
BRANCH   6   7
HETATM    7  C6  UNL     1      26.117   4.375  49.215  1.00  0.00    -0.039 A 
HETATM    8  C5  UNL     1      25.480   5.570  48.968  1.00  0.00     0.009 A 
HETATM    9  C4  UNL     1      26.041   6.729  48.483  1.00  0.00     0.001 A 
HETATM   10  C3  UNL     1      27.381   6.763  48.195  1.00  0.00     0.007 A 
HETATM   11  C2  UNL     1      28.111   5.613  48.409  1.00  0.00    -0.061 A 
HETATM   12  C1  UNL     1      29.557   5.710  48.079  1.00  0.00     0.048 C 
HETATM   13  C22 UNL     1      27.479   4.503  48.893  1.00  0.00     0.015 A 
ENDBRANCH   6   7
ENDBRANCH   1   6
BRANCH   1  14
HETATM   14  C15 UNL     1      23.520   3.925  50.737  1.00  0.00     0.049 C 
HETATM   15  C16 UNL     1      23.121   5.057  51.351  1.00  0.00     0.066 C 
HETATM   16  C17 UNL     1      22.046   6.043  51.464  1.00  0.00     0.070 C 
HETATM   17  C18 UNL     1      20.839   5.749  50.633  1.00  0.00     0.033 C 
HETATM   18  C19 UNL     1      20.332   4.367  50.794  1.00  0.00    -0.030 C 
HETATM   19  C20 UNL     1      21.120   3.375  50.387  1.00  0.00    -0.025 C 
HETATM   20  C21 UNL     1      22.490   3.516  49.773  1.00  0.00     0.086 C 
BRANCH  15  21
HETATM   21  O2  UNL     1      24.000   5.604  52.265  1.00  0.00    -0.363 OA
HETATM   22  H15 UNL     1      24.733   6.267  51.985  1.00  0.00     0.217 HD
ENDBRANCH  15  21
ENDBRANCH   1  14
BRANCH   4  23
HETATM   23  C9  UNL     1      27.017   1.758  53.505  1.00  0.00     0.036 A 
HETATM   24  C10 UNL     1      26.997   0.375  53.378  1.00  0.00     0.029 A 
HETATM   25  C11 UNL     1      28.164  -0.328  53.487  1.00  0.00     0.002 A 
HETATM   26  C12 UNL     1      29.323   0.375  53.722  1.00  0.00     0.000 A 
HETATM   27  C13 UNL     1      29.380   1.762  53.854  1.00  0.00     0.002 A 
HETATM   28  C14 UNL     1      28.186   2.445  53.739  1.00  0.00     0.029 A 
ENDBRANCH   4  23
TORSDOF 5
ENDMDL
MODEL 5
REMARK VINA RESULT:      -9.0      2.253      6.021
REMARK  5 active torsions:
REMARK  status: ('A' for Active; 'I' for Inactive)
REMARK    1  A    between atoms: C6_6  and  C7_7 
REMARK    2  A    between atoms: C7_7  and  N1_8 
REMARK       I    between atoms: N1_8  and  C8_9 
REMARK    3  A    between atoms: N1_8  and  C15_18 
REMARK       I    between atoms: C8_9  and  N2_11 
REMARK    4  A    between atoms: N2_11  and  C9_12 
REMARK    5  A    between atoms: C16_19  and  O2_20 
ROOT
HETATM    1  N1  UNL     1      23.628   1.843  51.654  1.00  0.00    -0.296 N 
HETATM    2  C8  UNL     1      24.998   1.589  51.777  1.00  0.00     0.327 C 
HETATM    3  O1  UNL     1      25.299   1.410  52.992  1.00  0.00    -0.246 OA
HETATM    4  N2  UNL     1      26.295   1.414  51.284  1.00  0.00    -0.309 N 
HETATM    5  H9  UNL     1      26.251   1.527  50.261  1.00  0.00     0.170 HD
ENDROOT
BRANCH   1   6
HETATM    6  C7  UNL     1      23.046   1.840  52.957  1.00  0.00     0.172 C 
BRANCH   6   7
HETATM    7  C6  UNL     1      22.323   0.631  53.371  1.00  0.00    -0.039 A 
HETATM    8  C5  UNL     1      22.812  -0.448  54.071  1.00  0.00     0.009 A 
HETATM    9  C4  UNL     1      22.114  -1.556  54.493  1.00  0.00     0.001 A 
HETATM   10  C3  UNL     1      20.775  -1.657  54.215  1.00  0.00     0.007 A 
HETATM   11  C2  UNL     1      20.186  -0.624  53.515  1.00  0.00    -0.061 A 
HETATM   12  C1  UNL     1      18.735  -0.790  53.245  1.00  0.00     0.048 C 
HETATM   13  C22 UNL     1      20.951   0.442  53.133  1.00  0.00     0.015 A 
ENDBRANCH   6   7
ENDBRANCH   1   6
BRANCH   1  14
HETATM   14  C15 UNL     1      22.645   2.073  50.634  1.00  0.00     0.049 C 
HETATM   15  C16 UNL     1      22.214   3.291  50.249  1.00  0.00     0.066 C 
HETATM   16  C17 UNL     1      21.317   4.014  49.348  1.00  0.00     0.070 C 
HETATM   17  C18 UNL     1      20.458   3.142  48.491  1.00  0.00     0.033 C 
HETATM   18  C19 UNL     1      19.741   2.090  49.247  1.00  0.00    -0.030 C 
HETATM   19  C20 UNL     1      20.476   1.153  49.838  1.00  0.00    -0.025 C 
HETATM   20  C21 UNL     1      21.980   1.051  49.815  1.00  0.00     0.086 C 
BRANCH  15  21
HETATM   21  O2  UNL     1      22.776   4.375  50.894  1.00  0.00    -0.363 OA
HETATM   22  H15 UNL     1      23.741   4.357  51.248  1.00  0.00     0.217 HD
ENDBRANCH  15  21
ENDBRANCH   1  14
BRANCH   4  23
HETATM   23  C9  UNL     1      27.192   1.142  52.380  1.00  0.00     0.036 A 
HETATM   24  C10 UNL     1      27.854   2.274  52.838  1.00  0.00     0.029 A 
HETATM   25  C11 UNL     1      28.737   2.163  53.875  1.00  0.00     0.002 A 
HETATM   26  C12 UNL     1      28.934   0.918  54.427  1.00  0.00     0.000 A 
HETATM   27  C13 UNL     1      28.286  -0.238  53.993  1.00  0.00     0.002 A 
HETATM   28  C14 UNL     1      27.401  -0.095  52.944  1.00  0.00     0.029 A 
ENDBRANCH   4  23
TORSDOF 5
ENDMDL
MODEL 6
REMARK VINA RESULT:      -8.9      2.083      6.350
REMARK  5 active torsions:
REMARK  status: ('A' for Active; 'I' for Inactive)
REMARK    1  A    between atoms: C6_6  and  C7_7 
REMARK    2  A    between atoms: C7_7  and  N1_8 
REMARK       I    between atoms: N1_8  and  C8_9 
REMARK    3  A    between atoms: N1_8  and  C15_18 
REMARK       I    between atoms: C8_9  and  N2_11 
REMARK    4  A    between atoms: N2_11  and  C9_12 
REMARK    5  A    between atoms: C16_19  and  O2_20 
ROOT
HETATM    1  N1  UNL     1      24.221   3.925  51.567  1.00  0.00    -0.296 N 
HETATM    2  C8  UNL     1      25.421   3.219  51.707  1.00  0.00     0.327 C 
HETATM    3  O1  UNL     1      25.277   2.280  52.541  1.00  0.00    -0.246 OA
HETATM    4  N2  UNL     1      26.765   2.954  51.428  1.00  0.00    -0.309 N 
HETATM    5  H9  UNL     1      27.075   3.650  50.732  1.00  0.00     0.170 HD
ENDROOT
BRANCH   1   6
HETATM    6  C7  UNL     1      23.252   3.353  52.445  1.00  0.00     0.172 C 
BRANCH   6   7
HETATM    7  C6  UNL     1      22.166   2.574  51.836  1.00  0.00    -0.039 A 
HETATM    8  C5  UNL     1      22.262   1.389  51.144  1.00  0.00     0.009 A 
HETATM    9  C4  UNL     1      21.233   0.644  50.615  1.00  0.00     0.001 A 
HETATM   10  C3  UNL     1      19.941   1.079  50.762  1.00  0.00     0.007 A 
HETATM   11  C2  UNL     1      19.736   2.261  51.443  1.00  0.00    -0.061 A 
HETATM   12  C1  UNL     1      18.316   2.680  51.569  1.00  0.00     0.048 C 
HETATM   13  C22 UNL     1      20.813   2.940  51.937  1.00  0.00     0.015 A 
ENDBRANCH   6   7
ENDBRANCH   1   6
BRANCH   1  14
HETATM   14  C15 UNL     1      23.671   5.010  50.805  1.00  0.00     0.049 C 
HETATM   15  C16 UNL     1      23.759   6.309  51.153  1.00  0.00     0.066 C 
HETATM   16  C17 UNL     1      23.409   7.677  50.771  1.00  0.00     0.070 C 
HETATM   17  C18 UNL     1      22.588   7.787  49.527  1.00  0.00     0.033 C 
HETATM   18  C19 UNL     1      21.405   6.897  49.518  1.00  0.00    -0.030 C 
HETATM   19  C20 UNL     1      21.626   5.585  49.514  1.00  0.00    -0.025 C 
HETATM   20  C21 UNL     1      22.972   4.906  49.518  1.00  0.00     0.086 C 
BRANCH  15  21
HETATM   21  O2  UNL     1      24.431   6.588  52.327  1.00  0.00    -0.363 OA
HETATM   22  H15 UNL     1      24.123   7.330  52.967  1.00  0.00     0.217 HD
ENDBRANCH  15  21
ENDBRANCH   1  14
BRANCH   4  23
HETATM   23  C9  UNL     1      27.203   1.823  52.205  1.00  0.00     0.036 A 
HETATM   24  C10 UNL     1      28.034   2.173  53.262  1.00  0.00     0.029 A 
HETATM   25  C11 UNL     1      28.524   1.198  54.084  1.00  0.00     0.002 A 
HETATM   26  C12 UNL     1      28.169  -0.106  53.826  1.00  0.00     0.000 A 
HETATM   27  C13 UNL     1      27.337  -0.493  52.776  1.00  0.00     0.002 A 
HETATM   28  C14 UNL     1      26.857   0.513  51.962  1.00  0.00     0.029 A 
ENDBRANCH   4  23
TORSDOF 5
ENDMDL
MODEL 7
REMARK VINA RESULT:      -8.9      2.200      2.745
REMARK  5 active torsions:
REMARK  status: ('A' for Active; 'I' for Inactive)
REMARK    1  A    between atoms: C6_6  and  C7_7 
REMARK    2  A    between atoms: C7_7  and  N1_8 
REMARK       I    between atoms: N1_8  and  C8_9 
REMARK    3  A    between atoms: N1_8  and  C15_18 
REMARK       I    between atoms: C8_9  and  N2_11 
REMARK    4  A    between atoms: N2_11  and  C9_12 
REMARK    5  A    between atoms: C16_19  and  O2_20 
ROOT
HETATM    1  N1  UNL     1      24.986   2.050  52.782  1.00  0.00    -0.296 N 
HETATM    2  C8  UNL     1      24.130   3.119  52.495  1.00  0.00     0.327 C 
HETATM    3  O1  UNL     1      23.125   2.707  51.848  1.00  0.00    -0.246 OA
HETATM    4  N2  UNL     1      23.741   4.461  52.521  1.00  0.00    -0.309 N 
HETATM    5  H9  UNL     1      24.469   4.981  53.033  1.00  0.00     0.170 HD
ENDROOT
BRANCH   1   6
HETATM    6  C7  UNL     1      24.436   0.862  52.215  1.00  0.00     0.172 C 
BRANCH   6   7
HETATM    7  C6  UNL     1      23.439   0.132  53.009  1.00  0.00    -0.039 A 
HETATM    8  C5  UNL     1      23.653  -0.637  54.130  1.00  0.00     0.009 A 
HETATM    9  C4  UNL     1      22.706  -1.281  54.894  1.00  0.00     0.001 A 
HETATM   10  C3  UNL     1      21.382  -1.182  54.552  1.00  0.00     0.007 A 
HETATM   11  C2  UNL     1      21.061  -0.430  53.440  1.00  0.00    -0.061 A 
HETATM   12  C1  UNL     1      19.612  -0.360  53.120  1.00  0.00     0.048 C 
HETATM   13  C22 UNL     1      22.062   0.177  52.736  1.00  0.00     0.015 A 
ENDBRANCH   6   7
ENDBRANCH   1   6
BRANCH   1  14
HETATM   14  C15 UNL     1      26.209   1.785  53.485  1.00  0.00     0.049 C 
HETATM   15  C16 UNL     1      27.429   2.187  53.073  1.00  0.00     0.066 C 
HETATM   16  C17 UNL     1      28.858   2.184  53.383  1.00  0.00     0.070 C 
HETATM   17  C18 UNL     1      29.228   1.419  54.613  1.00  0.00     0.033 C 
HETATM   18  C19 UNL     1      28.656   0.054  54.656  1.00  0.00    -0.030 C 
HETATM   19  C20 UNL     1      27.332  -0.052  54.728  1.00  0.00    -0.025 C 
HETATM   20  C21 UNL     1      26.345   1.087  54.769  1.00  0.00     0.086 C 
BRANCH  15  21
HETATM   21  O2  UNL     1      27.475   2.903  51.893  1.00  0.00    -0.363 OA
HETATM   22  H15 UNL     1      28.001   3.781  51.810  1.00  0.00     0.217 HD
ENDBRANCH  15  21
ENDBRANCH   1  14
BRANCH   4  23
HETATM   23  C9  UNL     1      22.482   4.610  51.834  1.00  0.00     0.036 A 
HETATM   24  C10 UNL     1      22.554   5.461  50.738  1.00  0.00     0.029 A 
HETATM   25  C11 UNL     1      21.433   5.693  49.993  1.00  0.00     0.002 A 
HETATM   26  C12 UNL     1      20.267   5.066  50.365  1.00  0.00     0.000 A 
HETATM   27  C13 UNL     1      20.158   4.207  51.458  1.00  0.00     0.002 A 
HETATM   28  C14 UNL     1      21.307   3.991  52.192  1.00  0.00     0.029 A 
ENDBRANCH   4  23
TORSDOF 5
ENDMDL
MODEL 8
REMARK VINA RESULT:      -8.8      2.050      5.182
REMARK  5 active torsions:
REMARK  status: ('A' for Active; 'I' for Inactive)
REMARK    1  A    between atoms: C6_6  and  C7_7 
REMARK    2  A    between atoms: C7_7  and  N1_8 
REMARK       I    between atoms: N1_8  and  C8_9 
REMARK    3  A    between atoms: N1_8  and  C15_18 
REMARK       I    between atoms: C8_9  and  N2_11 
REMARK    4  A    between atoms: N2_11  and  C9_12 
REMARK    5  A    between atoms: C16_19  and  O2_20 
ROOT
HETATM    1  N1  UNL     1      24.987   1.324  53.259  1.00  0.00    -0.296 N 
HETATM    2  C8  UNL     1      23.858   0.542  52.997  1.00  0.00     0.327 C 
HETATM    3  O1  UNL     1      22.833   1.278  52.901  1.00  0.00    -0.246 OA
HETATM    4  N2  UNL     1      23.186  -0.663  52.771  1.00  0.00    -0.309 N 
HETATM    5  H9  UNL     1      23.889  -1.416  52.812  1.00  0.00     0.170 HD
ENDROOT
BRANCH   1   6
HETATM    6  C7  UNL     1      24.583   2.689  53.356  1.00  0.00     0.172 C 
BRANCH   6   7
HETATM    7  C6  UNL     1      24.360   3.419  52.100  1.00  0.00    -0.039 A 
HETATM    8  C5  UNL     1      24.857   3.121  50.852  1.00  0.00     0.009 A 
HETATM    9  C4  UNL     1      24.606   3.786  49.674  1.00  0.00     0.001 A 
HETATM   10  C3  UNL     1      23.773   4.875  49.676  1.00  0.00     0.007 A 
HETATM   11  C2  UNL     1      23.221   5.256  50.882  1.00  0.00    -0.061 A 
HETATM   12  C1  UNL     1      22.328   6.442  50.822  1.00  0.00     0.048 C 
HETATM   13  C22 UNL     1      23.521   4.542  52.007  1.00  0.00     0.015 A 
ENDBRANCH   6   7
ENDBRANCH   1   6
BRANCH   1  14
HETATM   14  C15 UNL     1      26.405   1.178  53.428  1.00  0.00     0.049 C 
HETATM   15  C16 UNL     1      26.986   0.382  54.348  1.00  0.00     0.066 C 
HETATM   16  C17 UNL     1      28.261  -0.087  54.891  1.00  0.00     0.070 C 
HETATM   17  C18 UNL     1      29.470   0.534  54.270  1.00  0.00     0.033 C 
HETATM   18  C19 UNL     1      29.413   2.012  54.212  1.00  0.00    -0.030 C 
HETATM   19  C20 UNL     1      28.473   2.558  53.444  1.00  0.00    -0.025 C 
HETATM   20  C21 UNL     1      27.451   1.817  52.620  1.00  0.00     0.086 C 
BRANCH  15  21
HETATM   21  O2  UNL     1      26.136  -0.332  55.170  1.00  0.00    -0.363 OA
HETATM   22  H15 UNL     1      25.448   0.133  55.775  1.00  0.00     0.217 HD
ENDBRANCH  15  21
ENDBRANCH   1  14
BRANCH   4  23
HETATM   23  C9  UNL     1      21.784  -0.401  52.567  1.00  0.00     0.036 A 
HETATM   24  C10 UNL     1      20.990  -0.809  53.632  1.00  0.00     0.029 A 
HETATM   25  C11 UNL     1      19.638  -0.620  53.573  1.00  0.00     0.002 A 
HETATM   26  C12 UNL     1      19.115  -0.028  52.447  1.00  0.00     0.000 A 
HETATM   27  C13 UNL     1      19.881   0.394  51.361  1.00  0.00     0.002 A 
HETATM   28  C14 UNL     1      21.244   0.190  51.448  1.00  0.00     0.029 A 
ENDBRANCH   4  23
TORSDOF 5
ENDMDL
MODEL 9
REMARK VINA RESULT:      -8.7      2.220      7.739
REMARK  5 active torsions:
REMARK  status: ('A' for Active; 'I' for Inactive)
REMARK    1  A    between atoms: C6_6  and  C7_7 
REMARK    2  A    between atoms: C7_7  and  N1_8 
REMARK       I    between atoms: N1_8  and  C8_9 
REMARK    3  A    between atoms: N1_8  and  C15_18 
REMARK       I    between atoms: C8_9  and  N2_11 
REMARK    4  A    between atoms: N2_11  and  C9_12 
REMARK    5  A    between atoms: C16_19  and  O2_20 
ROOT
HETATM    1  N1  UNL     1      24.446   3.912  51.039  1.00  0.00    -0.296 N 
HETATM    2  C8  UNL     1      24.945   2.959  51.933  1.00  0.00     0.327 C 
HETATM    3  O1  UNL     1      25.727   2.167  51.332  1.00  0.00    -0.246 OA
HETATM    4  N2  UNL     1      25.071   2.354  53.188  1.00  0.00    -0.309 N 
HETATM    5  H9  UNL     1      24.478   2.886  53.843  1.00  0.00     0.170 HD
ENDROOT
BRANCH   1   6
HETATM    6  C7  UNL     1      24.975   3.639  49.742  1.00  0.00     0.172 C 
BRANCH   6   7
HETATM    7  C6  UNL     1      25.963   4.583  49.203  1.00  0.00    -0.039 A 
HETATM    8  C5  UNL     1      27.322   4.404  49.080  1.00  0.00     0.009 A 
HETATM    9  C4  UNL     1      28.233   5.278  48.532  1.00  0.00     0.001 A 
HETATM   10  C3  UNL     1      27.800   6.481  48.035  1.00  0.00     0.007 A 
HETATM   11  C2  UNL     1      26.450   6.758  48.111  1.00  0.00    -0.061 A 
HETATM   12  C1  UNL     1      26.043   8.074  47.557  1.00  0.00     0.048 C 
HETATM   13  C22 UNL     1      25.613   5.835  48.670  1.00  0.00     0.015 A 
ENDBRANCH   6   7
ENDBRANCH   1   6
BRANCH   1  14
HETATM   14  C15 UNL     1      23.604   5.074  51.035  1.00  0.00     0.049 C 
HETATM   15  C16 UNL     1      22.384   5.130  50.463  1.00  0.00     0.066 C 
HETATM   16  C17 UNL     1      21.224   5.982  50.198  1.00  0.00     0.070 C 
HETATM   17  C18 UNL     1      21.361   7.390  50.679  1.00  0.00     0.033 C 
HETATM   18  C19 UNL     1      22.624   8.039  50.259  1.00  0.00    -0.030 C 
HETATM   19  C20 UNL     1      23.759   7.537  50.738  1.00  0.00    -0.025 C 
HETATM   20  C21 UNL     1      23.892   6.363  51.675  1.00  0.00     0.086 C 
BRANCH  15  21
HETATM   21  O2  UNL     1      21.937   3.977  49.850  1.00  0.00    -0.363 OA
HETATM   22  H15 UNL     1      22.142   3.770  48.865  1.00  0.00     0.217 HD
ENDBRANCH  15  21
ENDBRANCH   1  14
BRANCH   4  23
HETATM   23  C9  UNL     1      25.972   1.233  53.092  1.00  0.00     0.036 A 
HETATM   24  C10 UNL     1      27.283   1.555  53.420  1.00  0.00     0.029 A 
HETATM   25  C11 UNL     1      28.245   0.586  53.372  1.00  0.00     0.002 A 
HETATM   26  C12 UNL     1      27.868  -0.682  52.997  1.00  0.00     0.000 A 
HETATM   27  C13 UNL     1      26.563  -1.040  52.662  1.00  0.00     0.002 A 
HETATM   28  C14 UNL     1      25.612  -0.041  52.718  1.00  0.00     0.029 A 
ENDBRANCH   4  23
TORSDOF 5
ENDMDL
