MODEL 1
REMARK VINA RESULT:      -7.2      0.000      0.000
REMARK  4 active torsions:
REMARK  status: ('A' for Active; 'I' for Inactive)
REMARK    1  A    between atoms: O1_2  and  C2_3 
REMARK    2  A    between atoms: N1_7  and  C6_8 
REMARK    3  A    between atoms: C7_9  and  C8_10 
REMARK    4  A    between atoms: C15_18  and  O2_19 
ROOT
HETATM    1  C2  UNL     1      26.749  -0.080  53.951  1.00  0.00     0.098 A 
HETATM    2  C3  UNL     1      25.696  -0.786  53.530  1.00  0.00     0.019 A 
HETATM    3  C4  UNL     1      24.385  -0.244  53.091  1.00  0.00     0.089 A 
HETATM    4  C5  UNL     1      24.383   1.232  53.179  1.00  0.00     0.040 A 
HETATM    5  N1  UNL     1      23.333   1.894  52.842  1.00  0.00    -0.265 NA
HETATM    6  C14 UNL     1      25.529   2.006  53.638  1.00  0.00     0.067 A 
HETATM    7  C15 UNL     1      26.640   1.384  53.999  1.00  0.00     0.103 A 
ENDROOT
BRANCH   5   8
HETATM    8  C6  UNL     1      22.141   1.231  52.373  1.00  0.00     0.118 C 
HETATM    9  C7  UNL     1      20.962   1.448  52.880  1.00  0.00     0.030 C 
BRANCH   9  10
HETATM   10  C8  UNL     1      19.768   0.792  52.421  1.00  0.00    -0.034 A 
HETATM   11  C9  UNL     1      18.983   1.271  51.408  1.00  0.00     0.011 A 
HETATM   12  C10 UNL     1      17.837   0.637  50.971  1.00  0.00     0.002 A 
HETATM   13  C11 UNL     1      17.430  -0.544  51.560  1.00  0.00     0.019 A 
HETATM   14  C12 UNL     1      18.199  -1.071  52.596  1.00  0.00     0.011 A 
HETATM   15 BR1  UNL     1      17.740  -2.704  53.493  1.00  0.00    -0.051 Br
HETATM   16  C13 UNL     1      19.333  -0.387  52.984  1.00  0.00     0.030 A 
ENDBRANCH   9  10
ENDBRANCH   5   8
BRANCH   7  17
HETATM   17  O2  UNL     1      27.805   1.989  54.454  1.00  0.00    -0.353 OA
HETATM   18  C16 UNL     1      28.681   2.536  53.495  1.00  0.00     0.210 C 
ENDBRANCH   7  17
BRANCH   1  19
HETATM   19  O1  UNL     1      27.854  -0.827  54.303  1.00  0.00    -0.353 OA
HETATM   20  C1  UNL     1      28.906  -1.137  53.411  1.00  0.00     0.210 C 
ENDBRANCH   1  19
TORSDOF 4
ENDMDL
MODEL 2
REMARK VINA RESULT:      -7.1      5.605      8.035
REMARK  4 active torsions:
REMARK  status: ('A' for Active; 'I' for Inactive)
REMARK    1  A    between atoms: O1_2  and  C2_3 
REMARK    2  A    between atoms: N1_7  and  C6_8 
REMARK    3  A    between atoms: C7_9  and  C8_10 
REMARK    4  A    between atoms: C15_18  and  O2_19 
ROOT
HETATM    1  C2  UNL     1      26.091  -0.105  52.900  1.00  0.00     0.098 A 
HETATM    2  C3  UNL     1      26.956   0.768  52.378  1.00  0.00     0.019 A 
HETATM    3  C4  UNL     1      26.625   2.058  51.721  1.00  0.00     0.089 A 
HETATM    4  C5  UNL     1      25.162   2.270  51.712  1.00  0.00     0.040 A 
HETATM    5  N1  UNL     1      24.671   3.335  51.184  1.00  0.00    -0.265 NA
HETATM    6  C14 UNL     1      24.214   1.320  52.280  1.00  0.00     0.067 A 
HETATM    7  C15 UNL     1      24.656   0.205  52.839  1.00  0.00     0.103 A 
ENDROOT
BRANCH   5   8
HETATM    8  C6  UNL     1      25.516   4.343  50.593  1.00  0.00     0.118 C 
HETATM    9  C7  UNL     1      25.943   4.281  49.365  1.00  0.00     0.030 C 
BRANCH   9  10
HETATM   10  C8  UNL     1      26.786   5.280  48.767  1.00  0.00    -0.034 A 
HETATM   11  C9  UNL     1      26.334   6.504  48.356  1.00  0.00     0.011 A 
HETATM   12  C10 UNL     1      27.149   7.460  47.782  1.00  0.00     0.002 A 
HETATM   13  C11 UNL     1      28.493   7.206  47.596  1.00  0.00     0.019 A 
HETATM   14  C12 UNL     1      28.999   5.971  48.000  1.00  0.00     0.011 A 
HETATM   15 BR1  UNL     1      30.847   5.499  47.796  1.00  0.00    -0.051 Br
HETATM   16  C13 UNL     1      28.131   5.061  48.567  1.00  0.00     0.030 A 
ENDBRANCH   9  10
ENDBRANCH   5   8
BRANCH   7  17
HETATM   17  O2  UNL     1      23.872  -0.787  53.417  1.00  0.00    -0.353 OA
HETATM   18  C16 UNL     1      22.502  -0.816  53.090  1.00  0.00     0.210 C 
ENDBRANCH   7  17
BRANCH   1  19
HETATM   19  O1  UNL     1      26.657  -1.233  53.456  1.00  0.00    -0.353 OA
HETATM   20  C1  UNL     1      27.171  -2.307  52.695  1.00  0.00     0.210 C 
ENDBRANCH   1  19
TORSDOF 4
ENDMDL
MODEL 3
REMARK VINA RESULT:      -7.1      5.883      7.855
REMARK  4 active torsions:
REMARK  status: ('A' for Active; 'I' for Inactive)
REMARK    1  A    between atoms: O1_2  and  C2_3 
REMARK    2  A    between atoms: N1_7  and  C6_8 
REMARK    3  A    between atoms: C7_9  and  C8_10 
REMARK    4  A    between atoms: C15_18  and  O2_19 
ROOT
HETATM    1  C2  UNL     1      24.602  -0.081  53.222  1.00  0.00     0.098 A 
HETATM    2  C3  UNL     1      24.055   1.035  52.734  1.00  0.00     0.019 A 
HETATM    3  C4  UNL     1      24.720   2.042  51.869  1.00  0.00     0.089 A 
HETATM    4  C5  UNL     1      26.119   1.646  51.601  1.00  0.00     0.040 A 
HETATM    5  N1  UNL     1      26.868   2.391  50.867  1.00  0.00    -0.265 NA
HETATM    6  C14 UNL     1      26.720   0.429  52.131  1.00  0.00     0.067 A 
HETATM    7  C15 UNL     1      26.001  -0.381  52.893  1.00  0.00     0.103 A 
ENDROOT
BRANCH   5   8
HETATM    8  C6  UNL     1      26.378   3.619  50.290  1.00  0.00     0.118 C 
HETATM    9  C7  UNL     1      26.993   4.247  49.330  1.00  0.00     0.030 C 
BRANCH   9  10
HETATM   10  C8  UNL     1      26.513   5.471  48.749  1.00  0.00    -0.034 A 
HETATM   11  C9  UNL     1      25.191   5.821  48.707  1.00  0.00     0.011 A 
HETATM   12  C10 UNL     1      24.735   6.999  48.147  1.00  0.00     0.002 A 
HETATM   13  C11 UNL     1      25.628   7.894  47.592  1.00  0.00     0.019 A 
HETATM   14  C12 UNL     1      26.986   7.579  47.611  1.00  0.00     0.011 A 
HETATM   15 BR1  UNL     1      28.323   8.740  46.873  1.00  0.00    -0.051 Br
HETATM   16  C13 UNL     1      27.374   6.386  48.187  1.00  0.00     0.030 A 
ENDBRANCH   9  10
ENDBRANCH   5   8
BRANCH   7  17
HETATM   17  O2  UNL     1      26.440  -1.569  53.465  1.00  0.00    -0.353 OA
HETATM   18  C16 UNL     1      27.283  -2.397  52.697  1.00  0.00     0.210 C 
ENDBRANCH   7  17
BRANCH   1  19
HETATM   19  O1  UNL     1      23.766  -0.852  54.004  1.00  0.00    -0.353 OA
HETATM   20  C1  UNL     1      22.356  -0.753  53.975  1.00  0.00     0.210 C 
ENDBRANCH   1  19
TORSDOF 4
ENDMDL
MODEL 4
REMARK VINA RESULT:      -6.9      4.517      5.802
REMARK  4 active torsions:
REMARK  status: ('A' for Active; 'I' for Inactive)
REMARK    1  A    between atoms: O1_2  and  C2_3 
REMARK    2  A    between atoms: N1_7  and  C6_8 
REMARK    3  A    between atoms: C7_9  and  C8_10 
REMARK    4  A    between atoms: C15_18  and  O2_19 
ROOT
HETATM    1  C2  UNL     1      26.034  -0.231  53.873  1.00  0.00     0.098 A 
HETATM    2  C3  UNL     1      25.059   0.248  53.095  1.00  0.00     0.019 A 
HETATM    3  C4  UNL     1      25.202   1.260  52.019  1.00  0.00     0.089 A 
HETATM    4  C5  UNL     1      26.610   1.695  51.905  1.00  0.00     0.040 A 
HETATM    5  N1  UNL     1      26.942   2.573  51.026  1.00  0.00    -0.265 NA
HETATM    6  C14 UNL     1      27.677   1.176  52.751  1.00  0.00     0.067 A 
HETATM    7  C15 UNL     1      27.400   0.269  53.675  1.00  0.00     0.103 A 
ENDROOT
BRANCH   5   8
HETATM    8  C6  UNL     1      25.969   3.155  50.135  1.00  0.00     0.118 C 
HETATM    9  C7  UNL     1      25.761   4.437  50.049  1.00  0.00     0.030 C 
BRANCH   9  10
HETATM   10  C8  UNL     1      24.793   5.026  49.165  1.00  0.00    -0.034 A 
HETATM   11  C9  UNL     1      24.911   6.285  48.644  1.00  0.00     0.011 A 
HETATM   12  C10 UNL     1      23.977   6.846  47.795  1.00  0.00     0.002 A 
HETATM   13  C11 UNL     1      22.854   6.132  47.430  1.00  0.00     0.019 A 
HETATM   14  C12 UNL     1      22.690   4.843  47.937  1.00  0.00     0.011 A 
HETATM   15 BR1  UNL     1      21.173   3.751  47.505  1.00  0.00    -0.051 Br
HETATM   16  C13 UNL     1      23.661   4.343  48.780  1.00  0.00     0.030 A 
ENDBRANCH   9  10
ENDBRANCH   5   8
BRANCH   7  17
HETATM   17  O2  UNL     1      28.311  -0.312  54.549  1.00  0.00    -0.353 OA
HETATM   18  C16 UNL     1      29.476  -0.885  54.000  1.00  0.00     0.210 C 
ENDBRANCH   7  17
BRANCH   1  19
HETATM   19  O1  UNL     1      25.637  -1.170  54.802  1.00  0.00    -0.353 OA
HETATM   20  C1  UNL     1      24.343  -1.210  55.371  1.00  0.00     0.210 C 
ENDBRANCH   1  19
TORSDOF 4
ENDMDL
MODEL 5
REMARK VINA RESULT:      -6.8      2.340      3.167
REMARK  4 active torsions:
REMARK  status: ('A' for Active; 'I' for Inactive)
REMARK    1  A    between atoms: O1_2  and  C2_3 
REMARK    2  A    between atoms: N1_7  and  C6_8 
REMARK    3  A    between atoms: C7_9  and  C8_10 
REMARK    4  A    between atoms: C15_18  and  O2_19 
ROOT
HETATM    1  C2  UNL     1      26.383   2.768  51.189  1.00  0.00     0.098 A 
HETATM    2  C3  UNL     1      25.147   2.594  50.713  1.00  0.00     0.019 A 
HETATM    3  C4  UNL     1      24.068   1.781  51.329  1.00  0.00     0.089 A 
HETATM    4  C5  UNL     1      24.544   1.160  52.583  1.00  0.00     0.040 A 
HETATM    5  N1  UNL     1      23.754   0.412  53.269  1.00  0.00    -0.265 NA
HETATM    6  C14 UNL     1      25.892   1.346  53.105  1.00  0.00     0.067 A 
HETATM    7  C15 UNL     1      26.753   2.105  52.446  1.00  0.00     0.103 A 
ENDROOT
BRANCH   5   8
HETATM    8  C6  UNL     1      22.399   0.157  52.847  1.00  0.00     0.118 C 
HETATM    9  C7  UNL     1      21.490  -0.339  53.636  1.00  0.00     0.030 C 
BRANCH   9  10
HETATM   10  C8  UNL     1      20.137  -0.597  53.224  1.00  0.00    -0.034 A 
HETATM   11  C9  UNL     1      19.309  -1.483  53.857  1.00  0.00     0.011 A 
HETATM   12  C10 UNL     1      18.010  -1.727  53.456  1.00  0.00     0.002 A 
HETATM   13  C11 UNL     1      17.484  -1.063  52.366  1.00  0.00     0.019 A 
HETATM   14  C12 UNL     1      18.291  -0.150  51.689  1.00  0.00     0.011 A 
HETATM   15 BR1  UNL     1      17.676   0.835  50.162  1.00  0.00    -0.051 Br
HETATM   16  C13 UNL     1      19.580   0.047  52.142  1.00  0.00     0.030 A 
ENDBRANCH   9  10
ENDBRANCH   5   8
BRANCH   7  17
HETATM   17  O2  UNL     1      28.064   2.371  52.822  1.00  0.00    -0.353 OA
HETATM   18  C16 UNL     1      28.776   1.354  53.490  1.00  0.00     0.210 C 
ENDBRANCH   7  17
BRANCH   1  19
HETATM   19  O1  UNL     1      27.199   3.577  50.424  1.00  0.00    -0.353 OA
HETATM   20  C1  UNL     1      26.758   4.268  49.272  1.00  0.00     0.210 C 
ENDBRANCH   1  19
TORSDOF 4
ENDMDL
MODEL 6
REMARK VINA RESULT:      -6.7      5.773      7.994
REMARK  4 active torsions:
REMARK  status: ('A' for Active; 'I' for Inactive)
REMARK    1  A    between atoms: O1_2  and  C2_3 
REMARK    2  A    between atoms: N1_7  and  C6_8 
REMARK    3  A    between atoms: C7_9  and  C8_10 
REMARK    4  A    between atoms: C15_18  and  O2_19 
ROOT
HETATM    1  C2  UNL     1      26.620   0.408  53.465  1.00  0.00     0.098 A 
HETATM    2  C3  UNL     1      27.452   1.239  52.833  1.00  0.00     0.019 A 
HETATM    3  C4  UNL     1      27.096   2.204  51.761  1.00  0.00     0.089 A 
HETATM    4  C5  UNL     1      25.650   2.131  51.463  1.00  0.00     0.040 A 
HETATM    5  N1  UNL     1      25.141   2.891  50.559  1.00  0.00    -0.265 NA
HETATM    6  C14 UNL     1      24.738   1.225  52.150  1.00  0.00     0.067 A 
HETATM    7  C15 UNL     1      25.199   0.417  53.092  1.00  0.00     0.103 A 
ENDROOT
BRANCH   5   8
HETATM    8  C6  UNL     1      25.950   3.826  49.816  1.00  0.00     0.118 C 
HETATM    9  C7  UNL     1      25.515   4.989  49.428  1.00  0.00     0.030 C 
BRANCH   9  10
HETATM   10  C8  UNL     1      26.313   5.927  48.686  1.00  0.00    -0.034 A 
HETATM   11  C9  UNL     1      27.665   5.803  48.518  1.00  0.00     0.011 A 
HETATM   12  C10 UNL     1      28.427   6.708  47.804  1.00  0.00     0.002 A 
HETATM   13  C11 UNL     1      27.831   7.806  47.216  1.00  0.00     0.019 A 
HETATM   14  C12 UNL     1      26.455   7.974  47.361  1.00  0.00     0.011 A 
HETATM   15 BR1  UNL     1      25.511   9.456  46.592  1.00  0.00    -0.051 Br
HETATM   16  C13 UNL     1      25.752   7.033  48.087  1.00  0.00     0.030 A 
ENDBRANCH   9  10
ENDBRANCH   5   8
BRANCH   7  17
HETATM   17  O2  UNL     1      24.450  -0.495  53.826  1.00  0.00    -0.353 OA
HETATM   18  C16 UNL     1      23.051  -0.481  53.661  1.00  0.00     0.210 C 
ENDBRANCH   7  17
BRANCH   1  19
HETATM   19  O1  UNL     1      27.204  -0.390  54.427  1.00  0.00    -0.353 OA
HETATM   20  C1  UNL     1      28.474  -0.133  54.991  1.00  0.00     0.210 C 
ENDBRANCH   1  19
TORSDOF 4
ENDMDL
MODEL 7
REMARK VINA RESULT:      -6.7      5.457      7.327
REMARK  4 active torsions:
REMARK  status: ('A' for Active; 'I' for Inactive)
REMARK    1  A    between atoms: O1_2  and  C2_3 
REMARK    2  A    between atoms: N1_7  and  C6_8 
REMARK    3  A    between atoms: C7_9  and  C8_10 
REMARK    4  A    between atoms: C15_18  and  O2_19 
ROOT
HETATM    1  C2  UNL     1      27.800   6.416  48.015  1.00  0.00     0.098 A 
HETATM    2  C3  UNL     1      28.035   5.197  48.506  1.00  0.00     0.019 A 
HETATM    3  C4  UNL     1      27.054   4.312  49.185  1.00  0.00     0.089 A 
HETATM    4  C5  UNL     1      25.732   4.969  49.256  1.00  0.00     0.040 A 
HETATM    5  N1  UNL     1      24.743   4.363  49.811  1.00  0.00    -0.265 NA
HETATM    6  C14 UNL     1      25.471   6.299  48.722  1.00  0.00     0.067 A 
HETATM    7  C15 UNL     1      26.448   6.976  48.138  1.00  0.00     0.103 A 
ENDROOT
BRANCH   5   8
HETATM    8  C6  UNL     1      24.886   3.042  50.373  1.00  0.00     0.118 C 
HETATM    9  C7  UNL     1      24.911   2.815  51.655  1.00  0.00     0.030 C 
BRANCH   9  10
HETATM   10  C8  UNL     1      25.054   1.503  52.225  1.00  0.00    -0.034 A 
HETATM   11  C9  UNL     1      26.186   0.744  52.100  1.00  0.00     0.011 A 
HETATM   12  C10 UNL     1      26.318  -0.517  52.649  1.00  0.00     0.002 A 
HETATM   13  C11 UNL     1      25.278  -1.073  53.368  1.00  0.00     0.019 A 
HETATM   14  C12 UNL     1      24.105  -0.336  53.521  1.00  0.00     0.011 A 
HETATM   15 BR1  UNL     1      22.592  -0.998  54.496  1.00  0.00    -0.051 Br
HETATM   16  C13 UNL     1      24.039   0.918  52.947  1.00  0.00     0.030 A 
ENDBRANCH   9  10
ENDBRANCH   5   8
BRANCH   7  17
HETATM   17  O2  UNL     1      26.345   8.248  47.586  1.00  0.00    -0.353 OA
HETATM   18  C16 UNL     1      26.197   9.337  48.468  1.00  0.00     0.210 C 
ENDBRANCH   7  17
BRANCH   1  19
HETATM   19  O1  UNL     1      28.886   7.033  47.428  1.00  0.00    -0.353 OA
HETATM   20  C1  UNL     1      29.820   7.818  48.142  1.00  0.00     0.210 C 
ENDBRANCH   1  19
TORSDOF 4
ENDMDL
MODEL 8
REMARK VINA RESULT:      -6.4      5.588      7.640
REMARK  4 active torsions:
REMARK  status: ('A' for Active; 'I' for Inactive)
REMARK    1  A    between atoms: O1_2  and  C2_3 
REMARK    2  A    between atoms: N1_7  and  C6_8 
REMARK    3  A    between atoms: C7_9  and  C8_10 
REMARK    4  A    between atoms: C15_18  and  O2_19 
ROOT
HETATM    1  C2  UNL     1      24.981   0.027  53.320  1.00  0.00     0.098 A 
HETATM    2  C3  UNL     1      25.891   0.746  52.659  1.00  0.00     0.019 A 
HETATM    3  C4  UNL     1      25.624   1.772  51.619  1.00  0.00     0.089 A 
HETATM    4  C5  UNL     1      24.170   1.908  51.393  1.00  0.00     0.040 A 
HETATM    5  N1  UNL     1      23.730   2.750  50.525  1.00  0.00    -0.265 NA
HETATM    6  C14 UNL     1      23.173   1.125  52.112  1.00  0.00     0.067 A 
HETATM    7  C15 UNL     1      23.560   0.242  53.019  1.00  0.00     0.103 A 
ENDROOT
BRANCH   5   8
HETATM    8  C6  UNL     1      24.627   3.578  49.755  1.00  0.00     0.118 C 
HETATM    9  C7  UNL     1      24.629   4.877  49.825  1.00  0.00     0.030 C 
BRANCH   9  10
HETATM   10  C8  UNL     1      25.518   5.710  49.061  1.00  0.00    -0.034 A 
HETATM   11  C9  UNL     1      25.117   6.841  48.404  1.00  0.00     0.011 A 
HETATM   12  C10 UNL     1      25.975   7.637  47.671  1.00  0.00     0.002 A 
HETATM   13  C11 UNL     1      27.313   7.309  47.573  1.00  0.00     0.019 A 
HETATM   14  C12 UNL     1      27.768   6.165  48.227  1.00  0.00     0.011 A 
HETATM   15 BR1  UNL     1      29.601   5.604  48.168  1.00  0.00    -0.051 Br
HETATM   16  C13 UNL     1      26.857   5.414  48.943  1.00  0.00     0.030 A 
ENDBRANCH   9  10
ENDBRANCH   5   8
BRANCH   7  17
HETATM   17  O2  UNL     1      22.725  -0.571  53.777  1.00  0.00    -0.353 OA
HETATM   18  C16 UNL     1      21.348  -0.273  53.786  1.00  0.00     0.210 C 
ENDBRANCH   7  17
BRANCH   1  19
HETATM   19  O1  UNL     1      25.492  -0.864  54.241  1.00  0.00    -0.353 OA
HETATM   20  C1  UNL     1      25.904  -0.495  55.543  1.00  0.00     0.210 C 
ENDBRANCH   1  19
TORSDOF 4
ENDMDL
MODEL 9
REMARK VINA RESULT:      -6.4      5.895      7.696
REMARK  4 active torsions:
REMARK  status: ('A' for Active; 'I' for Inactive)
REMARK    1  A    between atoms: O1_2  and  C2_3 
REMARK    2  A    between atoms: N1_7  and  C6_8 
REMARK    3  A    between atoms: C7_9  and  C8_10 
REMARK    4  A    between atoms: C15_18  and  O2_19 
ROOT
HETATM    1  C2  UNL     1      27.230   7.581  47.920  1.00  0.00     0.098 A 
HETATM    2  C3  UNL     1      26.147   7.078  48.518  1.00  0.00     0.019 A 
HETATM    3  C4  UNL     1      26.001   5.712  49.082  1.00  0.00     0.089 A 
HETATM    4  C5  UNL     1      27.248   4.942  48.895  1.00  0.00     0.040 A 
HETATM    5  N1  UNL     1      27.324   3.729  49.316  1.00  0.00    -0.265 NA
HETATM    6  C14 UNL     1      28.433   5.487  48.243  1.00  0.00     0.067 A 
HETATM    7  C15 UNL     1      28.419   6.729  47.787  1.00  0.00     0.103 A 
ENDROOT
BRANCH   5   8
HETATM    8  C6  UNL     1      26.213   3.089  49.976  1.00  0.00     0.118 C 
HETATM    9  C7  UNL     1      26.333   2.433  51.094  1.00  0.00     0.030 C 
BRANCH   9  10
HETATM   10  C8  UNL     1      25.232   1.791  51.758  1.00  0.00    -0.034 A 
HETATM   11  C9  UNL     1      25.350   0.626  52.466  1.00  0.00     0.011 A 
HETATM   12  C10 UNL     1      24.288   0.013  53.101  1.00  0.00     0.002 A 
HETATM   13  C11 UNL     1      23.028   0.572  53.043  1.00  0.00     0.019 A 
HETATM   14  C12 UNL     1      22.858   1.760  52.333  1.00  0.00     0.011 A 
HETATM   15 BR1  UNL     1      21.158   2.635  52.180  1.00  0.00    -0.051 Br
HETATM   16  C13 UNL     1      23.961   2.321  51.722  1.00  0.00     0.030 A 
ENDBRANCH   9  10
ENDBRANCH   5   8
BRANCH   7  17
HETATM   17  O2  UNL     1      29.469   7.377  47.148  1.00  0.00    -0.353 OA
HETATM   18  C16 UNL     1      30.775   6.897  47.375  1.00  0.00     0.210 C 
ENDBRANCH   7  17
BRANCH   1  19
HETATM   19  O1  UNL     1      27.108   8.884  47.482  1.00  0.00    -0.353 OA
HETATM   20  C1  UNL     1      27.227  10.009  48.330  1.00  0.00     0.210 C 
ENDBRANCH   1  19
TORSDOF 4
ENDMDL
