MODEL 1
REMARK VINA RESULT:      -8.3      0.000      0.000
REMARK  7 active torsions:
REMARK  status: ('A' for Active; 'I' for Inactive)
REMARK    1  A    between atoms: C2_2  and  C3_3 
REMARK    2  A    between atoms: C3_3  and  O1_4 
REMARK    3  A    between atoms: O1_4  and  C4_5 
REMARK    4  A    between atoms: C4_5  and  C5_6 
REMARK       I    between atoms: C5_6  and  N1_8 
REMARK    5  A    between atoms: N1_8  and  C6_9 
REMARK    6  A    between atoms: C9_12  and  N2_13 
REMARK    7  A    between atoms: N2_13  and  C10_14 
ROOT
HETATM    1  C6  UNL     1      25.223  -0.643  54.515  1.00  0.00     0.130 A 
HETATM    2  C7  UNL     1      24.339  -0.170  53.573  1.00  0.00     0.068 A 
HETATM    3  C8  UNL     1      22.980  -0.360  53.588  1.00  0.00     0.044 A 
HETATM    4  C9  UNL     1      22.110   0.120  52.640  1.00  0.00     0.142 A 
HETATM    5  N3  UNL     1      20.830  -0.189  52.863  1.00  0.00    -0.224 NA
HETATM    6  C16 UNL     1      20.350  -0.896  53.890  1.00  0.00     0.236 A 
HETATM    7  N4  UNL     1      21.202  -1.362  54.816  1.00  0.00    -0.240 NA
HETATM    8  C17 UNL     1      22.505  -1.090  54.654  1.00  0.00     0.089 A 
HETATM    9  C18 UNL     1      23.350  -1.580  55.616  1.00  0.00     0.151 A 
HETATM   10  N5  UNL     1      24.651  -1.345  55.515  1.00  0.00    -0.241 NA
ENDROOT
BRANCH   4  11
HETATM   11  N2  UNL     1      22.601   0.870  51.546  1.00  0.00    -0.340 N 
HETATM   12  H12 UNL     1      22.672   0.464  50.616  1.00  0.00     0.167 HD
BRANCH  11  13
HETATM   13  C10 UNL     1      23.056   2.215  51.498  1.00  0.00     0.035 A 
HETATM   14  C11 UNL     1      22.507   3.265  52.185  1.00  0.00     0.032 A 
HETATM   15  C12 UNL     1      22.957   4.560  52.128  1.00  0.00     0.046 A 
HETATM   16  C13 UNL     1      24.036   4.874  51.336  1.00  0.00     0.138 A 
HETATM   17  F1  UNL     1      24.416   6.173  51.337  1.00  0.00    -0.204 F 
HETATM   18  C14 UNL     1      24.630   3.855  50.621  1.00  0.00     0.074 A 
HETATM   19 CL1  UNL     1      25.996   4.324  49.636  1.00  0.00    -0.081 Cl
HETATM   20  C15 UNL     1      24.133   2.573  50.718  1.00  0.00     0.056 A 
ENDBRANCH  11  13
ENDBRANCH   4  11
BRANCH   1  21
HETATM   21  N1  UNL     1      26.604  -0.501  54.578  1.00  0.00    -0.310 N 
HETATM   22  C5  UNL     1      27.642  -0.898  53.722  1.00  0.00     0.246 C 
HETATM   23  O2  UNL     1      27.241  -1.525  52.672  1.00  0.00    -0.271 OA
HETATM   24  H10 UNL     1      27.059  -0.032  55.382  1.00  0.00     0.170 HD
BRANCH  22  25
HETATM   25  C4  UNL     1      29.099  -0.850  53.597  1.00  0.00     0.270 C 
BRANCH  25  26
HETATM   26  O1  UNL     1      29.747   0.317  53.697  1.00  0.00    -0.382 OA
BRANCH  26  27
HETATM   27  C3  UNL     1      29.281   1.400  54.322  1.00  0.00     0.168 C 
BRANCH  27  28
HETATM   28  C2  UNL     1      28.787   2.555  53.507  1.00  0.00     0.022 C 
HETATM   29  C1  UNL     1      27.556   2.356  52.716  1.00  0.00     0.007 C 
ENDBRANCH  27  28
ENDBRANCH  26  27
ENDBRANCH  25  26
ENDBRANCH  22  25
ENDBRANCH   1  21
TORSDOF 7
ENDMDL
MODEL 2
REMARK VINA RESULT:      -8.2      1.385      1.861
REMARK  7 active torsions:
REMARK  status: ('A' for Active; 'I' for Inactive)
REMARK    1  A    between atoms: C2_2  and  C3_3 
REMARK    2  A    between atoms: C3_3  and  O1_4 
REMARK    3  A    between atoms: O1_4  and  C4_5 
REMARK    4  A    between atoms: C4_5  and  C5_6 
REMARK       I    between atoms: C5_6  and  N1_8 
REMARK    5  A    between atoms: N1_8  and  C6_9 
REMARK    6  A    between atoms: C9_12  and  N2_13 
REMARK    7  A    between atoms: N2_13  and  C10_14 
ROOT
HETATM    1  C6  UNL     1      24.673  -0.589  54.227  1.00  0.00     0.130 A 
HETATM    2  C7  UNL     1      24.082   0.057  53.167  1.00  0.00     0.068 A 
HETATM    3  C8  UNL     1      22.731   0.145  52.939  1.00  0.00     0.044 A 
HETATM    4  C9  UNL     1      22.156   0.794  51.875  1.00  0.00     0.142 A 
HETATM    5  N3  UNL     1      20.821   0.749  51.860  1.00  0.00    -0.224 NA
HETATM    6  C16 UNL     1      20.037   0.149  52.760  1.00  0.00     0.236 A 
HETATM    7  N4  UNL     1      20.601  -0.484  53.800  1.00  0.00    -0.240 NA
HETATM    8  C17 UNL     1      21.940  -0.479  53.877  1.00  0.00     0.089 A 
HETATM    9  C18 UNL     1      22.487  -1.134  54.950  1.00  0.00     0.151 A 
HETATM   10  N5  UNL     1      23.806  -1.166  55.084  1.00  0.00    -0.241 NA
ENDROOT
BRANCH   4  11
HETATM   11  N2  UNL     1      22.971   1.435  50.913  1.00  0.00    -0.340 N 
HETATM   12  H12 UNL     1      23.271   0.953  50.069  1.00  0.00     0.167 HD
BRANCH  11  13
HETATM   13  C10 UNL     1      23.498   2.754  50.903  1.00  0.00     0.035 A 
HETATM   14  C11 UNL     1      23.022   3.806  51.638  1.00  0.00     0.032 A 
HETATM   15  C12 UNL     1      23.542   5.075  51.618  1.00  0.00     0.046 A 
HETATM   16  C13 UNL     1      24.622   5.359  50.814  1.00  0.00     0.138 A 
HETATM   17  F1  UNL     1      25.073   6.634  50.854  1.00  0.00    -0.204 F 
HETATM   18  C14 UNL     1      25.143   4.336  50.051  1.00  0.00     0.074 A 
HETATM   19 CL1  UNL     1      26.514   4.765  49.053  1.00  0.00    -0.081 Cl
HETATM   20  C15 UNL     1      24.579   3.080  50.113  1.00  0.00     0.056 A 
ENDBRANCH  11  13
ENDBRANCH   4  11
BRANCH   1  21
HETATM   21  N1  UNL     1      26.022  -0.728  54.534  1.00  0.00    -0.310 N 
HETATM   22  C5  UNL     1      27.035   0.201  54.815  1.00  0.00     0.246 C 
HETATM   23  O2  UNL     1      26.644   1.427  54.775  1.00  0.00    -0.271 OA
HETATM   24  H10 UNL     1      26.469  -1.661  54.578  1.00  0.00     0.170 HD
BRANCH  22  25
HETATM   25  C4  UNL     1      28.457   0.271  55.153  1.00  0.00     0.270 C 
BRANCH  25  26
HETATM   26  O1  UNL     1      29.369   0.481  54.195  1.00  0.00    -0.382 OA
BRANCH  26  27
HETATM   27  C3  UNL     1      29.678  -0.388  53.231  1.00  0.00     0.168 C 
BRANCH  27  28
HETATM   28  C2  UNL     1      29.762  -1.846  53.565  1.00  0.00     0.022 C 
HETATM   29  C1  UNL     1      28.717  -2.734  53.017  1.00  0.00     0.007 C 
ENDBRANCH  27  28
ENDBRANCH  26  27
ENDBRANCH  25  26
ENDBRANCH  22  25
ENDBRANCH   1  21
TORSDOF 7
ENDMDL
MODEL 3
REMARK VINA RESULT:      -8.0      2.980      6.229
REMARK  7 active torsions:
REMARK  status: ('A' for Active; 'I' for Inactive)
REMARK    1  A    between atoms: C2_2  and  C3_3 
REMARK    2  A    between atoms: C3_3  and  O1_4 
REMARK    3  A    between atoms: O1_4  and  C4_5 
REMARK    4  A    between atoms: C4_5  and  C5_6 
REMARK       I    between atoms: C5_6  and  N1_8 
REMARK    5  A    between atoms: N1_8  and  C6_9 
REMARK    6  A    between atoms: C9_12  and  N2_13 
REMARK    7  A    between atoms: N2_13  and  C10_14 
ROOT
HETATM    1  C6  UNL     1      24.430  -0.419  53.620  1.00  0.00     0.130 A 
HETATM    2  C7  UNL     1      25.020   0.439  52.722  1.00  0.00     0.068 A 
HETATM    3  C8  UNL     1      26.209   1.099  52.912  1.00  0.00     0.044 A 
HETATM    4  C9  UNL     1      26.786   1.952  52.005  1.00  0.00     0.142 A 
HETATM    5  N3  UNL     1      27.946   2.479  52.406  1.00  0.00    -0.224 NA
HETATM    6  C16 UNL     1      28.561   2.250  53.570  1.00  0.00     0.236 A 
HETATM    7  N4  UNL     1      27.996   1.415  54.455  1.00  0.00    -0.240 NA
HETATM    8  C17 UNL     1      26.828   0.850  54.116  1.00  0.00     0.089 A 
HETATM    9  C18 UNL     1      26.275   0.001  55.041  1.00  0.00     0.151 A 
HETATM   10  N5  UNL     1      25.121  -0.590  54.767  1.00  0.00    -0.241 NA
ENDROOT
BRANCH   4  11
HETATM   11  N2  UNL     1      26.147   2.205  50.768  1.00  0.00    -0.340 N 
HETATM   12  H12 UNL     1      25.744   1.452  50.217  1.00  0.00     0.167 HD
BRANCH  11  13
HETATM   13  C10 UNL     1      25.944   3.435  50.086  1.00  0.00     0.035 A 
HETATM   14  C11 UNL     1      24.745   4.084  49.957  1.00  0.00     0.032 A 
HETATM   15  C12 UNL     1      24.564   5.272  49.295  1.00  0.00     0.046 A 
HETATM   16  C13 UNL     1      25.638   5.893  48.701  1.00  0.00     0.138 A 
HETATM   17  F1  UNL     1      25.373   7.061  48.069  1.00  0.00    -0.204 F 
HETATM   18  C14 UNL     1      26.871   5.285  48.800  1.00  0.00     0.074 A 
HETATM   19 CL1  UNL     1      28.191   6.129  48.023  1.00  0.00    -0.081 Cl
HETATM   20  C15 UNL     1      26.992   4.091  49.478  1.00  0.00     0.056 A 
ENDBRANCH  11  13
ENDBRANCH   4  11
BRANCH   1  21
HETATM   21  N1  UNL     1      23.237  -1.124  53.513  1.00  0.00    -0.310 N 
HETATM   22  C5  UNL     1      21.931  -0.858  53.949  1.00  0.00     0.246 C 
HETATM   23  O2  UNL     1      21.810   0.257  54.582  1.00  0.00    -0.271 OA
HETATM   24  H10 UNL     1      23.199  -2.047  53.045  1.00  0.00     0.170 HD
BRANCH  22  25
HETATM   25  C4  UNL     1      20.585  -1.432  53.941  1.00  0.00     0.270 C 
BRANCH  25  26
HETATM   26  O1  UNL     1      19.571  -0.769  53.371  1.00  0.00    -0.382 OA
BRANCH  26  27
HETATM   27  C3  UNL     1      18.322  -1.227  53.264  1.00  0.00     0.168 C 
BRANCH  27  28
HETATM   28  C2  UNL     1      17.988  -2.570  53.836  1.00  0.00     0.022 C 
HETATM   29  C1  UNL     1      16.916  -3.345  53.181  1.00  0.00     0.007 C 
ENDBRANCH  27  28
ENDBRANCH  26  27
ENDBRANCH  25  26
ENDBRANCH  22  25
ENDBRANCH   1  21
TORSDOF 7
ENDMDL
MODEL 4
REMARK VINA RESULT:      -7.9      2.829      5.700
REMARK  7 active torsions:
REMARK  status: ('A' for Active; 'I' for Inactive)
REMARK    1  A    between atoms: C2_2  and  C3_3 
REMARK    2  A    between atoms: C3_3  and  O1_4 
REMARK    3  A    between atoms: O1_4  and  C4_5 
REMARK    4  A    between atoms: C4_5  and  C5_6 
REMARK       I    between atoms: C5_6  and  N1_8 
REMARK    5  A    between atoms: N1_8  and  C6_9 
REMARK    6  A    between atoms: C9_12  and  N2_13 
REMARK    7  A    between atoms: N2_13  and  C10_14 
ROOT
HETATM    1  C6  UNL     1      24.447  -0.289  53.515  1.00  0.00     0.130 A 
HETATM    2  C7  UNL     1      25.171   0.536  52.687  1.00  0.00     0.068 A 
HETATM    3  C8  UNL     1      26.389   1.095  52.983  1.00  0.00     0.044 A 
HETATM    4  C9  UNL     1      27.100   1.917  52.145  1.00  0.00     0.142 A 
HETATM    5  N3  UNL     1      28.263   2.342  52.648  1.00  0.00    -0.224 NA
HETATM    6  C16 UNL     1      28.765   2.042  53.848  1.00  0.00     0.236 A 
HETATM    7  N4  UNL     1      28.069   1.237  54.666  1.00  0.00    -0.240 NA
HETATM    8  C17 UNL     1      26.891   0.774  54.225  1.00  0.00     0.089 A 
HETATM    9  C18 UNL     1      26.203  -0.046  55.082  1.00  0.00     0.151 A 
HETATM   10  N5  UNL     1      25.030  -0.537  54.706  1.00  0.00    -0.241 NA
ENDROOT
BRANCH   4  11
HETATM   11  N2  UNL     1      26.582   2.245  50.870  1.00  0.00    -0.340 N 
HETATM   12  H12 UNL     1      26.403   1.527  50.172  1.00  0.00     0.167 HD
BRANCH  11  13
HETATM   13  C10 UNL     1      26.231   3.511  50.331  1.00  0.00     0.035 A 
HETATM   14  C11 UNL     1      26.896   4.160  49.326  1.00  0.00     0.032 A 
HETATM   15  C12 UNL     1      26.545   5.384  48.816  1.00  0.00     0.046 A 
HETATM   16  C13 UNL     1      25.449   6.045  49.320  1.00  0.00     0.138 A 
HETATM   17  F1  UNL     1      25.172   7.246  48.761  1.00  0.00    -0.204 F 
HETATM   18  C14 UNL     1      24.740   5.438  50.335  1.00  0.00     0.074 A 
HETATM   19 CL1  UNL     1      23.361   6.333  50.929  1.00  0.00    -0.081 Cl
HETATM   20  C15 UNL     1      25.141   4.207  50.807  1.00  0.00     0.056 A 
ENDBRANCH  11  13
ENDBRANCH   4  11
BRANCH   1  21
HETATM   21  N1  UNL     1      23.215  -0.894  53.299  1.00  0.00    -0.310 N 
HETATM   22  C5  UNL     1      22.004  -0.870  54.007  1.00  0.00     0.246 C 
HETATM   23  O2  UNL     1      22.039  -0.151  55.075  1.00  0.00    -0.271 OA
HETATM   24  H10 UNL     1      23.057  -1.517  52.486  1.00  0.00     0.170 HD
BRANCH  22  25
HETATM   25  C4  UNL     1      20.643  -1.404  53.961  1.00  0.00     0.270 C 
BRANCH  25  26
HETATM   26  O1  UNL     1      19.642  -0.660  53.473  1.00  0.00    -0.382 OA
BRANCH  26  27
HETATM   27  C3  UNL     1      19.797   0.439  52.732  1.00  0.00     0.168 C 
BRANCH  27  28
HETATM   28  C2  UNL     1      19.982   0.298  51.253  1.00  0.00     0.022 C 
HETATM   29  C1  UNL     1      21.309   0.630  50.696  1.00  0.00     0.007 C 
ENDBRANCH  27  28
ENDBRANCH  26  27
ENDBRANCH  25  26
ENDBRANCH  22  25
ENDBRANCH   1  21
TORSDOF 7
ENDMDL
MODEL 5
REMARK VINA RESULT:      -7.7      3.491      5.727
REMARK  7 active torsions:
REMARK  status: ('A' for Active; 'I' for Inactive)
REMARK    1  A    between atoms: C2_2  and  C3_3 
REMARK    2  A    between atoms: C3_3  and  O1_4 
REMARK    3  A    between atoms: O1_4  and  C4_5 
REMARK    4  A    between atoms: C4_5  and  C5_6 
REMARK       I    between atoms: C5_6  and  N1_8 
REMARK    5  A    between atoms: N1_8  and  C6_9 
REMARK    6  A    between atoms: C9_12  and  N2_13 
REMARK    7  A    between atoms: N2_13  and  C10_14 
ROOT
HETATM    1  C6  UNL     1      22.312   2.510  51.453  1.00  0.00     0.130 A 
HETATM    2  C7  UNL     1      23.139   1.533  51.954  1.00  0.00     0.068 A 
HETATM    3  C8  UNL     1      22.821   0.658  52.963  1.00  0.00     0.044 A 
HETATM    4  C9  UNL     1      23.659  -0.313  53.452  1.00  0.00     0.142 A 
HETATM    5  N3  UNL     1      23.133  -1.049  54.435  1.00  0.00    -0.224 NA
HETATM    6  C16 UNL     1      21.909  -0.919  54.956  1.00  0.00     0.236 A 
HETATM    7  N4  UNL     1      21.092   0.031  54.476  1.00  0.00    -0.240 NA
HETATM    8  C17 UNL     1      21.557   0.807  53.487  1.00  0.00     0.089 A 
HETATM    9  C18 UNL     1      20.698   1.768  53.017  1.00  0.00     0.151 A 
HETATM   10  N5  UNL     1      21.097   2.569  52.039  1.00  0.00    -0.241 NA
ENDROOT
BRANCH   4  11
HETATM   11  N2  UNL     1      24.957  -0.464  52.911  1.00  0.00    -0.340 N 
HETATM   12  H12 UNL     1      25.133  -1.083  52.124  1.00  0.00     0.167 HD
BRANCH  11  13
HETATM   13  C10 UNL     1      26.179   0.147  53.300  1.00  0.00     0.035 A 
HETATM   14  C11 UNL     1      26.339   1.466  53.631  1.00  0.00     0.032 A 
HETATM   15  C12 UNL     1      27.526   2.042  54.004  1.00  0.00     0.046 A 
HETATM   16  C13 UNL     1      28.668   1.278  54.064  1.00  0.00     0.138 A 
HETATM   17  F1  UNL     1      29.796   1.924  54.441  1.00  0.00    -0.204 F 
HETATM   18  C14 UNL     1      28.566  -0.059  53.741  1.00  0.00     0.074 A 
HETATM   19 CL1  UNL     1      30.055  -0.972  53.839  1.00  0.00    -0.081 Cl
HETATM   20  C15 UNL     1      27.346  -0.582  53.373  1.00  0.00     0.056 A 
ENDBRANCH  11  13
ENDBRANCH   4  11
BRANCH   1  21
HETATM   21  N1  UNL     1      22.549   3.434  50.442  1.00  0.00    -0.310 N 
HETATM   22  C5  UNL     1      23.107   4.721  50.440  1.00  0.00     0.246 C 
HETATM   23  O2  UNL     1      23.465   5.136  51.605  1.00  0.00    -0.271 OA
HETATM   24  H10 UNL     1      22.289   3.234  49.460  1.00  0.00     0.170 HD
BRANCH  22  25
HETATM   25  C4  UNL     1      23.442   5.819  49.532  1.00  0.00     0.270 C 
BRANCH  25  26
HETATM   26  O1  UNL     1      24.685   6.315  49.502  1.00  0.00    -0.382 OA
BRANCH  26  27
HETATM   27  C3  UNL     1      25.622   5.974  48.615  1.00  0.00     0.168 C 
BRANCH  27  28
HETATM   28  C2  UNL     1      26.756   5.099  49.054  1.00  0.00     0.022 C 
HETATM   29  C1  UNL     1      26.446   3.693  49.382  1.00  0.00     0.007 C 
ENDBRANCH  27  28
ENDBRANCH  26  27
ENDBRANCH  25  26
ENDBRANCH  22  25
ENDBRANCH   1  21
TORSDOF 7
ENDMDL
MODEL 6
REMARK VINA RESULT:      -7.6      4.093      6.162
REMARK  7 active torsions:
REMARK  status: ('A' for Active; 'I' for Inactive)
REMARK    1  A    between atoms: C2_2  and  C3_3 
REMARK    2  A    between atoms: C3_3  and  O1_4 
REMARK    3  A    between atoms: O1_4  and  C4_5 
REMARK    4  A    between atoms: C4_5  and  C5_6 
REMARK       I    between atoms: C5_6  and  N1_8 
REMARK    5  A    between atoms: N1_8  and  C6_9 
REMARK    6  A    between atoms: C9_12  and  N2_13 
REMARK    7  A    between atoms: N2_13  and  C10_14 
ROOT
HETATM    1  C6  UNL     1      24.405   3.729  49.635  1.00  0.00     0.130 A 
HETATM    2  C7  UNL     1      24.384   2.948  50.767  1.00  0.00     0.068 A 
HETATM    3  C8  UNL     1      23.440   1.997  51.064  1.00  0.00     0.044 A 
HETATM    4  C9  UNL     1      23.434   1.225  52.198  1.00  0.00     0.142 A 
HETATM    5  N3  UNL     1      22.415   0.364  52.272  1.00  0.00    -0.224 NA
HETATM    6  C16 UNL     1      21.445   0.203  51.367  1.00  0.00     0.236 A 
HETATM    7  N4  UNL     1      21.454   0.958  50.258  1.00  0.00    -0.240 NA
HETATM    8  C17 UNL     1      22.449   1.845  50.120  1.00  0.00     0.089 A 
HETATM    9  C18 UNL     1      22.431   2.602  48.976  1.00  0.00     0.151 A 
HETATM   10  N5  UNL     1      23.388   3.498  48.779  1.00  0.00    -0.241 NA
ENDROOT
BRANCH   4  11
HETATM   11  N2  UNL     1      24.453   1.383  53.166  1.00  0.00    -0.340 N 
HETATM   12  H12 UNL     1      24.323   1.982  53.978  1.00  0.00     0.167 HD
BRANCH  11  13
HETATM   13  C10 UNL     1      25.749   0.804  53.223  1.00  0.00     0.035 A 
HETATM   14  C11 UNL     1      26.077  -0.454  52.794  1.00  0.00     0.032 A 
HETATM   15  C12 UNL     1      27.334  -1.000  52.856  1.00  0.00     0.046 A 
HETATM   16  C13 UNL     1      28.373  -0.267  53.381  1.00  0.00     0.138 A 
HETATM   17  F1  UNL     1      29.579  -0.880  53.404  1.00  0.00    -0.204 F 
HETATM   18  C14 UNL     1      28.100   1.008  53.828  1.00  0.00     0.074 A 
HETATM   19 CL1  UNL     1      29.465   1.884  54.483  1.00  0.00    -0.081 Cl
HETATM   20  C15 UNL     1      26.817   1.504  53.741  1.00  0.00     0.056 A 
ENDBRANCH  11  13
ENDBRANCH   4  11
BRANCH   1  21
HETATM   21  N1  UNL     1      25.314   4.709  49.256  1.00  0.00    -0.310 N 
HETATM   22  C5  UNL     1      26.692   4.679  48.993  1.00  0.00     0.246 C 
HETATM   23  O2  UNL     1      27.225   3.516  49.136  1.00  0.00    -0.271 OA
HETATM   24  H10 UNL     1      25.020   5.694  49.127  1.00  0.00     0.170 HD
BRANCH  22  25
HETATM   25  C4  UNL     1      27.797   5.551  48.594  1.00  0.00     0.270 C 
BRANCH  25  26
HETATM   26  O1  UNL     1      29.047   5.074  48.538  1.00  0.00    -0.382 OA
BRANCH  26  27
HETATM   27  C3  UNL     1      30.109   5.761  48.113  1.00  0.00     0.168 C 
BRANCH  27  28
HETATM   28  C2  UNL     1      30.111   7.253  48.244  1.00  0.00     0.022 C 
HETATM   29  C1  UNL     1      31.143   7.862  49.107  1.00  0.00     0.007 C 
ENDBRANCH  27  28
ENDBRANCH  26  27
ENDBRANCH  25  26
ENDBRANCH  22  25
ENDBRANCH   1  21
TORSDOF 7
ENDMDL
MODEL 7
REMARK VINA RESULT:      -7.6      2.383      3.586
REMARK  7 active torsions:
REMARK  status: ('A' for Active; 'I' for Inactive)
REMARK    1  A    between atoms: C2_2  and  C3_3 
REMARK    2  A    between atoms: C3_3  and  O1_4 
REMARK    3  A    between atoms: O1_4  and  C4_5 
REMARK    4  A    between atoms: C4_5  and  C5_6 
REMARK       I    between atoms: C5_6  and  N1_8 
REMARK    5  A    between atoms: N1_8  and  C6_9 
REMARK    6  A    between atoms: C9_12  and  N2_13 
REMARK    7  A    between atoms: N2_13  and  C10_14 
ROOT
HETATM    1  C6  UNL     1      23.962   0.734  53.058  1.00  0.00     0.130 A 
HETATM    2  C7  UNL     1      23.975   2.063  52.703  1.00  0.00     0.068 A 
HETATM    3  C8  UNL     1      22.878   2.803  52.340  1.00  0.00     0.044 A 
HETATM    4  C9  UNL     1      22.908   4.130  51.990  1.00  0.00     0.142 A 
HETATM    5  N3  UNL     1      21.714   4.642  51.674  1.00  0.00    -0.224 NA
HETATM    6  C16 UNL     1      20.547   3.992  51.674  1.00  0.00     0.236 A 
HETATM    7  N4  UNL     1      20.520   2.696  52.018  1.00  0.00    -0.240 NA
HETATM    8  C17 UNL     1      21.684   2.117  52.347  1.00  0.00     0.089 A 
HETATM    9  C18 UNL     1      21.625   0.792  52.694  1.00  0.00     0.151 A 
HETATM   10  N5  UNL     1      22.741   0.161  53.029  1.00  0.00    -0.241 NA
ENDROOT
BRANCH   4  11
HETATM   11  N2  UNL     1      24.135   4.832  51.984  1.00  0.00    -0.340 N 
HETATM   12  H12 UNL     1      24.614   5.066  52.851  1.00  0.00     0.167 HD
BRANCH  11  13
HETATM   13  C10 UNL     1      24.899   5.318  50.890  1.00  0.00     0.035 A 
HETATM   14  C11 UNL     1      25.655   4.551  50.045  1.00  0.00     0.032 A 
HETATM   15  C12 UNL     1      26.388   5.034  48.991  1.00  0.00     0.046 A 
HETATM   16  C13 UNL     1      26.394   6.384  48.725  1.00  0.00     0.138 A 
HETATM   17  F1  UNL     1      27.142   6.777  47.668  1.00  0.00    -0.204 F 
HETATM   18  C14 UNL     1      25.649   7.205  49.544  1.00  0.00     0.074 A 
HETATM   19 CL1  UNL     1      25.701   8.908  49.150  1.00  0.00    -0.081 Cl
HETATM   20  C15 UNL     1      24.932   6.662  50.588  1.00  0.00     0.056 A 
ENDBRANCH  11  13
ENDBRANCH   4  11
BRANCH   1  21
HETATM   21  N1  UNL     1      25.017  -0.088  53.436  1.00  0.00    -0.310 N 
HETATM   22  C5  UNL     1      26.238  -0.410  52.826  1.00  0.00     0.246 C 
HETATM   23  O2  UNL     1      26.420   0.162  51.687  1.00  0.00    -0.271 OA
HETATM   24  H10 UNL     1      24.990  -0.624  54.321  1.00  0.00     0.170 HD
BRANCH  22  25
HETATM   25  C4  UNL     1      27.444  -1.212  53.038  1.00  0.00     0.270 C 
BRANCH  25  26
HETATM   26  O1  UNL     1      28.318  -0.877  53.996  1.00  0.00    -0.382 OA
BRANCH  26  27
HETATM   27  C3  UNL     1      29.325  -0.016  53.844  1.00  0.00     0.168 C 
BRANCH  27  28
HETATM   28  C2  UNL     1      29.199   1.361  54.421  1.00  0.00     0.022 C 
HETATM   29  C1  UNL     1      28.597   2.406  53.570  1.00  0.00     0.007 C 
ENDBRANCH  27  28
ENDBRANCH  26  27
ENDBRANCH  25  26
ENDBRANCH  22  25
ENDBRANCH   1  21
TORSDOF 7
ENDMDL
MODEL 8
REMARK VINA RESULT:      -7.6      5.489      7.778
REMARK  7 active torsions:
REMARK  status: ('A' for Active; 'I' for Inactive)
REMARK    1  A    between atoms: C2_2  and  C3_3 
REMARK    2  A    between atoms: C3_3  and  O1_4 
REMARK    3  A    between atoms: O1_4  and  C4_5 
REMARK    4  A    between atoms: C4_5  and  C5_6 
REMARK       I    between atoms: C5_6  and  N1_8 
REMARK    5  A    between atoms: N1_8  and  C6_9 
REMARK    6  A    between atoms: C9_12  and  N2_13 
REMARK    7  A    between atoms: N2_13  and  C10_14 
ROOT
HETATM    1  C6  UNL     1      27.901   5.499  48.492  1.00  0.00     0.130 A 
HETATM    2  C7  UNL     1      27.263   4.495  49.182  1.00  0.00     0.068 A 
HETATM    3  C8  UNL     1      26.110   4.637  49.913  1.00  0.00     0.044 A 
HETATM    4  C9  UNL     1      25.484   3.625  50.596  1.00  0.00     0.142 A 
HETATM    5  N3  UNL     1      24.373   3.999  51.237  1.00  0.00    -0.224 NA
HETATM    6  C16 UNL     1      23.846   5.226  51.262  1.00  0.00     0.236 A 
HETATM    7  N4  UNL     1      24.459   6.214  50.593  1.00  0.00    -0.240 NA
HETATM    8  C17 UNL     1      25.582   5.909  49.927  1.00  0.00     0.089 A 
HETATM    9  C18 UNL     1      26.185   6.939  49.253  1.00  0.00     0.151 A 
HETATM   10  N5  UNL     1      27.300   6.703  48.574  1.00  0.00    -0.241 NA
ENDROOT
BRANCH   4  11
HETATM   11  N2  UNL     1      26.028   2.319  50.579  1.00  0.00    -0.340 N 
HETATM   12  H12 UNL     1      25.997   1.744  49.741  1.00  0.00     0.167 HD
BRANCH  11  13
HETATM   13  C10 UNL     1      26.673   1.591  51.615  1.00  0.00     0.035 A 
HETATM   14  C11 UNL     1      26.448   0.276  51.921  1.00  0.00     0.032 A 
HETATM   15  C12 UNL     1      27.078  -0.415  52.925  1.00  0.00     0.046 A 
HETATM   16  C13 UNL     1      28.014   0.221  53.708  1.00  0.00     0.138 A 
HETATM   17  F1  UNL     1      28.589  -0.532  54.675  1.00  0.00    -0.204 F 
HETATM   18  C14 UNL     1      28.281   1.547  53.443  1.00  0.00     0.074 A 
HETATM   19 CL1  UNL     1      29.480   2.293  54.476  1.00  0.00    -0.081 Cl
HETATM   20  C15 UNL     1      27.616   2.189  52.421  1.00  0.00     0.056 A 
ENDBRANCH  11  13
ENDBRANCH   4  11
BRANCH   1  21
HETATM   21  N1  UNL     1      29.064   5.445  47.733  1.00  0.00    -0.310 N 
HETATM   22  C5  UNL     1      30.424   5.413  48.076  1.00  0.00     0.246 C 
HETATM   23  O2  UNL     1      30.644   5.446  49.344  1.00  0.00    -0.271 OA
HETATM   24  H10 UNL     1      29.030   5.434  46.698  1.00  0.00     0.170 HD
BRANCH  22  25
HETATM   25  C4  UNL     1      31.753   5.354  47.467  1.00  0.00     0.270 C 
BRANCH  25  26
HETATM   26  O1  UNL     1      32.827   5.073  48.216  1.00  0.00    -0.382 OA
BRANCH  26  27
HETATM   27  C3  UNL     1      34.067   4.919  47.748  1.00  0.00     0.168 C 
BRANCH  27  28
HETATM   28  C2  UNL     1      34.545   3.544  47.394  1.00  0.00     0.022 C 
HETATM   29  C1  UNL     1      35.069   3.332  46.030  1.00  0.00     0.007 C 
ENDBRANCH  27  28
ENDBRANCH  26  27
ENDBRANCH  25  26
ENDBRANCH  22  25
ENDBRANCH   1  21
TORSDOF 7
ENDMDL
MODEL 9
REMARK VINA RESULT:      -7.6      3.128      6.462
REMARK  7 active torsions:
REMARK  status: ('A' for Active; 'I' for Inactive)
REMARK    1  A    between atoms: C2_2  and  C3_3 
REMARK    2  A    between atoms: C3_3  and  O1_4 
REMARK    3  A    between atoms: O1_4  and  C4_5 
REMARK    4  A    between atoms: C4_5  and  C5_6 
REMARK       I    between atoms: C5_6  and  N1_8 
REMARK    5  A    between atoms: N1_8  and  C6_9 
REMARK    6  A    between atoms: C9_12  and  N2_13 
REMARK    7  A    between atoms: N2_13  and  C10_14 
ROOT
HETATM    1  C6  UNL     1      21.661  -0.901  54.334  1.00  0.00     0.130 A 
HETATM    2  C7  UNL     1      22.511  -0.180  53.530  1.00  0.00     0.068 A 
HETATM    3  C8  UNL     1      23.874  -0.101  53.676  1.00  0.00     0.044 A 
HETATM    4  C9  UNL     1      24.710   0.623  52.864  1.00  0.00     0.142 A 
HETATM    5  N3  UNL     1      26.001   0.550  53.199  1.00  0.00    -0.224 NA
HETATM    6  C16 UNL     1      26.519  -0.144  54.216  1.00  0.00     0.236 A 
HETATM    7  N4  UNL     1      25.700  -0.853  55.008  1.00  0.00    -0.240 NA
HETATM    8  C17 UNL     1      24.389  -0.823  54.730  1.00  0.00     0.089 A 
HETATM    9  C18 UNL     1      23.578  -1.557  55.557  1.00  0.00     0.151 A 
HETATM   10  N5  UNL     1      22.271  -1.570  55.335  1.00  0.00    -0.241 NA
ENDROOT
BRANCH   4  11
HETATM   11  N2  UNL     1      24.178   1.364  51.782  1.00  0.00    -0.340 N 
HETATM   12  H12 UNL     1      23.805   0.900  50.957  1.00  0.00     0.167 HD
BRANCH  11  13
HETATM   13  C10 UNL     1      24.053   2.769  51.618  1.00  0.00     0.035 A 
HETATM   14  C11 UNL     1      23.500   3.630  52.528  1.00  0.00     0.032 A 
HETATM   15  C12 UNL     1      23.386   4.986  52.355  1.00  0.00     0.046 A 
HETATM   16  C13 UNL     1      23.847   5.568  51.197  1.00  0.00     0.138 A 
HETATM   17  F1  UNL     1      23.696   6.910  51.107  1.00  0.00    -0.204 F 
HETATM   18  C14 UNL     1      24.414   4.748  50.245  1.00  0.00     0.074 A 
HETATM   19 CL1  UNL     1      24.979   5.554  48.799  1.00  0.00    -0.081 Cl
HETATM   20  C15 UNL     1      24.501   3.392  50.475  1.00  0.00     0.056 A 
ENDBRANCH  11  13
ENDBRANCH   4  11
BRANCH   1  21
HETATM   21  N1  UNL     1      20.280  -1.036  54.260  1.00  0.00    -0.310 N 
HETATM   22  C5  UNL     1      19.348  -0.751  53.251  1.00  0.00     0.246 C 
HETATM   23  O2  UNL     1      19.871  -0.261  52.182  1.00  0.00    -0.271 OA
HETATM   24  H10 UNL     1      19.732  -1.399  55.061  1.00  0.00     0.170 HD
BRANCH  22  25
HETATM   25  C4  UNL     1      17.913  -0.815  52.971  1.00  0.00     0.270 C 
BRANCH  25  26
HETATM   26  O1  UNL     1      17.169  -1.805  53.481  1.00  0.00    -0.382 OA
BRANCH  26  27
HETATM   27  C3  UNL     1      17.549  -3.081  53.566  1.00  0.00     0.168 C 
BRANCH  27  28
HETATM   28  C2  UNL     1      16.580  -4.156  53.182  1.00  0.00     0.022 C 
HETATM   29  C1  UNL     1      16.109  -5.065  54.247  1.00  0.00     0.007 C 
ENDBRANCH  27  28
ENDBRANCH  26  27
ENDBRANCH  25  26
ENDBRANCH  22  25
ENDBRANCH   1  21
TORSDOF 7
ENDMDL
