MODEL 1
REMARK VINA RESULT:      -7.0      0.000      0.000
REMARK  8 active torsions:
REMARK  status: ('A' for Active; 'I' for Inactive)
REMARK    1  A    between atoms: C2_2  and  N1_3 
REMARK    2  A    between atoms: C3_4  and  C4_5 
REMARK    3  A    between atoms: C4_5  and  C5_6 
REMARK    4  A    between atoms: C5_6  and  C6_7 
REMARK    5  A    between atoms: C5_6  and  N3_10 
REMARK    6  A    between atoms: N3_10  and  C8_11 
REMARK    7  A    between atoms: C11_14  and  S1_15 
REMARK    8  A    between atoms: S1_15  and  C12_16 
ROOT
HETATM    1  C6  UNL     1      26.443  -1.273  52.719  1.00  0.00     0.180 C 
HETATM    2  C7  UNL     1      27.809  -1.601  53.065  1.00  0.00     0.065 C 
HETATM    3  N2  UNL     1      28.904  -1.869  53.326  1.00  0.00    -0.197 NA
ENDROOT
BRANCH   1   4
HETATM    4  C5  UNL     1      25.792  -0.476  53.815  1.00  0.00     0.024 C 
BRANCH   4   5
HETATM    5  C4  UNL     1      24.831  -0.822  54.604  1.00  0.00     0.045 C 
BRANCH   5   6
HETATM    6  C3  UNL     1      23.924  -1.310  55.600  1.00  0.00     0.118 C 
HETATM    7  N1  UNL     1      22.680  -1.553  55.458  1.00  0.00    -0.274 NA
BRANCH   7   8
HETATM    8  C2  UNL     1      21.890  -1.410  54.311  1.00  0.00     0.106 C 
HETATM    9  C1  UNL     1      21.307  -0.329  54.710  1.00  0.00     0.032 C 
ENDBRANCH   7   8
ENDBRANCH   5   6
ENDBRANCH   4   5
BRANCH   4  10
HETATM   10  N3  UNL     1      26.247   0.875  54.076  1.00  0.00    -0.359 N 
HETATM   11  H8  UNL     1      26.707   1.073  54.997  1.00  0.00     0.166 HD
BRANCH  10  12
HETATM   12  C8  UNL     1      25.977   1.737  52.952  1.00  0.00     0.034 A 
HETATM   13  C9  UNL     1      26.930   1.932  51.941  1.00  0.00     0.031 A 
HETATM   14  C10 UNL     1      26.586   2.758  50.902  1.00  0.00     0.023 A 
HETATM   15  C11 UNL     1      25.352   3.374  50.849  1.00  0.00     0.030 A 
HETATM   16  C16 UNL     1      24.406   3.177  51.854  1.00  0.00     0.053 A 
HETATM   17 CL1  UNL     1      22.807   3.946  51.798  1.00  0.00    -0.083 Cl
HETATM   18  C17 UNL     1      24.728   2.355  52.903  1.00  0.00     0.054 A 
BRANCH  15  19
HETATM   19  S1  UNL     1      24.829   4.430  49.517  1.00  0.00    -0.051 SA
BRANCH  19  20
HETATM   20  C12 UNL     1      25.533   6.069  49.616  1.00  0.00     0.172 A 
HETATM   21  N4  UNL     1      26.657   6.103  48.842  1.00  0.00    -0.235 NA
HETATM   22  C13 UNL     1      27.152   7.350  48.946  1.00  0.00     0.136 A 
HETATM   23  C14 UNL     1      26.333   8.074  49.778  1.00  0.00     0.112 A 
HETATM   24  N5  UNL     1      25.324   7.258  50.190  1.00  0.00    -0.339 N 
HETATM   25  C15 UNL     1      24.178   7.405  51.052  1.00  0.00     0.158 C 
ENDBRANCH  19  20
ENDBRANCH  15  19
ENDBRANCH  10  12
ENDBRANCH   4  10
ENDBRANCH   1   4
TORSDOF 8
ENDMDL
MODEL 2
REMARK VINA RESULT:      -6.8      1.492      1.961
REMARK  8 active torsions:
REMARK  status: ('A' for Active; 'I' for Inactive)
REMARK    1  A    between atoms: C2_2  and  N1_3 
REMARK    2  A    between atoms: C3_4  and  C4_5 
REMARK    3  A    between atoms: C4_5  and  C5_6 
REMARK    4  A    between atoms: C5_6  and  C6_7 
REMARK    5  A    between atoms: C5_6  and  N3_10 
REMARK    6  A    between atoms: N3_10  and  C8_11 
REMARK    7  A    between atoms: C11_14  and  S1_15 
REMARK    8  A    between atoms: S1_15  and  C12_16 
ROOT
HETATM    1  C6  UNL     1      26.580  -1.241  52.665  1.00  0.00     0.180 C 
HETATM    2  C7  UNL     1      27.939  -1.454  53.112  1.00  0.00     0.065 C 
HETATM    3  N2  UNL     1      29.031  -1.631  53.453  1.00  0.00    -0.197 NA
ENDROOT
BRANCH   1   4
HETATM    4  C5  UNL     1      25.800  -0.458  53.683  1.00  0.00     0.024 C 
BRANCH   4   5
HETATM    5  C4  UNL     1      24.894  -0.873  54.502  1.00  0.00     0.045 C 
BRANCH   5   6
HETATM    6  C3  UNL     1      24.031  -1.274  55.573  1.00  0.00     0.118 C 
HETATM    7  N1  UNL     1      22.778  -1.507  55.510  1.00  0.00    -0.274 NA
BRANCH   7   8
HETATM    8  C2  UNL     1      21.934  -1.433  54.395  1.00  0.00     0.106 C 
HETATM    9  C1  UNL     1      21.366  -0.331  54.757  1.00  0.00     0.032 C 
ENDBRANCH   7   8
ENDBRANCH   5   6
ENDBRANCH   4   5
BRANCH   4  10
HETATM   10  N3  UNL     1      26.040   0.966  53.819  1.00  0.00    -0.359 N 
HETATM   11  H8  UNL     1      26.617   1.295  54.630  1.00  0.00     0.166 HD
BRANCH  10  12
HETATM   12  C8  UNL     1      25.416   1.699  52.746  1.00  0.00     0.034 A 
HETATM   13  C9  UNL     1      24.024   1.869  52.697  1.00  0.00     0.031 A 
HETATM   14  C10 UNL     1      23.515   2.591  51.648  1.00  0.00     0.023 A 
HETATM   15  C11 UNL     1      24.335   3.130  50.678  1.00  0.00     0.030 A 
HETATM   16  C16 UNL     1      25.717   2.959  50.729  1.00  0.00     0.053 A 
HETATM   17 CL1  UNL     1      26.792   3.656  49.501  1.00  0.00    -0.083 Cl
HETATM   18  C17 UNL     1      26.250   2.241  51.769  1.00  0.00     0.054 A 
BRANCH  15  19
HETATM   19  S1  UNL     1      23.744   4.101  49.309  1.00  0.00    -0.051 SA
BRANCH  19  20
HETATM   20  C12 UNL     1      23.541   5.827  49.722  1.00  0.00     0.172 A 
HETATM   21  N4  UNL     1      24.508   6.541  49.075  1.00  0.00    -0.235 NA
HETATM   22  C13 UNL     1      24.318   7.830  49.413  1.00  0.00     0.136 A 
HETATM   23  C14 UNL     1      23.241   7.902  50.261  1.00  0.00     0.112 A 
HETATM   24  N5  UNL     1      22.765   6.639  50.446  1.00  0.00    -0.339 N 
HETATM   25  C15 UNL     1      21.688   6.054  51.205  1.00  0.00     0.158 C 
ENDBRANCH  19  20
ENDBRANCH  15  19
ENDBRANCH  10  12
ENDBRANCH   4  10
ENDBRANCH   1   4
TORSDOF 8
ENDMDL
MODEL 3
REMARK VINA RESULT:      -6.8      1.856      3.726
REMARK  8 active torsions:
REMARK  status: ('A' for Active; 'I' for Inactive)
REMARK    1  A    between atoms: C2_2  and  N1_3 
REMARK    2  A    between atoms: C3_4  and  C4_5 
REMARK    3  A    between atoms: C4_5  and  C5_6 
REMARK    4  A    between atoms: C5_6  and  C6_7 
REMARK    5  A    between atoms: C5_6  and  N3_10 
REMARK    6  A    between atoms: N3_10  and  C8_11 
REMARK    7  A    between atoms: C11_14  and  S1_15 
REMARK    8  A    between atoms: S1_15  and  C12_16 
ROOT
HETATM    1  C6  UNL     1      23.206  -0.400  53.082  1.00  0.00     0.180 C 
HETATM    2  C7  UNL     1      22.721  -0.933  54.337  1.00  0.00     0.065 C 
HETATM    3  N2  UNL     1      22.319  -1.366  55.333  1.00  0.00    -0.197 NA
ENDROOT
BRANCH   1   4
HETATM    4  C5  UNL     1      24.620   0.092  53.223  1.00  0.00     0.024 C 
BRANCH   4   5
HETATM    5  C4  UNL     1      25.436  -0.066  54.209  1.00  0.00     0.045 C 
BRANCH   5   6
HETATM    6  C3  UNL     1      26.506  -0.215  55.151  1.00  0.00     0.118 C 
HETATM    7  N1  UNL     1      27.757  -0.142  54.916  1.00  0.00    -0.274 NA
BRANCH   7   8
HETATM    8  C2  UNL     1      28.401   0.098  53.696  1.00  0.00     0.106 C 
HETATM    9  C1  UNL     1      29.262  -0.855  53.833  1.00  0.00     0.032 C 
ENDBRANCH   7   8
ENDBRANCH   5   6
ENDBRANCH   4   5
BRANCH   4  10
HETATM   10  N3  UNL     1      25.213   0.861  52.146  1.00  0.00    -0.359 N 
HETATM   11  H8  UNL     1      26.010   0.434  51.615  1.00  0.00     0.166 HD
BRANCH  10  12
HETATM   12  C8  UNL     1      24.551   2.132  51.994  1.00  0.00     0.034 A 
HETATM   13  C9  UNL     1      24.413   3.013  53.077  1.00  0.00     0.031 A 
HETATM   14  C10 UNL     1      23.781   4.207  52.841  1.00  0.00     0.023 A 
HETATM   15  C11 UNL     1      23.298   4.532  51.590  1.00  0.00     0.030 A 
HETATM   16  C16 UNL     1      23.437   3.655  50.516  1.00  0.00     0.053 A 
HETATM   17 CL1  UNL     1      22.838   4.059  48.894  1.00  0.00    -0.083 Cl
HETATM   18  C17 UNL     1      24.066   2.455  50.727  1.00  0.00     0.054 A 
BRANCH  15  19
HETATM   19  S1  UNL     1      22.497   6.074  51.207  1.00  0.00    -0.051 SA
BRANCH  19  20
HETATM   20  C12 UNL     1      23.604   7.264  50.466  1.00  0.00     0.172 A 
HETATM   21  N4  UNL     1      24.883   6.933  50.806  1.00  0.00    -0.235 NA
HETATM   22  C13 UNL     1      25.679   7.852  50.229  1.00  0.00     0.136 A 
HETATM   23  C14 UNL     1      24.890   8.738  49.539  1.00  0.00     0.112 A 
HETATM   24  N5  UNL     1      23.591   8.357  49.697  1.00  0.00    -0.339 N 
HETATM   25  C15 UNL     1      22.317   8.858  49.245  1.00  0.00     0.158 C 
ENDBRANCH  19  20
ENDBRANCH  15  19
ENDBRANCH  10  12
ENDBRANCH   4  10
ENDBRANCH   1   4
TORSDOF 8
ENDMDL
MODEL 4
REMARK VINA RESULT:      -6.7      2.539      3.258
REMARK  8 active torsions:
REMARK  status: ('A' for Active; 'I' for Inactive)
REMARK    1  A    between atoms: C2_2  and  N1_3 
REMARK    2  A    between atoms: C3_4  and  C4_5 
REMARK    3  A    between atoms: C4_5  and  C5_6 
REMARK    4  A    between atoms: C5_6  and  C6_7 
REMARK    5  A    between atoms: C5_6  and  N3_10 
REMARK    6  A    between atoms: N3_10  and  C8_11 
REMARK    7  A    between atoms: C11_14  and  S1_15 
REMARK    8  A    between atoms: S1_15  and  C12_16 
ROOT
HETATM    1  C6  UNL     1      27.176  -0.981  52.840  1.00  0.00     0.180 C 
HETATM    2  C7  UNL     1      28.559  -0.877  53.253  1.00  0.00     0.065 C 
HETATM    3  N2  UNL     1      29.670  -0.801  53.569  1.00  0.00    -0.197 NA
ENDROOT
BRANCH   1   4
HETATM    4  C5  UNL     1      26.277  -0.245  53.794  1.00  0.00     0.024 C 
BRANCH   4   5
HETATM    5  C4  UNL     1      25.254  -0.687  54.444  1.00  0.00     0.045 C 
BRANCH   5   6
HETATM    6  C3  UNL     1      24.246  -1.155  55.349  1.00  0.00     0.118 C 
HETATM    7  N1  UNL     1      22.990  -1.224  55.137  1.00  0.00    -0.274 NA
BRANCH   7   8
HETATM    8  C2  UNL     1      22.281  -0.866  53.983  1.00  0.00     0.106 C 
HETATM    9  C1  UNL     1      21.378  -0.190  54.612  1.00  0.00     0.032 C 
ENDBRANCH   7   8
ENDBRANCH   5   6
ENDBRANCH   4   5
BRANCH   4  10
HETATM   10  N3  UNL     1      26.528   1.157  54.068  1.00  0.00    -0.359 N 
HETATM   11  H8  UNL     1      27.148   1.399  54.878  1.00  0.00     0.166 HD
BRANCH  10  12
HETATM   12  C8  UNL     1      25.852   1.998  53.113  1.00  0.00     0.034 A 
HETATM   13  C9  UNL     1      24.599   2.561  53.401  1.00  0.00     0.031 A 
HETATM   14  C10 UNL     1      24.032   3.359  52.441  1.00  0.00     0.023 A 
HETATM   15  C11 UNL     1      24.665   3.602  51.239  1.00  0.00     0.030 A 
HETATM   16  C16 UNL     1      25.909   3.041  50.955  1.00  0.00     0.053 A 
HETATM   17 CL1  UNL     1      26.748   3.352  49.422  1.00  0.00    -0.083 Cl
HETATM   18  C17 UNL     1      26.497   2.240  51.900  1.00  0.00     0.054 A 
BRANCH  15  19
HETATM   19  S1  UNL     1      24.001   4.651  49.964  1.00  0.00    -0.051 SA
BRANCH  19  20
HETATM   20  C12 UNL     1      23.001   3.758  48.784  1.00  0.00     0.172 A 
HETATM   21  N4  UNL     1      22.901   2.462  49.197  1.00  0.00    -0.235 NA
HETATM   22  C13 UNL     1      22.143   1.829  48.283  1.00  0.00     0.136 A 
HETATM   23  C14 UNL     1      21.781   2.736  47.317  1.00  0.00     0.112 A 
HETATM   24  N5  UNL     1      22.327   3.941  47.644  1.00  0.00    -0.339 N 
HETATM   25  C15 UNL     1      22.327   5.256  47.056  1.00  0.00     0.158 C 
ENDBRANCH  19  20
ENDBRANCH  15  19
ENDBRANCH  10  12
ENDBRANCH   4  10
ENDBRANCH   1   4
TORSDOF 8
ENDMDL
MODEL 5
REMARK VINA RESULT:      -6.7      1.130      1.771
REMARK  8 active torsions:
REMARK  status: ('A' for Active; 'I' for Inactive)
REMARK    1  A    between atoms: C2_2  and  N1_3 
REMARK    2  A    between atoms: C3_4  and  C4_5 
REMARK    3  A    between atoms: C4_5  and  C5_6 
REMARK    4  A    between atoms: C5_6  and  C6_7 
REMARK    5  A    between atoms: C5_6  and  N3_10 
REMARK    6  A    between atoms: N3_10  and  C8_11 
REMARK    7  A    between atoms: C11_14  and  S1_15 
REMARK    8  A    between atoms: S1_15  and  C12_16 
ROOT
HETATM    1  C6  UNL     1      27.006  -1.001  52.948  1.00  0.00     0.180 C 
HETATM    2  C7  UNL     1      28.394  -0.901  53.346  1.00  0.00     0.065 C 
HETATM    3  N2  UNL     1      29.508  -0.829  53.649  1.00  0.00    -0.197 NA
ENDROOT
BRANCH   1   4
HETATM    4  C5  UNL     1      26.116  -0.298  53.935  1.00  0.00     0.024 C 
BRANCH   4   5
HETATM    5  C4  UNL     1      25.173  -0.789  54.664  1.00  0.00     0.045 C 
BRANCH   5   6
HETATM    6  C3  UNL     1      24.211  -1.209  55.641  1.00  0.00     0.118 C 
HETATM    7  N1  UNL     1      22.965  -1.410  55.460  1.00  0.00    -0.274 NA
BRANCH   7   8
HETATM    8  C2  UNL     1      22.224  -1.275  54.279  1.00  0.00     0.106 C 
HETATM    9  C1  UNL     1      21.379  -0.433  54.772  1.00  0.00     0.032 C 
ENDBRANCH   7   8
ENDBRANCH   5   6
ENDBRANCH   4   5
BRANCH   4  10
HETATM   10  N3  UNL     1      26.277   1.128  54.145  1.00  0.00    -0.359 N 
HETATM   11  H8  UNL     1      26.763   1.447  55.018  1.00  0.00     0.166 HD
BRANCH  10  12
HETATM   12  C8  UNL     1      25.719   1.877  53.048  1.00  0.00     0.034 A 
HETATM   13  C9  UNL     1      26.508   2.252  51.949  1.00  0.00     0.031 A 
HETATM   14  C10 UNL     1      25.893   2.953  50.943  1.00  0.00     0.023 A 
HETATM   15  C11 UNL     1      24.553   3.278  51.005  1.00  0.00     0.030 A 
HETATM   16  C16 UNL     1      23.773   2.905  52.097  1.00  0.00     0.053 A 
HETATM   17 CL1  UNL     1      22.044   3.299  52.191  1.00  0.00    -0.083 Cl
HETATM   18  C17 UNL     1      24.365   2.202  53.116  1.00  0.00     0.054 A 
BRANCH  15  19
HETATM   19  S1  UNL     1      23.688   4.157  49.723  1.00  0.00    -0.051 SA
BRANCH  19  20
HETATM   20  C12 UNL     1      23.539   5.904  50.060  1.00  0.00     0.172 A 
HETATM   21  N4  UNL     1      22.216   6.202  50.215  1.00  0.00    -0.235 NA
HETATM   22  C13 UNL     1      22.151   7.523  50.466  1.00  0.00     0.136 A 
HETATM   23  C14 UNL     1      23.428   8.028  50.466  1.00  0.00     0.112 A 
HETATM   24  N5  UNL     1      24.287   7.002  50.209  1.00  0.00    -0.339 N 
HETATM   25  C15 UNL     1      25.716   6.875  50.073  1.00  0.00     0.158 C 
ENDBRANCH  19  20
ENDBRANCH  15  19
ENDBRANCH  10  12
ENDBRANCH   4  10
ENDBRANCH   1   4
TORSDOF 8
ENDMDL
MODEL 6
REMARK VINA RESULT:      -6.6      1.212      3.560
REMARK  8 active torsions:
REMARK  status: ('A' for Active; 'I' for Inactive)
REMARK    1  A    between atoms: C2_2  and  N1_3 
REMARK    2  A    between atoms: C3_4  and  C4_5 
REMARK    3  A    between atoms: C4_5  and  C5_6 
REMARK    4  A    between atoms: C5_6  and  C6_7 
REMARK    5  A    between atoms: C5_6  and  N3_10 
REMARK    6  A    between atoms: N3_10  and  C8_11 
REMARK    7  A    between atoms: C11_14  and  S1_15 
REMARK    8  A    between atoms: S1_15  and  C12_16 
ROOT
HETATM    1  C6  UNL     1      23.190  -0.087  53.125  1.00  0.00     0.180 C 
HETATM    2  C7  UNL     1      22.691  -0.842  54.255  1.00  0.00     0.065 C 
HETATM    3  N2  UNL     1      22.276  -1.446  55.150  1.00  0.00    -0.197 NA
ENDROOT
BRANCH   1   4
HETATM    4  C5  UNL     1      24.674   0.126  53.241  1.00  0.00     0.024 C 
BRANCH   4   5
HETATM    5  C4  UNL     1      25.630  -0.714  53.032  1.00  0.00     0.045 C 
BRANCH   5   6
HETATM    6  C3  UNL     1      26.827  -1.468  52.802  1.00  0.00     0.118 C 
HETATM    7  N1  UNL     1      28.030  -1.069  52.946  1.00  0.00    -0.274 NA
BRANCH   7   8
HETATM    8  C2  UNL     1      28.487   0.188  53.361  1.00  0.00     0.106 C 
HETATM    9  C1  UNL     1      29.057  -0.248  54.434  1.00  0.00     0.032 C 
ENDBRANCH   7   8
ENDBRANCH   5   6
ENDBRANCH   4   5
BRANCH   4  10
HETATM   10  N3  UNL     1      25.174   1.426  53.642  1.00  0.00    -0.359 N 
HETATM   11  H8  UNL     1      25.449   1.563  54.645  1.00  0.00     0.166 HD
BRANCH  10  12
HETATM   12  C8  UNL     1      25.214   2.332  52.522  1.00  0.00     0.034 A 
HETATM   13  C9  UNL     1      26.207   2.225  51.536  1.00  0.00     0.031 A 
HETATM   14  C10 UNL     1      26.162   3.121  50.498  1.00  0.00     0.023 A 
HETATM   15  C11 UNL     1      25.182   4.088  50.422  1.00  0.00     0.030 A 
HETATM   16  C16 UNL     1      24.196   4.192  51.402  1.00  0.00     0.053 A 
HETATM   17 CL1  UNL     1      22.916   5.419  51.316  1.00  0.00    -0.083 Cl
HETATM   18  C17 UNL     1      24.219   3.307  52.450  1.00  0.00     0.054 A 
BRANCH  15  19
HETATM   19  S1  UNL     1      25.047   5.259  49.089  1.00  0.00    -0.051 SA
BRANCH  19  20
HETATM   20  C12 UNL     1      26.072   6.702  49.329  1.00  0.00     0.172 A 
HETATM   21  N4  UNL     1      25.457   7.521  50.232  1.00  0.00    -0.235 NA
HETATM   22  C13 UNL     1      26.260   8.590  50.381  1.00  0.00     0.136 A 
HETATM   23  C14 UNL     1      27.359   8.425  49.575  1.00  0.00     0.112 A 
HETATM   24  N5  UNL     1      27.227   7.237  48.921  1.00  0.00    -0.339 N 
HETATM   25  C15 UNL     1      28.012   6.508  47.957  1.00  0.00     0.158 C 
ENDBRANCH  19  20
ENDBRANCH  15  19
ENDBRANCH  10  12
ENDBRANCH   4  10
ENDBRANCH   1   4
TORSDOF 8
ENDMDL
MODEL 7
REMARK VINA RESULT:      -6.6      2.845      8.004
REMARK  8 active torsions:
REMARK  status: ('A' for Active; 'I' for Inactive)
REMARK    1  A    between atoms: C2_2  and  N1_3 
REMARK    2  A    between atoms: C3_4  and  C4_5 
REMARK    3  A    between atoms: C4_5  and  C5_6 
REMARK    4  A    between atoms: C5_6  and  C6_7 
REMARK    5  A    between atoms: C5_6  and  N3_10 
REMARK    6  A    between atoms: N3_10  and  C8_11 
REMARK    7  A    between atoms: C11_14  and  S1_15 
REMARK    8  A    between atoms: S1_15  and  C12_16 
ROOT
HETATM    1  C6  UNL     1      23.574   6.253  50.472  1.00  0.00     0.180 C 
HETATM    2  C7  UNL     1      22.220   5.883  50.121  1.00  0.00     0.065 C 
HETATM    3  N2  UNL     1      21.131   5.598  49.852  1.00  0.00    -0.197 NA
ENDROOT
BRANCH   1   4
HETATM    4  C5  UNL     1      24.557   5.666  49.498  1.00  0.00     0.024 C 
BRANCH   4   5
HETATM    5  C4  UNL     1      25.605   6.211  48.979  1.00  0.00     0.045 C 
BRANCH   5   6
HETATM    6  C3  UNL     1      26.720   6.994  48.533  1.00  0.00     0.118 C 
HETATM    7  N1  UNL     1      27.901   6.583  48.283  1.00  0.00    -0.274 NA
BRANCH   7   8
HETATM    8  C2  UNL     1      28.407   5.280  48.376  1.00  0.00     0.106 C 
HETATM    9  C1  UNL     1      29.636   5.623  48.177  1.00  0.00     0.032 C 
ENDBRANCH   7   8
ENDBRANCH   5   6
ENDBRANCH   4   5
BRANCH   4  10
HETATM   10  N3  UNL     1      24.363   4.309  49.025  1.00  0.00    -0.359 N 
HETATM   11  H8  UNL     1      23.948   4.172  48.072  1.00  0.00     0.166 HD
BRANCH  10  12
HETATM   12  C8  UNL     1      24.815   3.353  50.004  1.00  0.00     0.034 A 
HETATM   13  C9  UNL     1      26.183   3.150  50.245  1.00  0.00     0.031 A 
HETATM   14  C10 UNL     1      26.524   2.230  51.203  1.00  0.00     0.023 A 
HETATM   15  C11 UNL     1      25.564   1.530  51.905  1.00  0.00     0.030 A 
HETATM   16  C16 UNL     1      24.206   1.733  51.664  1.00  0.00     0.053 A 
HETATM   17 CL1  UNL     1      22.954   0.855  52.565  1.00  0.00    -0.083 Cl
HETATM   18  C17 UNL     1      23.840   2.649  50.711  1.00  0.00     0.054 A 
BRANCH  15  19
HETATM   19  S1  UNL     1      25.936   0.347  53.180  1.00  0.00    -0.051 SA
BRANCH  19  20
HETATM   20  C12 UNL     1      27.689   0.067  53.374  1.00  0.00     0.172 A 
HETATM   21  N4  UNL     1      27.929  -1.271  53.246  1.00  0.00    -0.235 NA
HETATM   22  C13 UNL     1      29.256  -1.435  53.399  1.00  0.00     0.136 A 
HETATM   23  C14 UNL     1      29.823  -0.204  53.618  1.00  0.00     0.112 A 
HETATM   24  N5  UNL     1      28.829   0.728  53.600  1.00  0.00    -0.339 N 
HETATM   25  C15 UNL     1      28.766   2.158  53.768  1.00  0.00     0.158 C 
ENDBRANCH  19  20
ENDBRANCH  15  19
ENDBRANCH  10  12
ENDBRANCH   4  10
ENDBRANCH   1   4
TORSDOF 8
ENDMDL
MODEL 8
REMARK VINA RESULT:      -6.5      3.177      7.694
REMARK  8 active torsions:
REMARK  status: ('A' for Active; 'I' for Inactive)
REMARK    1  A    between atoms: C2_2  and  N1_3 
REMARK    2  A    between atoms: C3_4  and  C4_5 
REMARK    3  A    between atoms: C4_5  and  C5_6 
REMARK    4  A    between atoms: C5_6  and  C6_7 
REMARK    5  A    between atoms: C5_6  and  N3_10 
REMARK    6  A    between atoms: N3_10  and  C8_11 
REMARK    7  A    between atoms: C11_14  and  S1_15 
REMARK    8  A    between atoms: S1_15  and  C12_16 
ROOT
HETATM    1  C6  UNL     1      22.901   2.564  48.388  1.00  0.00     0.180 C 
HETATM    2  C7  UNL     1      21.484   2.517  48.095  1.00  0.00     0.065 C 
HETATM    3  N2  UNL     1      20.354   2.466  47.850  1.00  0.00    -0.197 NA
ENDROOT
BRANCH   1   4
HETATM    4  C5  UNL     1      23.187   3.554  49.482  1.00  0.00     0.024 C 
BRANCH   4   5
HETATM    5  C4  UNL     1      23.993   4.562  49.470  1.00  0.00     0.045 C 
BRANCH   5   6
HETATM    6  C3  UNL     1      24.937   5.616  49.247  1.00  0.00     0.118 C 
HETATM    7  N1  UNL     1      26.200   5.504  49.102  1.00  0.00    -0.274 NA
BRANCH   7   8
HETATM    8  C2  UNL     1      26.978   4.340  49.122  1.00  0.00     0.106 C 
HETATM    9  C1  UNL     1      27.994   4.873  48.530  1.00  0.00     0.032 C 
ENDBRANCH   7   8
ENDBRANCH   5   6
ENDBRANCH   4   5
BRANCH   4  10
HETATM   10  N3  UNL     1      22.507   3.420  50.755  1.00  0.00    -0.359 N 
HETATM   11  H8  UNL     1      21.583   3.901  50.876  1.00  0.00     0.166 HD
BRANCH  10  12
HETATM   12  C8  UNL     1      23.266   2.595  51.661  1.00  0.00     0.034 A 
HETATM   13  C9  UNL     1      24.430   3.077  52.280  1.00  0.00     0.031 A 
HETATM   14  C10 UNL     1      25.083   2.229  53.137  1.00  0.00     0.023 A 
HETATM   15  C11 UNL     1      24.618   0.954  53.385  1.00  0.00     0.030 A 
HETATM   16  C16 UNL     1      23.462   0.479  52.770  1.00  0.00     0.053 A 
HETATM   17 CL1  UNL     1      22.837  -1.153  53.085  1.00  0.00    -0.083 Cl
HETATM   18  C17 UNL     1      22.790   1.308  51.908  1.00  0.00     0.054 A 
BRANCH  15  19
HETATM   19  S1  UNL     1      25.399  -0.184  54.508  1.00  0.00    -0.051 SA
BRANCH  19  20
HETATM   20  C12 UNL     1      27.061  -0.612  54.016  1.00  0.00     0.172 A 
HETATM   21  N4  UNL     1      27.935   0.035  54.841  1.00  0.00    -0.235 NA
HETATM   22  C13 UNL     1      29.169  -0.315  54.435  1.00  0.00     0.136 A 
HETATM   23  C14 UNL     1      29.049  -1.172  53.369  1.00  0.00     0.112 A 
HETATM   24  N5  UNL     1      27.722  -1.348  53.117  1.00  0.00    -0.339 N 
HETATM   25  C15 UNL     1      26.956  -2.100  52.156  1.00  0.00     0.158 C 
ENDBRANCH  19  20
ENDBRANCH  15  19
ENDBRANCH  10  12
ENDBRANCH   4  10
ENDBRANCH   1   4
TORSDOF 8
ENDMDL
MODEL 9
REMARK VINA RESULT:      -6.5      3.282      6.568
REMARK  8 active torsions:
REMARK  status: ('A' for Active; 'I' for Inactive)
REMARK    1  A    between atoms: C2_2  and  N1_3 
REMARK    2  A    between atoms: C3_4  and  C4_5 
REMARK    3  A    between atoms: C4_5  and  C5_6 
REMARK    4  A    between atoms: C5_6  and  C6_7 
REMARK    5  A    between atoms: C5_6  and  N3_10 
REMARK    6  A    between atoms: N3_10  and  C8_11 
REMARK    7  A    between atoms: C11_14  and  S1_15 
REMARK    8  A    between atoms: S1_15  and  C12_16 
ROOT
HETATM    1  C6  UNL     1      25.443   0.482  52.560  1.00  0.00     0.180 C 
HETATM    2  C7  UNL     1      25.523  -0.140  53.863  1.00  0.00     0.065 C 
HETATM    3  N2  UNL     1      25.579  -0.652  54.900  1.00  0.00    -0.197 NA
ENDROOT
BRANCH   1   4
HETATM    4  C5  UNL     1      26.250   1.750  52.524  1.00  0.00     0.024 C 
BRANCH   4   5
HETATM    5  C4  UNL     1      27.353   2.024  53.134  1.00  0.00     0.045 C 
BRANCH   5   6
HETATM    6  C3  UNL     1      28.660   2.148  53.707  1.00  0.00     0.118 C 
HETATM    7  N1  UNL     1      29.370   1.219  54.218  1.00  0.00    -0.274 NA
BRANCH   7   8
HETATM    8  C2  UNL     1      29.061  -0.141  54.349  1.00  0.00     0.106 C 
HETATM    9  C1  UNL     1      30.012  -0.547  53.576  1.00  0.00     0.032 C 
ENDBRANCH   7   8
ENDBRANCH   5   6
ENDBRANCH   4   5
BRANCH   4  10
HETATM   10  N3  UNL     1      25.785   2.864  51.720  1.00  0.00    -0.359 N 
HETATM   11  H8  UNL     1      26.499   3.529  51.336  1.00  0.00     0.166 HD
BRANCH  10  12
HETATM   12  C8  UNL     1      24.350   2.839  51.583  1.00  0.00     0.034 A 
HETATM   13  C9  UNL     1      23.518   3.425  52.550  1.00  0.00     0.031 A 
HETATM   14  C10 UNL     1      22.165   3.366  52.334  1.00  0.00     0.023 A 
HETATM   15  C11 UNL     1      21.639   2.757  51.213  1.00  0.00     0.030 A 
HETATM   16  C16 UNL     1      22.468   2.175  50.255  1.00  0.00     0.053 A 
HETATM   17 CL1  UNL     1      21.814   1.400  48.799  1.00  0.00    -0.083 Cl
HETATM   18  C17 UNL     1      23.825   2.222  50.448  1.00  0.00     0.054 A 
BRANCH  15  19
HETATM   19  S1  UNL     1      19.898   2.673  50.857  1.00  0.00    -0.051 SA
BRANCH  19  20
HETATM   20  C12 UNL     1      19.128   1.201  51.513  1.00  0.00     0.172 A 
HETATM   21  N4  UNL     1      19.933   0.692  52.490  1.00  0.00    -0.235 NA
HETATM   22  C13 UNL     1      19.316  -0.411  52.953  1.00  0.00     0.136 A 
HETATM   23  C14 UNL     1      18.140  -0.573  52.264  1.00  0.00     0.112 A 
HETATM   24  N5  UNL     1      18.036   0.444  51.363  1.00  0.00    -0.339 N 
HETATM   25  C15 UNL     1      17.070   0.831  50.365  1.00  0.00     0.158 C 
ENDBRANCH  19  20
ENDBRANCH  15  19
ENDBRANCH  10  12
ENDBRANCH   4  10
ENDBRANCH   1   4
TORSDOF 8
ENDMDL
