MODEL 1
REMARK VINA RESULT:      -8.7      0.000      0.000
REMARK  4 active torsions:
REMARK  status: ('A' for Active; 'I' for Inactive)
REMARK    1  A    between atoms: O1_2  and  C2_3 
REMARK    2  A    between atoms: C8_12  and  N3_13 
REMARK    3  A    between atoms: N3_13  and  C9_14 
REMARK    4  A    between atoms: C9_14  and  C10_15 
ROOT
HETATM    1  C2  UNL     1      20.647  -0.313  53.504  1.00  0.00     0.173 C 
HETATM    2  C3  UNL     1      21.160  -1.192  54.425  1.00  0.00     0.073 C 
HETATM    3  C4  UNL     1      22.543  -1.433  54.980  1.00  0.00     0.007 C 
HETATM    4  C5  UNL     1      23.883  -1.101  55.008  1.00  0.00     0.141 C 
HETATM    5  O2  UNL     1      23.739  -0.080  54.051  1.00  0.00    -0.303 OA
HETATM    6  C6  UNL     1      24.850   0.349  53.364  1.00  0.00     0.201 A 
HETATM    7  N1  UNL     1      25.955  -0.399  53.427  1.00  0.00    -0.215 NA
HETATM    8  C7  UNL     1      27.123  -0.152  52.833  1.00  0.00     0.238 A 
HETATM    9  N2  UNL     1      27.179   0.958  52.107  1.00  0.00    -0.222 NA
HETATM   10  C8  UNL     1      26.114   1.785  51.978  1.00  0.00     0.156 A 
HETATM   11  C16 UNL     1      24.890   1.517  52.605  1.00  0.00     0.129 A 
HETATM   12  N4  UNL     1      23.986   2.566  52.271  1.00  0.00    -0.373 N 
HETATM   13  C17 UNL     1      22.708   2.407  51.533  1.00  0.00     0.214 C 
HETATM   14  C18 UNL     1      21.943   1.434  52.233  1.00  0.00    -0.084 C 
HETATM   15  C19 UNL     1      21.357   0.660  52.793  1.00  0.00    -0.061 C 
HETATM   16  H16 UNL     1      24.309   3.515  52.595  1.00  0.00     0.160 HD
ENDROOT
BRANCH  10  17
HETATM   17  N3  UNL     1      26.401   2.901  51.168  1.00  0.00    -0.369 N 
HETATM   18  H8  UNL     1      26.671   3.791  51.656  1.00  0.00     0.161 HD
BRANCH  17  19
HETATM   19  C9  UNL     1      26.385   3.035  49.727  1.00  0.00     0.160 C 
BRANCH  19  20
HETATM   20  C10 UNL     1      26.724   4.375  49.234  1.00  0.00    -0.041 A 
HETATM   21  C11 UNL     1      27.859   4.854  48.618  1.00  0.00     0.009 A 
HETATM   22  C12 UNL     1      27.979   6.174  48.241  1.00  0.00     0.001 A 
HETATM   23  C13 UNL     1      26.987   7.110  48.445  1.00  0.00     0.000 A 
HETATM   24  C14 UNL     1      25.838   6.657  49.060  1.00  0.00     0.001 A 
HETATM   25  C15 UNL     1      25.724   5.335  49.436  1.00  0.00     0.009 A 
ENDBRANCH  19  20
ENDBRANCH  17  19
ENDBRANCH  10  17
BRANCH   1  26
HETATM   26  O1  UNL     1      19.310  -0.572  53.413  1.00  0.00    -0.367 OA
HETATM   27  C1  UNL     1      18.520  -0.468  52.259  1.00  0.00     0.204 C 
ENDBRANCH   1  26
TORSDOF 4
ENDMDL
MODEL 2
REMARK VINA RESULT:      -8.4      3.586      8.879
REMARK  4 active torsions:
REMARK  status: ('A' for Active; 'I' for Inactive)
REMARK    1  A    between atoms: O1_2  and  C2_3 
REMARK    2  A    between atoms: C8_12  and  N3_13 
REMARK    3  A    between atoms: N3_13  and  C9_14 
REMARK    4  A    between atoms: C9_14  and  C10_15 
ROOT
HETATM    1  C2  UNL     1      26.203   0.025  54.524  1.00  0.00     0.173 C 
HETATM    2  C3  UNL     1      26.494   1.183  53.848  1.00  0.00     0.073 C 
HETATM    3  C4  UNL     1      25.656   2.193  53.100  1.00  0.00     0.007 C 
HETATM    4  C5  UNL     1      24.415   2.612  52.663  1.00  0.00     0.141 C 
HETATM    5  O2  UNL     1      23.745   1.520  53.246  1.00  0.00    -0.303 OA
HETATM    6  C6  UNL     1      22.496   1.182  52.783  1.00  0.00     0.201 A 
HETATM    7  N1  UNL     1      22.088   1.716  51.628  1.00  0.00    -0.215 NA
HETATM    8  C7  UNL     1      20.919   1.511  51.020  1.00  0.00     0.238 A 
HETATM    9  N2  UNL     1      20.082   0.688  51.640  1.00  0.00    -0.222 NA
HETATM   10  C8  UNL     1      20.399   0.094  52.815  1.00  0.00     0.156 A 
HETATM   11  C16 UNL     1      21.631   0.315  53.446  1.00  0.00     0.129 A 
HETATM   12  N4  UNL     1      21.652  -0.451  54.648  1.00  0.00    -0.373 N 
HETATM   13  C17 UNL     1      22.612  -1.536  54.967  1.00  0.00     0.214 C 
HETATM   14  C18 UNL     1      23.918  -0.992  54.821  1.00  0.00    -0.084 C 
HETATM   15  C19 UNL     1      24.940  -0.548  54.695  1.00  0.00    -0.061 C 
HETATM   16  H16 UNL     1      20.892  -0.183  55.328  1.00  0.00     0.160 HD
ENDROOT
BRANCH  10  17
HETATM   17  N3  UNL     1      19.363  -0.732  53.291  1.00  0.00    -0.369 N 
HETATM   18  H8  UNL     1      19.625  -1.484  53.975  1.00  0.00     0.161 HD
BRANCH  17  19
HETATM   19  C9  UNL     1      17.947  -0.721  52.988  1.00  0.00     0.160 C 
BRANCH  19  20
HETATM   20  C10 UNL     1      17.292  -2.030  53.081  1.00  0.00    -0.041 A 
HETATM   21  C11 UNL     1      17.683  -3.198  53.700  1.00  0.00     0.009 A 
HETATM   22  C12 UNL     1      16.910  -4.338  53.655  1.00  0.00     0.001 A 
HETATM   23  C13 UNL     1      15.699  -4.402  52.998  1.00  0.00     0.000 A 
HETATM   24  C14 UNL     1      15.283  -3.247  52.371  1.00  0.00     0.001 A 
HETATM   25  C15 UNL     1      16.061  -2.109  52.418  1.00  0.00     0.009 A 
ENDBRANCH  19  20
ENDBRANCH  17  19
ENDBRANCH  10  17
BRANCH   1  26
HETATM   26  O1  UNL     1      27.388  -0.463  54.998  1.00  0.00    -0.367 OA
HETATM   27  C1  UNL     1      28.671  -0.057  54.604  1.00  0.00     0.204 C 
ENDBRANCH   1  26
TORSDOF 4
ENDMDL
MODEL 3
REMARK VINA RESULT:      -8.2      4.097      9.834
REMARK  4 active torsions:
REMARK  status: ('A' for Active; 'I' for Inactive)
REMARK    1  A    between atoms: O1_2  and  C2_3 
REMARK    2  A    between atoms: C8_12  and  N3_13 
REMARK    3  A    between atoms: N3_13  and  C9_14 
REMARK    4  A    between atoms: C9_14  and  C10_15 
ROOT
HETATM    1  C2  UNL     1      24.443   0.393  52.953  1.00  0.00     0.173 C 
HETATM    2  C3  UNL     1      24.320   1.403  52.032  1.00  0.00     0.073 C 
HETATM    3  C4  UNL     1      23.139   2.080  51.377  1.00  0.00     0.007 C 
HETATM    4  C5  UNL     1      21.771   2.195  51.229  1.00  0.00     0.141 C 
HETATM    5  O2  UNL     1      21.498   1.170  52.153  1.00  0.00    -0.303 OA
HETATM    6  C6  UNL     1      20.273   0.548  52.114  1.00  0.00     0.201 A 
HETATM    7  N1  UNL     1      19.503   0.744  51.040  1.00  0.00    -0.215 NA
HETATM    8  C7  UNL     1      18.292   0.231  50.819  1.00  0.00     0.238 A 
HETATM    9  N2  UNL     1      17.813  -0.553  51.776  1.00  0.00    -0.222 NA
HETATM   10  C8  UNL     1      18.514  -0.817  52.906  1.00  0.00     0.156 A 
HETATM   11  C16 UNL     1      19.787  -0.274  53.129  1.00  0.00     0.129 A 
HETATM   12  N4  UNL     1      20.248  -0.741  54.393  1.00  0.00    -0.373 N 
HETATM   13  C17 UNL     1      21.459  -1.568  54.622  1.00  0.00     0.214 C 
HETATM   14  C18 UNL     1      22.553  -0.874  54.033  1.00  0.00    -0.084 C 
HETATM   15  C19 UNL     1      23.401  -0.316  53.559  1.00  0.00    -0.061 C 
HETATM   16  H16 UNL     1      19.632  -0.450  55.196  1.00  0.00     0.160 HD
ENDROOT
BRANCH  10  17
HETATM   17  N3  UNL     1      17.813  -1.666  53.782  1.00  0.00    -0.369 N 
HETATM   18  H8  UNL     1      17.161  -1.214  54.470  1.00  0.00     0.161 HD
BRANCH  17  19
HETATM   19  C9  UNL     1      17.838  -3.109  53.901  1.00  0.00     0.160 C 
BRANCH  19  20
HETATM   20  C10 UNL     1      16.612  -3.781  53.454  1.00  0.00    -0.041 A 
HETATM   21  C11 UNL     1      15.671  -3.418  52.516  1.00  0.00     0.009 A 
HETATM   22  C12 UNL     1      14.568  -4.202  52.253  1.00  0.00     0.001 A 
HETATM   23  C13 UNL     1      14.320  -5.396  52.898  1.00  0.00     0.000 A 
HETATM   24  C14 UNL     1      15.249  -5.783  53.842  1.00  0.00     0.001 A 
HETATM   25  C15 UNL     1      16.350  -4.995  54.101  1.00  0.00     0.009 A 
ENDBRANCH  19  20
ENDBRANCH  17  19
ENDBRANCH  10  17
BRANCH   1  26
HETATM   26  O1  UNL     1      25.780   0.212  53.163  1.00  0.00    -0.367 OA
HETATM   27  C1  UNL     1      26.752  -0.019  52.179  1.00  0.00     0.204 C 
ENDBRANCH   1  26
TORSDOF 4
ENDMDL
MODEL 4
REMARK VINA RESULT:      -8.2      2.170      4.293
REMARK  4 active torsions:
REMARK  status: ('A' for Active; 'I' for Inactive)
REMARK    1  A    between atoms: O1_2  and  C2_3 
REMARK    2  A    between atoms: C8_12  and  N3_13 
REMARK    3  A    between atoms: N3_13  and  C9_14 
REMARK    4  A    between atoms: C9_14  and  C10_15 
ROOT
HETATM    1  C2  UNL     1      25.591  -0.589  53.087  1.00  0.00     0.173 C 
HETATM    2  C3  UNL     1      24.281  -0.859  53.395  1.00  0.00     0.073 C 
HETATM    3  C4  UNL     1      22.982  -0.125  53.160  1.00  0.00     0.007 C 
HETATM    4  C5  UNL     1      22.316   0.971  52.649  1.00  0.00     0.141 C 
HETATM    5  O2  UNL     1      23.494   1.575  52.174  1.00  0.00    -0.303 OA
HETATM    6  C6  UNL     1      23.493   2.926  51.919  1.00  0.00     0.201 A 
HETATM    7  N1  UNL     1      22.476   3.653  52.390  1.00  0.00    -0.215 NA
HETATM    8  C7  UNL     1      22.299   4.967  52.248  1.00  0.00     0.238 A 
HETATM    9  N2  UNL     1      23.239   5.607  51.564  1.00  0.00    -0.222 NA
HETATM   10  C8  UNL     1      24.313   4.963  51.046  1.00  0.00     0.156 A 
HETATM   11  C16 UNL     1      24.491   3.581  51.201  1.00  0.00     0.129 A 
HETATM   12  N4  UNL     1      25.705   3.219  50.548  1.00  0.00    -0.373 N 
HETATM   13  C17 UNL     1      26.894   2.617  51.201  1.00  0.00     0.214 C 
HETATM   14  C18 UNL     1      26.448   1.451  51.883  1.00  0.00    -0.084 C 
HETATM   15  C19 UNL     1      26.077   0.539  52.419  1.00  0.00    -0.061 C 
HETATM   16  H16 UNL     1      25.702   3.427  49.515  1.00  0.00     0.160 HD
ENDROOT
BRANCH  10  17
HETATM   17  N3  UNL     1      25.177   5.835  50.358  1.00  0.00    -0.369 N 
HETATM   18  H8  UNL     1      25.770   6.479  50.939  1.00  0.00     0.161 HD
BRANCH  17  19
HETATM   19  C9  UNL     1      25.395   6.004  48.937  1.00  0.00     0.160 C 
BRANCH  19  20
HETATM   20  C10 UNL     1      26.805   6.076  48.539  1.00  0.00    -0.041 A 
HETATM   21  C11 UNL     1      27.802   5.125  48.558  1.00  0.00     0.009 A 
HETATM   22  C12 UNL     1      29.086   5.409  48.145  1.00  0.00     0.001 A 
HETATM   23  C13 UNL     1      29.472   6.651  47.684  1.00  0.00     0.000 A 
HETATM   24  C14 UNL     1      28.493   7.622  47.653  1.00  0.00     0.001 A 
HETATM   25  C15 UNL     1      27.210   7.332  48.069  1.00  0.00     0.009 A 
ENDBRANCH  19  20
ENDBRANCH  17  19
ENDBRANCH  10  17
BRANCH   1  26
HETATM   26  O1  UNL     1      26.331  -1.635  53.560  1.00  0.00    -0.367 OA
HETATM   27  C1  UNL     1      27.530  -2.117  53.017  1.00  0.00     0.204 C 
ENDBRANCH   1  26
TORSDOF 4
ENDMDL
MODEL 5
REMARK VINA RESULT:      -8.2      3.234      7.841
REMARK  4 active torsions:
REMARK  status: ('A' for Active; 'I' for Inactive)
REMARK    1  A    between atoms: O1_2  and  C2_3 
REMARK    2  A    between atoms: C8_12  and  N3_13 
REMARK    3  A    between atoms: N3_13  and  C9_14 
REMARK    4  A    between atoms: C9_14  and  C10_15 
ROOT
HETATM    1  C2  UNL     1      26.436   6.971  48.410  1.00  0.00     0.173 C 
HETATM    2  C3  UNL     1      25.646   7.972  48.917  1.00  0.00     0.073 C 
HETATM    3  C4  UNL     1      24.622   8.033  50.025  1.00  0.00     0.007 C 
HETATM    4  C5  UNL     1      23.925   7.393  51.030  1.00  0.00     0.141 C 
HETATM    5  O2  UNL     1      24.550   6.155  50.795  1.00  0.00    -0.303 OA
HETATM    6  C6  UNL     1      23.944   5.007  51.247  1.00  0.00     0.201 A 
HETATM    7  N1  UNL     1      22.669   5.082  51.638  1.00  0.00    -0.215 NA
HETATM    8  C7  UNL     1      21.914   4.086  52.102  1.00  0.00     0.238 A 
HETATM    9  N2  UNL     1      22.505   2.900  52.179  1.00  0.00    -0.222 NA
HETATM   10  C8  UNL     1      23.795   2.716  51.807  1.00  0.00     0.156 A 
HETATM   11  C16 UNL     1      24.580   3.770  51.319  1.00  0.00     0.129 A 
HETATM   12  N4  UNL     1      25.872   3.251  51.017  1.00  0.00    -0.373 N 
HETATM   13  C17 UNL     1      26.511   3.240  49.678  1.00  0.00     0.214 C 
HETATM   14  C18 UNL     1      26.503   4.581  49.203  1.00  0.00    -0.084 C 
HETATM   15  C19 UNL     1      26.481   5.642  48.842  1.00  0.00    -0.061 C 
HETATM   16  H16 UNL     1      26.366   2.846  51.856  1.00  0.00     0.160 HD
ENDROOT
BRANCH  10  17
HETATM   17  N3  UNL     1      24.214   1.383  51.977  1.00  0.00    -0.369 N 
HETATM   18  H8  UNL     1      24.351   0.809  51.108  1.00  0.00     0.161 HD
BRANCH  17  19
HETATM   19  C9  UNL     1      24.496   0.642  53.188  1.00  0.00     0.160 C 
BRANCH  19  20
HETATM   20  C10 UNL     1      25.873   0.144  53.292  1.00  0.00    -0.041 A 
HETATM   21  C11 UNL     1      26.496  -0.931  52.696  1.00  0.00     0.009 A 
HETATM   22  C12 UNL     1      27.816  -1.235  52.945  1.00  0.00     0.001 A 
HETATM   23  C13 UNL     1      28.612  -0.499  53.799  1.00  0.00     0.000 A 
HETATM   24  C14 UNL     1      28.013   0.584  54.409  1.00  0.00     0.001 A 
HETATM   25  C15 UNL     1      26.691   0.883  54.156  1.00  0.00     0.009 A 
ENDBRANCH  19  20
ENDBRANCH  17  19
ENDBRANCH  10  17
BRANCH   1  26
HETATM   26  O1  UNL     1      27.170   7.521  47.399  1.00  0.00    -0.367 OA
HETATM   27  C1  UNL     1      28.559   7.424  47.231  1.00  0.00     0.204 C 
ENDBRANCH   1  26
TORSDOF 4
ENDMDL
MODEL 6
REMARK VINA RESULT:      -8.0      3.721      9.066
REMARK  4 active torsions:
REMARK  status: ('A' for Active; 'I' for Inactive)
REMARK    1  A    between atoms: O1_2  and  C2_3 
REMARK    2  A    between atoms: C8_12  and  N3_13 
REMARK    3  A    between atoms: N3_13  and  C9_14 
REMARK    4  A    between atoms: C9_14  and  C10_15 
ROOT
HETATM    1  C2  UNL     1      29.075   7.184  48.044  1.00  0.00     0.173 C 
HETATM    2  C3  UNL     1      28.917   8.494  48.423  1.00  0.00     0.073 C 
HETATM    3  C4  UNL     1      27.925   9.211  49.307  1.00  0.00     0.007 C 
HETATM    4  C5  UNL     1      26.815   9.161  50.127  1.00  0.00     0.141 C 
HETATM    5  O2  UNL     1      26.656   7.772  49.972  1.00  0.00    -0.303 OA
HETATM    6  C6  UNL     1      25.433   7.207  50.247  1.00  0.00     0.201 A 
HETATM    7  N1  UNL     1      24.382   8.020  50.380  1.00  0.00    -0.215 NA
HETATM    8  C7  UNL     1      23.124   7.666  50.645  1.00  0.00     0.238 A 
HETATM    9  N2  UNL     1      22.909   6.364  50.791  1.00  0.00    -0.222 NA
HETATM   10  C8  UNL     1      23.907   5.455  50.675  1.00  0.00     0.156 A 
HETATM   11  C16 UNL     1      25.226   5.838  50.395  1.00  0.00     0.129 A 
HETATM   12  N4  UNL     1      26.022   4.658  50.336  1.00  0.00    -0.373 N 
HETATM   13  C17 UNL     1      26.777   4.180  49.151  1.00  0.00     0.214 C 
HETATM   14  C18 UNL     1      27.621   5.248  48.738  1.00  0.00    -0.084 C 
HETATM   15  C19 UNL     1      28.274   6.102  48.423  1.00  0.00    -0.061 C 
HETATM   16  H16 UNL     1      26.032   4.114  51.239  1.00  0.00     0.160 HD
ENDROOT
BRANCH  10  17
HETATM   17  N3  UNL     1      23.453   4.137  50.871  1.00  0.00    -0.369 N 
HETATM   18  H8  UNL     1      23.687   3.433  50.128  1.00  0.00     0.161 HD
BRANCH  17  19
HETATM   19  C9  UNL     1      22.691   3.566  51.962  1.00  0.00     0.160 C 
BRANCH  19  20
HETATM   20  C10 UNL     1      23.194   2.277  52.450  1.00  0.00    -0.041 A 
HETATM   21  C11 UNL     1      22.568   1.060  52.607  1.00  0.00     0.009 A 
HETATM   22  C12 UNL     1      23.232  -0.040  53.103  1.00  0.00     0.001 A 
HETATM   23  C13 UNL     1      24.560  -0.014  53.478  1.00  0.00     0.000 A 
HETATM   24  C14 UNL     1      25.211   1.193  53.330  1.00  0.00     0.001 A 
HETATM   25  C15 UNL     1      24.541   2.291  52.834  1.00  0.00     0.009 A 
ENDBRANCH  19  20
ENDBRANCH  17  19
ENDBRANCH  10  17
BRANCH   1  26
HETATM   26  O1  UNL     1      30.164   7.141  47.221  1.00  0.00    -0.367 OA
HETATM   27  C1  UNL     1      31.297   6.331  47.386  1.00  0.00     0.204 C 
ENDBRANCH   1  26
TORSDOF 4
ENDMDL
MODEL 7
REMARK VINA RESULT:      -7.9      3.108      8.613
REMARK  4 active torsions:
REMARK  status: ('A' for Active; 'I' for Inactive)
REMARK    1  A    between atoms: O1_2  and  C2_3 
REMARK    2  A    between atoms: C8_12  and  N3_13 
REMARK    3  A    between atoms: N3_13  and  C9_14 
REMARK    4  A    between atoms: C9_14  and  C10_15 
ROOT
HETATM    1  C2  UNL     1      27.736   5.609  48.555  1.00  0.00     0.173 C 
HETATM    2  C3  UNL     1      27.443   6.950  48.533  1.00  0.00     0.073 C 
HETATM    3  C4  UNL     1      26.385   7.798  49.198  1.00  0.00     0.007 C 
HETATM    4  C5  UNL     1      25.290   7.886  50.034  1.00  0.00     0.141 C 
HETATM    5  O2  UNL     1      25.276   6.505  50.305  1.00  0.00    -0.303 OA
HETATM    6  C6  UNL     1      24.120   5.931  50.778  1.00  0.00     0.201 A 
HETATM    7  N1  UNL     1      22.990   6.639  50.700  1.00  0.00    -0.215 NA
HETATM    8  C7  UNL     1      21.778   6.258  51.102  1.00  0.00     0.238 A 
HETATM    9  N2  UNL     1      21.701   5.045  51.636  1.00  0.00    -0.222 NA
HETATM   10  C8  UNL     1      22.788   4.246  51.761  1.00  0.00     0.156 A 
HETATM   11  C16 UNL     1      24.059   4.655  51.334  1.00  0.00     0.129 A 
HETATM   12  N4  UNL     1      24.974   3.596  51.600  1.00  0.00    -0.373 N 
HETATM   13  C17 UNL     1      25.770   2.863  50.585  1.00  0.00     0.214 C 
HETATM   14  C18 UNL     1      26.496   3.836  49.844  1.00  0.00    -0.084 C 
HETATM   15  C19 UNL     1      27.055   4.617  49.267  1.00  0.00    -0.061 C 
HETATM   16  H16 UNL     1      25.044   3.352  52.623  1.00  0.00     0.160 HD
ENDROOT
BRANCH  10  17
HETATM   17  N3  UNL     1      22.475   3.009  52.356  1.00  0.00    -0.369 N 
HETATM   18  H8  UNL     1      22.561   2.944  53.401  1.00  0.00     0.161 HD
BRANCH  17  19
HETATM   19  C9  UNL     1      22.040   1.767  51.752  1.00  0.00     0.160 C 
BRANCH  19  20
HETATM   20  C10 UNL     1      21.872   0.655  52.695  1.00  0.00    -0.041 A 
HETATM   21  C11 UNL     1      20.742  -0.000  53.132  1.00  0.00     0.009 A 
HETATM   22  C12 UNL     1      20.806  -1.028  54.047  1.00  0.00     0.001 A 
HETATM   23  C13 UNL     1      21.990  -1.481  54.591  1.00  0.00     0.000 A 
HETATM   24  C14 UNL     1      23.138  -0.843  54.170  1.00  0.00     0.001 A 
HETATM   25  C15 UNL     1      23.068   0.187  53.255  1.00  0.00     0.009 A 
ENDBRANCH  19  20
ENDBRANCH  17  19
ENDBRANCH  10  17
BRANCH   1  26
HETATM   26  O1  UNL     1      28.821   5.429  47.745  1.00  0.00    -0.367 OA
HETATM   27  C1  UNL     1      30.165   5.597  48.107  1.00  0.00     0.204 C 
ENDBRANCH   1  26
TORSDOF 4
ENDMDL
MODEL 8
REMARK VINA RESULT:      -7.8      1.482      2.027
REMARK  4 active torsions:
REMARK  status: ('A' for Active; 'I' for Inactive)
REMARK    1  A    between atoms: O1_2  and  C2_3 
REMARK    2  A    between atoms: C8_12  and  N3_13 
REMARK    3  A    between atoms: N3_13  and  C9_14 
REMARK    4  A    between atoms: C9_14  and  C10_15 
ROOT
HETATM    1  C2  UNL     1      20.272   0.748  51.492  1.00  0.00     0.173 C 
HETATM    2  C3  UNL     1      20.591  -0.129  52.499  1.00  0.00     0.073 C 
HETATM    3  C4  UNL     1      21.832  -0.358  53.329  1.00  0.00     0.007 C 
HETATM    4  C5  UNL     1      23.133  -0.013  53.635  1.00  0.00     0.141 C 
HETATM    5  O2  UNL     1      23.180   1.010  52.670  1.00  0.00    -0.303 OA
HETATM    6  C6  UNL     1      24.405   1.452  52.228  1.00  0.00     0.201 A 
HETATM    7  N1  UNL     1      25.481   0.716  52.518  1.00  0.00    -0.215 NA
HETATM    8  C7  UNL     1      26.744   0.976  52.180  1.00  0.00     0.238 A 
HETATM    9  N2  UNL     1      26.938   2.088  51.483  1.00  0.00    -0.222 NA
HETATM   10  C8  UNL     1      25.915   2.905  51.136  1.00  0.00     0.156 A 
HETATM   11  C16 UNL     1      24.589   2.623  51.495  1.00  0.00     0.129 A 
HETATM   12  N4  UNL     1      23.763   3.664  50.982  1.00  0.00    -0.373 N 
HETATM   13  C17 UNL     1      22.668   3.495  49.995  1.00  0.00     0.214 C 
HETATM   14  C18 UNL     1      21.785   2.511  50.520  1.00  0.00    -0.084 C 
HETATM   15  C19 UNL     1      21.103   1.730  50.945  1.00  0.00    -0.061 C 
HETATM   16  H16 UNL     1      24.003   4.615  51.367  1.00  0.00     0.160 HD
ENDROOT
BRANCH  10  17
HETATM   17  N3  UNL     1      26.351   4.026  50.405  1.00  0.00    -0.369 N 
HETATM   18  H8  UNL     1      26.115   4.973  50.792  1.00  0.00     0.161 HD
BRANCH  17  19
HETATM   19  C9  UNL     1      27.096   4.098  49.165  1.00  0.00     0.160 C 
BRANCH  19  20
HETATM   20  C10 UNL     1      27.270   5.455  48.635  1.00  0.00    -0.041 A 
HETATM   21  C11 UNL     1      26.386   6.506  48.525  1.00  0.00     0.009 A 
HETATM   22  C12 UNL     1      26.757   7.713  47.975  1.00  0.00     0.001 A 
HETATM   23  C13 UNL     1      28.026   7.966  47.497  1.00  0.00     0.000 A 
HETATM   24  C14 UNL     1      28.932   6.931  47.595  1.00  0.00     0.001 A 
HETATM   25  C15 UNL     1      28.555   5.724  48.146  1.00  0.00     0.009 A 
ENDBRANCH  19  20
ENDBRANCH  17  19
ENDBRANCH  10  17
BRANCH   1  26
HETATM   26  O1  UNL     1      18.985   0.476  51.125  1.00  0.00    -0.367 OA
HETATM   27  C1  UNL     1      18.301   1.018  50.028  1.00  0.00     0.204 C 
ENDBRANCH   1  26
TORSDOF 4
ENDMDL
MODEL 9
REMARK VINA RESULT:      -7.7      3.041      8.179
REMARK  4 active torsions:
REMARK  status: ('A' for Active; 'I' for Inactive)
REMARK    1  A    between atoms: O1_2  and  C2_3 
REMARK    2  A    between atoms: C8_12  and  N3_13 
REMARK    3  A    between atoms: N3_13  and  C9_14 
REMARK    4  A    between atoms: C9_14  and  C10_15 
ROOT
HETATM    1  C2  UNL     1      25.306   7.445  48.032  1.00  0.00     0.173 C 
HETATM    2  C3  UNL     1      26.657   7.249  47.893  1.00  0.00     0.073 C 
HETATM    3  C4  UNL     1      27.582   6.097  48.207  1.00  0.00     0.007 C 
HETATM    4  C5  UNL     1      27.757   4.816  48.692  1.00  0.00     0.141 C 
HETATM    5  O2  UNL     1      26.390   4.645  48.979  1.00  0.00    -0.303 OA
HETATM    6  C6  UNL     1      26.016   3.677  49.881  1.00  0.00     0.201 A 
HETATM    7  N1  UNL     1      26.964   3.134  50.649  1.00  0.00    -0.215 NA
HETATM    8  C7  UNL     1      26.801   2.190  51.576  1.00  0.00     0.238 A 
HETATM    9  N2  UNL     1      25.558   1.752  51.741  1.00  0.00    -0.222 NA
HETATM   10  C8  UNL     1      24.524   2.237  51.014  1.00  0.00     0.156 A 
HETATM   11  C16 UNL     1      24.706   3.231  50.042  1.00  0.00     0.129 A 
HETATM   12  N4  UNL     1      23.436   3.520  49.466  1.00  0.00    -0.373 N 
HETATM   13  C17 UNL     1      22.746   4.834  49.502  1.00  0.00     0.214 C 
HETATM   14  C18 UNL     1      23.650   5.792  48.967  1.00  0.00    -0.084 C 
HETATM   15  C19 UNL     1      24.378   6.535  48.549  1.00  0.00    -0.061 C 
HETATM   16  H16 UNL     1      22.992   2.689  48.993  1.00  0.00     0.160 HD
ENDROOT
BRANCH  10  17
HETATM   17  N3  UNL     1      23.301   1.627  51.352  1.00  0.00    -0.369 N 
HETATM   18  H8  UNL     1      22.939   0.887  50.701  1.00  0.00     0.161 HD
BRANCH  17  19
HETATM   19  C9  UNL     1      22.428   1.854  52.484  1.00  0.00     0.160 C 
BRANCH  19  20
HETATM   20  C10 UNL     1      21.993   0.635  53.175  1.00  0.00    -0.041 A 
HETATM   21  C11 UNL     1      22.683  -0.249  53.974  1.00  0.00     0.009 A 
HETATM   22  C12 UNL     1      22.077  -1.358  54.523  1.00  0.00     0.001 A 
HETATM   23  C13 UNL     1      20.748  -1.669  54.322  1.00  0.00     0.000 A 
HETATM   24  C14 UNL     1      20.033  -0.799  53.526  1.00  0.00     0.001 A 
HETATM   25  C15 UNL     1      20.645   0.309  52.978  1.00  0.00     0.009 A 
ENDBRANCH  19  20
ENDBRANCH  17  19
ENDBRANCH  10  17
BRANCH   1  26
HETATM   26  O1  UNL     1      25.040   8.702  47.569  1.00  0.00    -0.367 OA
HETATM   27  C1  UNL     1      25.985   9.685  47.244  1.00  0.00     0.204 C 
ENDBRANCH   1  26
TORSDOF 4
ENDMDL
