MODEL 1
REMARK VINA RESULT:      -6.4      0.000      0.000
REMARK  2 active torsions:
REMARK  status: ('A' for Active; 'I' for Inactive)
REMARK    1  A    between atoms: C1_2  and  C2_3 
REMARK    2  A    between atoms: C2_3  and  C3_4 
ROOT
HETATM    1  C3  UNL     1      26.022   2.861  50.461  1.00  0.00    -0.008 C 
HETATM    2  C4  UNL     1      25.076   2.819  51.408  1.00  0.00    -0.002 C 
HETATM    3  C5  UNL     1      24.850   1.689  52.436  1.00  0.00     0.213 C 
HETATM    4  O1  UNL     1      23.586   1.209  52.226  1.00  0.00    -0.385 OA
HETATM    5  C6  UNL     1      23.182   0.163  52.987  1.00  0.00     0.183 C 
HETATM    6  C7  UNL     1      21.702  -0.128  52.512  1.00  0.00     0.125 C 
HETATM    7  N1  UNL     1      21.057   1.107  52.801  1.00  0.00    -0.271 NA
HETATM    8  S1  UNL     1      19.575   1.570  51.959  1.00  0.00    -0.110 SA
HETATM    9  C8  UNL     1      19.720   1.193  50.343  1.00  0.00     0.054 C 
HETATM   10  C9  UNL     1      20.727   1.928  49.861  1.00  0.00     0.088 A 
HETATM   11  N2  UNL     1      21.223   1.293  48.787  1.00  0.00    -0.240 NA
HETATM   12  C10 UNL     1      22.292   1.733  48.101  1.00  0.00     0.234 A 
HETATM   13  N3  UNL     1      22.885   2.883  48.542  1.00  0.00    -0.245 NA
HETATM   14  C11 UNL     1      22.380   3.496  49.607  1.00  0.00     0.057 A 
HETATM   15  C12 UNL     1      21.285   3.100  50.346  1.00  0.00     0.017 A 
HETATM   16  C13 UNL     1      20.787   3.783  51.367  1.00  0.00    -0.000 C 
HETATM   17  C14 UNL     1      19.428   3.461  51.947  1.00  0.00     0.112 C 
HETATM   18  C15 UNL     1      23.098   4.655  50.226  1.00  0.00     0.139 C 
HETATM   19  S2  UNL     1      23.790   4.042  51.819  1.00  0.00    -0.126 SA
HETATM   20  H12 UNL     1      20.834   1.145  53.821  1.00  0.00     0.134 HD
ENDROOT
BRANCH   1  21
HETATM   21  C2  UNL     1      26.698   3.520  49.333  1.00  0.00     0.059 C 
BRANCH  21  22
HETATM   22  C1  UNL     1      26.498   5.022  49.323  1.00  0.00     0.226 C 
HETATM   23  F1  UNL     1      27.114   5.566  48.227  1.00  0.00    -0.255 F 
ENDBRANCH  21  22
ENDBRANCH   1  21
TORSDOF 2
ENDMDL
MODEL 2
REMARK VINA RESULT:      -6.3     10.847     12.862
REMARK  2 active torsions:
REMARK  status: ('A' for Active; 'I' for Inactive)
REMARK    1  A    between atoms: C1_2  and  C2_3 
REMARK    2  A    between atoms: C2_3  and  C3_4 
ROOT
HETATM    1  C3  UNL     1      33.175   3.104  46.717  1.00  0.00    -0.008 C 
HETATM    2  C4  UNL     1      32.633   4.241  46.260  1.00  0.00    -0.002 C 
HETATM    3  C5  UNL     1      32.867   4.882  44.875  1.00  0.00     0.213 C 
HETATM    4  O1  UNL     1      33.403   6.121  45.097  1.00  0.00    -0.385 OA
HETATM    5  C6  UNL     1      33.745   6.857  44.012  1.00  0.00     0.183 C 
HETATM    6  C7  UNL     1      34.307   8.211  44.608  1.00  0.00     0.125 C 
HETATM    7  N1  UNL     1      33.181   8.697  45.331  1.00  0.00    -0.271 NA
HETATM    8  S1  UNL     1      33.389   9.844  46.659  1.00  0.00    -0.110 SA
HETATM    9  C8  UNL     1      34.697   9.384  47.582  1.00  0.00     0.054 C 
HETATM   10  C9  UNL     1      34.406   8.187  48.100  1.00  0.00     0.088 A 
HETATM   11  N2  UNL     1      35.564   7.561  48.366  1.00  0.00    -0.240 NA
HETATM   12  C10 UNL     1      35.629   6.304  48.836  1.00  0.00     0.234 A 
HETATM   13  N3  UNL     1      34.445   5.654  49.043  1.00  0.00    -0.245 NA
HETATM   14  C11 UNL     1      33.309   6.290  48.773  1.00  0.00     0.057 A 
HETATM   15  C12 UNL     1      33.178   7.577  48.297  1.00  0.00     0.017 A 
HETATM   16  C13 UNL     1      32.016   8.186  48.100  1.00  0.00    -0.000 C 
HETATM   17  C14 UNL     1      31.934   9.676  47.862  1.00  0.00     0.112 C 
HETATM   18  C15 UNL     1      32.002   5.560  48.817  1.00  0.00     0.139 C 
HETATM   19  S2  UNL     1      31.457   5.373  47.068  1.00  0.00    -0.126 SA
HETATM   20  H12 UNL     1      32.515   9.145  44.664  1.00  0.00     0.134 HD
ENDROOT
BRANCH   1  21
HETATM   21  C2  UNL     1      33.358   2.084  47.760  1.00  0.00     0.059 C 
BRANCH  21  22
HETATM   22  C1  UNL     1      32.539   0.834  47.512  1.00  0.00     0.226 C 
HETATM   23  F1  UNL     1      32.707  -0.047  48.547  1.00  0.00    -0.255 F 
ENDBRANCH  21  22
ENDBRANCH   1  21
TORSDOF 2
ENDMDL
MODEL 3
REMARK VINA RESULT:      -6.1      8.313     10.795
REMARK  2 active torsions:
REMARK  status: ('A' for Active; 'I' for Inactive)
REMARK    1  A    between atoms: C1_2  and  C2_3 
REMARK    2  A    between atoms: C2_3  and  C3_4 
ROOT
HETATM    1  C3  UNL     1      32.965   4.850  45.898  1.00  0.00    -0.008 C 
HETATM    2  C4  UNL     1      32.384   5.247  47.038  1.00  0.00    -0.002 C 
HETATM    3  C5  UNL     1      31.110   4.656  47.677  1.00  0.00     0.213 C 
HETATM    4  O1  UNL     1      30.195   5.671  47.750  1.00  0.00    -0.385 OA
HETATM    5  C6  UNL     1      28.966   5.370  48.235  1.00  0.00     0.183 C 
HETATM    6  C7  UNL     1      28.176   6.740  48.200  1.00  0.00     0.125 C 
HETATM    7  N1  UNL     1      28.973   7.555  49.052  1.00  0.00    -0.271 NA
HETATM    8  S1  UNL     1      28.919   9.317  48.925  1.00  0.00    -0.110 SA
HETATM    9  C8  UNL     1      28.906   9.751  47.317  1.00  0.00     0.054 C 
HETATM   10  C9  UNL     1      30.057   9.324  46.789  1.00  0.00     0.088 A 
HETATM   11  N2  UNL     1      29.867   9.152  45.470  1.00  0.00    -0.240 NA
HETATM   12  C10 UNL     1      30.812   8.665  44.648  1.00  0.00     0.234 A 
HETATM   13  N3  UNL     1      32.014   8.335  45.208  1.00  0.00    -0.245 NA
HETATM   14  C11 UNL     1      32.183   8.511  46.514  1.00  0.00     0.057 A 
HETATM   15  C12 UNL     1      31.257   9.012  47.406  1.00  0.00     0.017 A 
HETATM   16  C13 UNL     1      31.498   9.223  48.692  1.00  0.00    -0.000 C 
HETATM   17  C14 UNL     1      30.557  10.038  49.550  1.00  0.00     0.112 C 
HETATM   18  C15 UNL     1      33.416   8.002  47.196  1.00  0.00     0.139 C 
HETATM   19  S2  UNL     1      32.887   6.554  48.203  1.00  0.00    -0.126 SA
HETATM   20  H12 UNL     1      28.748   7.330  50.047  1.00  0.00     0.134 HD
ENDROOT
BRANCH   1  21
HETATM   21  C2  UNL     1      34.019   4.952  44.877  1.00  0.00     0.059 C 
BRANCH  21  22
HETATM   22  C1  UNL     1      35.130   3.942  45.075  1.00  0.00     0.226 C 
HETATM   23  F1  UNL     1      35.284   3.675  46.410  1.00  0.00    -0.255 F 
ENDBRANCH  21  22
ENDBRANCH   1  21
TORSDOF 2
ENDMDL
MODEL 4
REMARK VINA RESULT:      -6.0      9.740     12.044
REMARK  2 active torsions:
REMARK  status: ('A' for Active; 'I' for Inactive)
REMARK    1  A    between atoms: C1_2  and  C2_3 
REMARK    2  A    between atoms: C2_3  and  C3_4 
ROOT
HETATM    1  C3  UNL     1      32.114   9.791  46.773  1.00  0.00    -0.008 C 
HETATM    2  C4  UNL     1      33.053   8.899  46.427  1.00  0.00    -0.002 C 
HETATM    3  C5  UNL     1      33.322   8.346  45.011  1.00  0.00     0.213 C 
HETATM    4  O1  UNL     1      33.141   6.991  45.073  1.00  0.00    -0.385 OA
HETATM    5  C6  UNL     1      33.273   6.291  43.920  1.00  0.00     0.183 C 
HETATM    6  C7  UNL     1      33.022   4.786  44.337  1.00  0.00     0.125 C 
HETATM    7  N1  UNL     1      34.058   4.572  45.289  1.00  0.00    -0.271 NA
HETATM    8  S1  UNL     1      33.917   3.298  46.505  1.00  0.00    -0.110 SA
HETATM    9  C8  UNL     1      32.366   3.284  47.110  1.00  0.00     0.054 C 
HETATM   10  C9  UNL     1      32.171   4.463  47.710  1.00  0.00     0.088 A 
HETATM   11  N2  UNL     1      30.852   4.710  47.714  1.00  0.00    -0.240 NA
HETATM   12  C10 UNL     1      30.318   5.850  48.186  1.00  0.00     0.234 A 
HETATM   13  N3  UNL     1      31.185   6.785  48.678  1.00  0.00    -0.245 NA
HETATM   14  C11 UNL     1      32.488   6.523  48.664  1.00  0.00     0.057 A 
HETATM   15  C12 UNL     1      33.092   5.373  48.201  1.00  0.00     0.017 A 
HETATM   16  C13 UNL     1      34.396   5.138  48.265  1.00  0.00    -0.000 C 
HETATM   17  C14 UNL     1      34.964   3.759  48.017  1.00  0.00     0.112 C 
HETATM   18  C15 UNL     1      33.480   7.584  49.029  1.00  0.00     0.139 C 
HETATM   19  S2  UNL     1      34.308   8.076  47.459  1.00  0.00    -0.126 SA
HETATM   20  H12 UNL     1      34.954   4.393  44.785  1.00  0.00     0.134 HD
ENDROOT
BRANCH   1  21
HETATM   21  C2  UNL     1      31.418  10.618  47.769  1.00  0.00     0.059 C 
BRANCH  21  22
HETATM   22  C1  UNL     1      29.965  10.229  47.946  1.00  0.00     0.226 C 
HETATM   23  F1  UNL     1      29.647   9.213  47.085  1.00  0.00    -0.255 F 
ENDBRANCH  21  22
ENDBRANCH   1  21
TORSDOF 2
ENDMDL
MODEL 5
REMARK VINA RESULT:      -6.0      3.094      5.388
REMARK  2 active torsions:
REMARK  status: ('A' for Active; 'I' for Inactive)
REMARK    1  A    between atoms: C1_2  and  C2_3 
REMARK    2  A    between atoms: C2_3  and  C3_4 
ROOT
HETATM    1  C3  UNL     1      22.459  -0.219  52.582  1.00  0.00    -0.008 C 
HETATM    2  C4  UNL     1      21.890   0.747  51.849  1.00  0.00    -0.002 C 
HETATM    3  C5  UNL     1      21.352   0.615  50.408  1.00  0.00     0.213 C 
HETATM    4  O1  UNL     1      22.058   1.499  49.638  1.00  0.00    -0.385 OA
HETATM    5  C6  UNL     1      21.791   1.521  48.309  1.00  0.00     0.183 C 
HETATM    6  C7  UNL     1      22.747   2.640  47.729  1.00  0.00     0.125 C 
HETATM    7  N1  UNL     1      22.315   3.791  48.446  1.00  0.00    -0.271 NA
HETATM    8  S1  UNL     1      23.385   5.181  48.650  1.00  0.00    -0.110 SA
HETATM    9  C8  UNL     1      24.921   4.644  49.005  1.00  0.00     0.054 C 
HETATM   10  C9  UNL     1      24.847   3.994  50.170  1.00  0.00     0.088 A 
HETATM   11  N2  UNL     1      25.862   3.116  50.217  1.00  0.00    -0.240 NA
HETATM   12  C10 UNL     1      26.040   2.251  51.231  1.00  0.00     0.234 A 
HETATM   13  N3  UNL     1      25.129   2.289  52.248  1.00  0.00    -0.245 NA
HETATM   14  C11 UNL     1      24.130   3.164  52.183  1.00  0.00     0.057 A 
HETATM   15  C12 UNL     1      23.899   4.078  51.176  1.00  0.00     0.017 A 
HETATM   16  C13 UNL     1      22.919   4.970  51.190  1.00  0.00    -0.000 C 
HETATM   17  C14 UNL     1      22.889   6.127  50.216  1.00  0.00     0.112 C 
HETATM   18  C15 UNL     1      23.017   3.120  53.183  1.00  0.00     0.139 C 
HETATM   19  S2  UNL     1      21.542   2.481  52.284  1.00  0.00    -0.126 SA
HETATM   20  H12 UNL     1      21.442   4.159  48.006  1.00  0.00     0.134 HD
ENDROOT
BRANCH   1  21
HETATM   21  C2  UNL     1      23.092  -0.706  53.817  1.00  0.00     0.059 C 
BRANCH  21  22
HETATM   22  C1  UNL     1      22.090  -1.016  54.909  1.00  0.00     0.226 C 
HETATM   23  F1  UNL     1      21.312   0.084  55.154  1.00  0.00    -0.255 F 
ENDBRANCH  21  22
ENDBRANCH   1  21
TORSDOF 2
ENDMDL
MODEL 6
REMARK VINA RESULT:      -6.0      2.593      4.508
REMARK  2 active torsions:
REMARK  status: ('A' for Active; 'I' for Inactive)
REMARK    1  A    between atoms: C1_2  and  C2_3 
REMARK    2  A    between atoms: C2_3  and  C3_4 
ROOT
HETATM    1  C3  UNL     1      23.740   0.003  52.690  1.00  0.00    -0.008 C 
HETATM    2  C4  UNL     1      22.769   0.783  52.196  1.00  0.00    -0.002 C 
HETATM    3  C5  UNL     1      21.826   0.447  51.020  1.00  0.00     0.213 C 
HETATM    4  O1  UNL     1      22.033   1.401  50.061  1.00  0.00    -0.385 OA
HETATM    5  C6  UNL     1      21.344   1.278  48.900  1.00  0.00     0.183 C 
HETATM    6  C7  UNL     1      21.794   2.524  48.035  1.00  0.00     0.125 C 
HETATM    7  N1  UNL     1      21.389   3.610  48.860  1.00  0.00    -0.271 NA
HETATM    8  S1  UNL     1      22.146   5.199  48.697  1.00  0.00    -0.110 SA
HETATM    9  C8  UNL     1      23.790   5.007  48.511  1.00  0.00     0.054 C 
HETATM   10  C9  UNL     1      24.244   4.436  49.630  1.00  0.00     0.088 A 
HETATM   11  N2  UNL     1      25.380   3.785  49.329  1.00  0.00    -0.240 NA
HETATM   12  C10 UNL     1      26.062   3.046  50.220  1.00  0.00     0.234 A 
HETATM   13  N3  UNL     1      25.552   2.968  51.485  1.00  0.00    -0.245 NA
HETATM   14  C11 UNL     1      24.427   3.618  51.764  1.00  0.00     0.057 A 
HETATM   15  C12 UNL     1      23.687   4.396  50.898  1.00  0.00     0.017 A 
HETATM   16  C13 UNL     1      22.601   5.072  51.245  1.00  0.00    -0.000 C 
HETATM   17  C14 UNL     1      22.006   6.130  50.343  1.00  0.00     0.112 C 
HETATM   18  C15 UNL     1      23.742   3.419  53.081  1.00  0.00     0.139 C 
HETATM   19  S2  UNL     1      22.224   2.437  52.730  1.00  0.00    -0.126 SA
HETATM   20  H12 UNL     1      20.363   3.765  48.742  1.00  0.00     0.134 HD
ENDROOT
BRANCH   1  21
HETATM   21  C2  UNL     1      24.833  -0.261  53.637  1.00  0.00     0.059 C 
BRANCH  21  22
HETATM   22  C1  UNL     1      26.055  -0.861  52.974  1.00  0.00     0.226 C 
HETATM   23  F1  UNL     1      26.327  -0.194  51.808  1.00  0.00    -0.255 F 
ENDBRANCH  21  22
ENDBRANCH   1  21
TORSDOF 2
ENDMDL
MODEL 7
REMARK VINA RESULT:      -5.7      2.309      2.732
REMARK  2 active torsions:
REMARK  status: ('A' for Active; 'I' for Inactive)
REMARK    1  A    between atoms: C1_2  and  C2_3 
REMARK    2  A    between atoms: C2_3  and  C3_4 
ROOT
HETATM    1  C3  UNL     1      24.463   1.394  52.068  1.00  0.00    -0.008 C 
HETATM    2  C4  UNL     1      23.236   1.769  52.455  1.00  0.00    -0.002 C 
HETATM    3  C5  UNL     1      22.135   0.858  53.039  1.00  0.00     0.213 C 
HETATM    4  O1  UNL     1      21.063   0.938  52.192  1.00  0.00    -0.385 OA
HETATM    5  C6  UNL     1      19.983   0.171  52.478  1.00  0.00     0.183 C 
HETATM    6  C7  UNL     1      18.941   0.507  51.336  1.00  0.00     0.125 C 
HETATM    7  N1  UNL     1      18.749   1.905  51.523  1.00  0.00    -0.271 NA
HETATM    8  S1  UNL     1      18.165   2.920  50.199  1.00  0.00    -0.110 SA
HETATM    9  C8  UNL     1      18.933   2.479  48.789  1.00  0.00     0.054 C 
HETATM   10  C9  UNL     1      20.236   2.720  48.963  1.00  0.00     0.088 A 
HETATM   11  N2  UNL     1      20.919   1.912  48.136  1.00  0.00    -0.240 NA
HETATM   12  C10 UNL     1      22.261   1.854  48.106  1.00  0.00     0.234 A 
HETATM   13  N3  UNL     1      22.938   2.666  48.972  1.00  0.00    -0.245 NA
HETATM   14  C11 UNL     1      22.245   3.458  49.784  1.00  0.00     0.057 A 
HETATM   15  C12 UNL     1      20.872   3.567  49.856  1.00  0.00     0.017 A 
HETATM   16  C13 UNL     1      20.231   4.419  50.644  1.00  0.00    -0.000 C 
HETATM   17  C14 UNL     1      18.756   4.701  50.471  1.00  0.00     0.112 C 
HETATM   18  C15 UNL     1      22.937   4.230  50.864  1.00  0.00     0.139 C 
HETATM   19  S2  UNL     1      22.473   3.423  52.453  1.00  0.00    -0.126 SA
HETATM   20  H12 UNL     1      18.087   2.055  52.316  1.00  0.00     0.134 HD
ENDROOT
BRANCH   1  21
HETATM   21  C2  UNL     1      25.793   1.688  51.515  1.00  0.00     0.059 C 
BRANCH  21  22
HETATM   22  C1  UNL     1      26.859   0.730  52.005  1.00  0.00     0.226 C 
HETATM   23  F1  UNL     1      26.455  -0.562  51.798  1.00  0.00    -0.255 F 
ENDBRANCH  21  22
ENDBRANCH   1  21
TORSDOF 2
ENDMDL
MODEL 8
REMARK VINA RESULT:      -5.6      3.262      4.989
REMARK  2 active torsions:
REMARK  status: ('A' for Active; 'I' for Inactive)
REMARK    1  A    between atoms: C1_2  and  C2_3 
REMARK    2  A    between atoms: C2_3  and  C3_4 
ROOT
HETATM    1  C3  UNL     1      25.313   8.267  47.257  1.00  0.00    -0.008 C 
HETATM    2  C4  UNL     1      25.748   7.653  48.366  1.00  0.00    -0.002 C 
HETATM    3  C5  UNL     1      26.955   6.697  48.477  1.00  0.00     0.213 C 
HETATM    4  O1  UNL     1      26.471   5.496  48.920  1.00  0.00    -0.385 OA
HETATM    5  C6  UNL     1      27.353   4.475  49.044  1.00  0.00     0.183 C 
HETATM    6  C7  UNL     1      26.489   3.263  49.580  1.00  0.00     0.125 C 
HETATM    7  N1  UNL     1      25.996   3.782  50.810  1.00  0.00    -0.271 NA
HETATM    8  S1  UNL     1      24.532   3.121  51.546  1.00  0.00    -0.110 SA
HETATM    9  C8  UNL     1      23.389   2.866  50.361  1.00  0.00     0.054 C 
HETATM   10  C9  UNL     1      23.097   4.060  49.838  1.00  0.00     0.088 A 
HETATM   11  N2  UNL     1      22.644   3.863  48.589  1.00  0.00    -0.240 NA
HETATM   12  C10 UNL     1      22.321   4.868  47.757  1.00  0.00     0.234 A 
HETATM   13  N3  UNL     1      22.474   6.141  48.229  1.00  0.00    -0.245 NA
HETATM   14  C11 UNL     1      22.925   6.316  49.467  1.00  0.00     0.057 A 
HETATM   15  C12 UNL     1      23.265   5.329  50.369  1.00  0.00     0.017 A 
HETATM   16  C13 UNL     1      23.654   5.558  51.615  1.00  0.00    -0.000 C 
HETATM   17  C14 UNL     1      23.729   4.447  52.638  1.00  0.00     0.112 C 
HETATM   18  C15 UNL     1      23.272   7.686  49.962  1.00  0.00     0.139 C 
HETATM   19  S2  UNL     1      25.109   7.745  50.069  1.00  0.00    -0.126 SA
HETATM   20  H12 UNL     1      26.743   3.707  51.536  1.00  0.00     0.134 HD
ENDROOT
BRANCH   1  21
HETATM   21  C2  UNL     1      24.383   9.159  46.550  1.00  0.00     0.059 C 
BRANCH  21  22
HETATM   22  C1  UNL     1      23.787   8.527  45.310  1.00  0.00     0.226 C 
HETATM   23  F1  UNL     1      23.760   7.164  45.449  1.00  0.00    -0.255 F 
ENDBRANCH  21  22
ENDBRANCH   1  21
TORSDOF 2
ENDMDL
MODEL 9
REMARK VINA RESULT:      -5.5      3.370      5.141
REMARK  2 active torsions:
REMARK  status: ('A' for Active; 'I' for Inactive)
REMARK    1  A    between atoms: C1_2  and  C2_3 
REMARK    2  A    between atoms: C2_3  and  C3_4 
ROOT
HETATM    1  C3  UNL     1      22.659   1.044  53.071  1.00  0.00    -0.008 C 
HETATM    2  C4  UNL     1      22.978   1.923  52.111  1.00  0.00    -0.002 C 
HETATM    3  C5  UNL     1      23.536   3.348  52.315  1.00  0.00     0.213 C 
HETATM    4  O1  UNL     1      22.638   4.210  51.747  1.00  0.00    -0.385 OA
HETATM    5  C6  UNL     1      22.895   5.537  51.852  1.00  0.00     0.183 C 
HETATM    6  C7  UNL     1      21.698   6.237  51.091  1.00  0.00     0.125 C 
HETATM    7  N1  UNL     1      21.836   5.702  49.780  1.00  0.00    -0.271 NA
HETATM    8  S1  UNL     1      20.459   5.659  48.673  1.00  0.00    -0.110 SA
HETATM    9  C8  UNL     1      19.098   5.183  49.508  1.00  0.00     0.054 C 
HETATM   10  C9  UNL     1      19.325   3.942  49.947  1.00  0.00     0.088 A 
HETATM   11  N2  UNL     1      18.554   3.739  51.028  1.00  0.00    -0.240 NA
HETATM   12  C10 UNL     1      18.588   2.610  51.755  1.00  0.00     0.234 A 
HETATM   13  N3  UNL     1      19.461   1.638  51.354  1.00  0.00    -0.245 NA
HETATM   14  C11 UNL     1      20.217   1.857  50.283  1.00  0.00     0.057 A 
HETATM   15  C12 UNL     1      20.222   2.988  49.494  1.00  0.00     0.017 A 
HETATM   16  C13 UNL     1      20.956   3.131  48.399  1.00  0.00    -0.000 C 
HETATM   17  C14 UNL     1      20.707   4.257  47.421  1.00  0.00     0.112 C 
HETATM   18  C15 UNL     1      21.306   0.897  49.914  1.00  0.00     0.139 C 
HETATM   19  S2  UNL     1      22.894   1.745  50.301  1.00  0.00    -0.126 SA
HETATM   20  H12 UNL     1      22.593   6.217  49.279  1.00  0.00     0.134 HD
ENDROOT
BRANCH   1  21
HETATM   21  C2  UNL     1      22.160  -0.267  53.513  1.00  0.00     0.059 C 
BRANCH  21  22
HETATM   22  C1  UNL     1      20.767  -0.198  54.104  1.00  0.00     0.226 C 
HETATM   23  F1  UNL     1      20.787   0.535  55.261  1.00  0.00    -0.255 F 
ENDBRANCH  21  22
ENDBRANCH   1  21
TORSDOF 2
ENDMDL
