MODEL 1
REMARK VINA RESULT:      -9.0      0.000      0.000
REMARK  6 active torsions:
REMARK  status: ('A' for Active; 'I' for Inactive)
REMARK    1  A    between atoms: O1_2  and  C2_3 
REMARK    2  A    between atoms: C7_8  and  C8_9 
REMARK       I    between atoms: C8_9  and  N1_11 
REMARK    3  A    between atoms: N1_11  and  C9_12 
REMARK    4  A    between atoms: C10_13  and  C11_14 
REMARK    5  A    between atoms: C11_14  and  C12_15 
REMARK    6  A    between atoms: C12_15  and  C13_16 
ROOT
HETATM    1  C13 UNL     1      24.958   4.487  49.791  1.00  0.00     0.066 A 
HETATM    2  C14 UNL     1      25.513   3.514  50.474  1.00  0.00     0.124 A 
HETATM    3  N2  UNL     1      26.435   2.694  51.123  1.00  0.00    -0.275 NA
HETATM    4  C15 UNL     1      26.558   1.746  51.894  1.00  0.00     0.197 C 
HETATM    5  C16 UNL     1      25.517   0.978  52.547  1.00  0.00     0.035 A 
HETATM    6  C17 UNL     1      26.476   0.443  53.496  1.00  0.00     0.101 A 
HETATM    7  N3  UNL     1      26.401  -0.418  54.562  1.00  0.00    -0.276 NA
HETATM    8  C18 UNL     1      25.195  -0.926  54.859  1.00  0.00     0.116 A 
HETATM    9  C19 UNL     1      24.157  -0.539  54.077  1.00  0.00     0.027 A 
HETATM   10  C20 UNL     1      24.344   0.311  53.059  1.00  0.00    -0.044 A 
HETATM   11  C21 UNL     1      23.147   0.592  52.283  1.00  0.00     0.027 C 
HETATM   12  C22 UNL     1      22.480   1.220  51.354  1.00  0.00     0.119 C 
HETATM   13  N4  UNL     1      23.637   1.855  51.144  1.00  0.00    -0.241 NA
HETATM   14  C23 UNL     1      24.201   2.838  50.681  1.00  0.00     0.158 A 
HETATM   15  N5  UNL     1      23.685   3.935  49.933  1.00  0.00    -0.337 N 
HETATM   16  H19 UNL     1      22.910   4.477  49.481  1.00  0.00     0.167 HD
ENDROOT
BRANCH   1  17
HETATM   17  C12 UNL     1      26.076   5.283  49.480  1.00  0.00     0.032 C 
BRANCH  17  18
HETATM   18  C11 UNL     1      26.934   6.039  48.955  1.00  0.00     0.004 C 
BRANCH  18  19
HETATM   19  C10 UNL     1      28.114   5.616  48.217  1.00  0.00     0.017 C 
HETATM   20  C9  UNL     1      29.413   5.813  48.209  1.00  0.00     0.091 C 
BRANCH  20  21
HETATM   21  N1  UNL     1      30.550   5.406  47.497  1.00  0.00    -0.333 N 
HETATM   22  C8  UNL     1      31.835   5.007  47.919  1.00  0.00     0.258 C 
HETATM   23  O2  UNL     1      31.939   5.047  49.165  1.00  0.00    -0.267 OA
HETATM   24  H8  UNL     1      30.349   5.412  46.457  1.00  0.00     0.168 HD
BRANCH  22  25
HETATM   25  C7  UNL     1      32.942   4.591  47.085  1.00  0.00     0.065 A 
HETATM   26  C2  UNL     1      33.273   4.987  45.821  1.00  0.00     0.084 A 
HETATM   27  C3  UNL     1      34.359   4.505  45.129  1.00  0.00     0.038 A 
HETATM   28  C4  UNL     1      35.163   3.586  45.722  1.00  0.00     0.003 A 
HETATM   29  C5  UNL     1      34.901   3.130  47.004  1.00  0.00     0.001 A 
HETATM   30  C6  UNL     1      33.806   3.648  47.635  1.00  0.00     0.020 A 
BRANCH  26  31
HETATM   31  O1  UNL     1      32.463   5.909  45.229  1.00  0.00    -0.355 OA
HETATM   32  C1  UNL     1      32.872   7.239  45.052  1.00  0.00     0.210 C 
ENDBRANCH  26  31
ENDBRANCH  22  25
ENDBRANCH  20  21
ENDBRANCH  18  19
ENDBRANCH  17  18
ENDBRANCH   1  17
TORSDOF 6
ENDMDL
MODEL 2
REMARK VINA RESULT:      -8.9      1.603      2.148
REMARK  6 active torsions:
REMARK  status: ('A' for Active; 'I' for Inactive)
REMARK    1  A    between atoms: O1_2  and  C2_3 
REMARK    2  A    between atoms: C7_8  and  C8_9 
REMARK       I    between atoms: C8_9  and  N1_11 
REMARK    3  A    between atoms: N1_11  and  C9_12 
REMARK    4  A    between atoms: C10_13  and  C11_14 
REMARK    5  A    between atoms: C11_14  and  C12_15 
REMARK    6  A    between atoms: C12_15  and  C13_16 
ROOT
HETATM    1  C13 UNL     1      24.010   3.501  49.803  1.00  0.00     0.066 A 
HETATM    2  C14 UNL     1      24.595   2.637  50.597  1.00  0.00     0.124 A 
HETATM    3  N2  UNL     1      25.543   1.933  51.340  1.00  0.00    -0.275 NA
HETATM    4  C15 UNL     1      25.696   1.090  52.220  1.00  0.00     0.197 C 
HETATM    5  C16 UNL     1      24.679   0.372  52.962  1.00  0.00     0.035 A 
HETATM    6  C17 UNL     1      25.653  -0.012  53.968  1.00  0.00     0.101 A 
HETATM    7  N3  UNL     1      25.604  -0.740  55.130  1.00  0.00    -0.276 NA
HETATM    8  C18 UNL     1      24.416  -1.249  55.488  1.00  0.00     0.116 A 
HETATM    9  C19 UNL     1      23.367  -0.995  54.666  1.00  0.00     0.027 A 
HETATM   10  C20 UNL     1      23.529  -0.269  53.552  1.00  0.00    -0.044 A 
HETATM   11  C21 UNL     1      22.325  -0.125  52.749  1.00  0.00     0.027 C 
HETATM   12  C22 UNL     1      21.640   0.363  51.752  1.00  0.00     0.119 C 
HETATM   13  N4  UNL     1      22.775   1.008  51.465  1.00  0.00    -0.241 NA
HETATM   14  C23 UNL     1      23.306   1.947  50.886  1.00  0.00     0.158 A 
HETATM   15  N5  UNL     1      22.756   2.926  50.011  1.00  0.00    -0.337 N 
HETATM   16  H19 UNL     1      21.964   3.383  49.498  1.00  0.00     0.167 HD
ENDROOT
BRANCH   1  17
HETATM   17  C12 UNL     1      25.102   4.291  49.397  1.00  0.00     0.032 C 
BRANCH  17  18
HETATM   18  C11 UNL     1      25.893   5.215  49.076  1.00  0.00     0.004 C 
BRANCH  18  19
HETATM   19  C10 UNL     1      27.342   5.114  48.994  1.00  0.00     0.017 C 
HETATM   20  C9  UNL     1      28.334   5.545  48.249  1.00  0.00     0.091 C 
BRANCH  20  21
HETATM   21  N1  UNL     1      29.731   5.446  48.171  1.00  0.00    -0.333 N 
HETATM   22  C8  UNL     1      30.761   6.352  48.499  1.00  0.00     0.258 C 
HETATM   23  O2  UNL     1      30.298   7.433  48.927  1.00  0.00    -0.267 OA
HETATM   24  H8  UNL     1      30.007   4.495  47.795  1.00  0.00     0.168 HD
BRANCH  22  25
HETATM   25  C7  UNL     1      32.187   6.137  48.386  1.00  0.00     0.065 A 
HETATM   26  C2  UNL     1      32.872   4.986  48.117  1.00  0.00     0.084 A 
HETATM   27  C3  UNL     1      34.243   4.913  48.043  1.00  0.00     0.038 A 
HETATM   28  C4  UNL     1      34.975   6.040  48.241  1.00  0.00     0.003 A 
HETATM   29  C5  UNL     1      34.360   7.250  48.519  1.00  0.00     0.001 A 
HETATM   30  C6  UNL     1      32.996   7.253  48.580  1.00  0.00     0.020 A 
BRANCH  26  31
HETATM   31  O1  UNL     1      32.135   3.858  47.919  1.00  0.00    -0.355 OA
HETATM   32  C1  UNL     1      32.346   3.029  46.808  1.00  0.00     0.210 C 
ENDBRANCH  26  31
ENDBRANCH  22  25
ENDBRANCH  20  21
ENDBRANCH  18  19
ENDBRANCH  17  18
ENDBRANCH   1  17
TORSDOF 6
ENDMDL
MODEL 3
REMARK VINA RESULT:      -8.8      2.198      3.293
REMARK  6 active torsions:
REMARK  status: ('A' for Active; 'I' for Inactive)
REMARK    1  A    between atoms: O1_2  and  C2_3 
REMARK    2  A    between atoms: C7_8  and  C8_9 
REMARK       I    between atoms: C8_9  and  N1_11 
REMARK    3  A    between atoms: N1_11  and  C9_12 
REMARK    4  A    between atoms: C10_13  and  C11_14 
REMARK    5  A    between atoms: C11_14  and  C12_15 
REMARK    6  A    between atoms: C12_15  and  C13_16 
ROOT
HETATM    1  C13 UNL     1      26.458   2.761  50.683  1.00  0.00     0.066 A 
HETATM    2  C14 UNL     1      25.257   2.685  51.204  1.00  0.00     0.124 A 
HETATM    3  N2  UNL     1      23.914   2.911  51.505  1.00  0.00    -0.275 NA
HETATM    4  C15 UNL     1      22.930   2.455  52.082  1.00  0.00     0.197 C 
HETATM    5  C16 UNL     1      22.819   1.215  52.825  1.00  0.00     0.035 A 
HETATM    6  C17 UNL     1      21.371   1.280  52.759  1.00  0.00     0.101 A 
HETATM    7  N3  UNL     1      20.347   0.483  53.208  1.00  0.00    -0.276 NA
HETATM    8  C18 UNL     1      20.683  -0.632  53.874  1.00  0.00     0.116 A 
HETATM    9  C19 UNL     1      22.007  -0.873  54.039  1.00  0.00     0.027 A 
HETATM   10  C20 UNL     1      22.924  -0.024  53.556  1.00  0.00    -0.044 A 
HETATM   11  C21 UNL     1      24.299  -0.391  53.857  1.00  0.00     0.027 C 
HETATM   12  C22 UNL     1      25.592  -0.247  53.759  1.00  0.00     0.119 C 
HETATM   13  N4  UNL     1      25.281   0.778  52.961  1.00  0.00    -0.241 NA
HETATM   14  C23 UNL     1      25.649   1.543  52.079  1.00  0.00     0.158 A 
HETATM   15  N5  UNL     1      26.921   1.697  51.457  1.00  0.00    -0.337 N 
HETATM   16  H19 UNL     1      27.926   1.439  51.307  1.00  0.00     0.167 HD
ENDROOT
BRANCH   1  17
HETATM   17  C12 UNL     1      26.305   3.831  49.782  1.00  0.00     0.032 C 
BRANCH  17  18
HETATM   18  C11 UNL     1      26.455   4.777  48.966  1.00  0.00     0.004 C 
BRANCH  18  19
HETATM   19  C10 UNL     1      27.677   5.538  48.750  1.00  0.00     0.017 C 
HETATM   20  C9  UNL     1      28.891   5.368  48.281  1.00  0.00     0.091 C 
BRANCH  20  21
HETATM   21  N1  UNL     1      30.068   6.102  48.074  1.00  0.00    -0.333 N 
HETATM   22  C8  UNL     1      31.326   6.067  48.713  1.00  0.00     0.258 C 
HETATM   23  O2  UNL     1      31.348   5.217  49.631  1.00  0.00    -0.267 OA
HETATM   24  H8  UNL     1      29.934   6.788  47.280  1.00  0.00     0.168 HD
BRANCH  22  25
HETATM   25  C7  UNL     1      32.488   6.873  48.406  1.00  0.00     0.065 A 
HETATM   26  C2  UNL     1      32.556   8.130  47.876  1.00  0.00     0.084 A 
HETATM   27  C3  UNL     1      33.736   8.789  47.623  1.00  0.00     0.038 A 
HETATM   28  C4  UNL     1      34.911   8.173  47.916  1.00  0.00     0.003 A 
HETATM   29  C5  UNL     1      34.932   6.898  48.457  1.00  0.00     0.001 A 
HETATM   30  C6  UNL     1      33.726   6.298  48.681  1.00  0.00     0.020 A 
BRANCH  26  31
HETATM   31  O1  UNL     1      31.376   8.744  47.583  1.00  0.00    -0.355 OA
HETATM   32  C1  UNL     1      30.869   9.778  48.383  1.00  0.00     0.210 C 
ENDBRANCH  26  31
ENDBRANCH  22  25
ENDBRANCH  20  21
ENDBRANCH  18  19
ENDBRANCH  17  18
ENDBRANCH   1  17
TORSDOF 6
ENDMDL
MODEL 4
REMARK VINA RESULT:      -8.7      3.477      5.405
REMARK  6 active torsions:
REMARK  status: ('A' for Active; 'I' for Inactive)
REMARK    1  A    between atoms: O1_2  and  C2_3 
REMARK    2  A    between atoms: C7_8  and  C8_9 
REMARK       I    between atoms: C8_9  and  N1_11 
REMARK    3  A    between atoms: N1_11  and  C9_12 
REMARK    4  A    between atoms: C10_13  and  C11_14 
REMARK    5  A    between atoms: C11_14  and  C12_15 
REMARK    6  A    between atoms: C12_15  and  C13_16 
ROOT
HETATM    1  C13 UNL     1      26.390   2.457  50.861  1.00  0.00     0.066 A 
HETATM    2  C14 UNL     1      25.181   2.323  51.351  1.00  0.00     0.124 A 
HETATM    3  N2  UNL     1      23.816   2.466  51.597  1.00  0.00    -0.275 NA
HETATM    4  C15 UNL     1      22.849   1.973  52.174  1.00  0.00     0.197 C 
HETATM    5  C16 UNL     1      22.804   0.777  52.991  1.00  0.00     0.035 A 
HETATM    6  C17 UNL     1      21.358   0.728  52.879  1.00  0.00     0.101 A 
HETATM    7  N3  UNL     1      20.382  -0.114  53.349  1.00  0.00    -0.276 NA
HETATM    8  C18 UNL     1      20.776  -1.158  54.094  1.00  0.00     0.116 A 
HETATM    9  C19 UNL     1      22.108  -1.287  54.313  1.00  0.00     0.027 A 
HETATM   10  C20 UNL     1      22.976  -0.403  53.803  1.00  0.00    -0.044 A 
HETATM   11  C21 UNL     1      24.363  -0.646  54.167  1.00  0.00     0.027 C 
HETATM   12  C22 UNL     1      25.644  -0.411  54.097  1.00  0.00     0.119 C 
HETATM   13  N4  UNL     1      25.286   0.536  53.226  1.00  0.00    -0.241 NA
HETATM   14  C23 UNL     1      25.626   1.271  52.308  1.00  0.00     0.158 A 
HETATM   15  N5  UNL     1      26.904   1.481  51.715  1.00  0.00    -0.337 N 
HETATM   16  H19 UNL     1      27.930   1.291  51.611  1.00  0.00     0.167 HD
ENDROOT
BRANCH   1  17
HETATM   17  C12 UNL     1      26.189   3.455  49.889  1.00  0.00     0.032 C 
BRANCH  17  18
HETATM   18  C11 UNL     1      25.921   4.503  49.246  1.00  0.00     0.004 C 
BRANCH  18  19
HETATM   19  C10 UNL     1      26.813   5.632  49.034  1.00  0.00     0.017 C 
HETATM   20  C9  UNL     1      26.786   6.945  49.044  1.00  0.00     0.091 C 
BRANCH  20  21
HETATM   21  N1  UNL     1      27.647   8.032  48.838  1.00  0.00    -0.333 N 
HETATM   22  C8  UNL     1      27.756   9.284  49.480  1.00  0.00     0.258 C 
HETATM   23  O2  UNL     1      26.904   9.407  50.387  1.00  0.00    -0.267 OA
HETATM   24  H8  UNL     1      28.320   7.818  48.049  1.00  0.00     0.168 HD
BRANCH  22  25
HETATM   25  C7  UNL     1      28.702  10.339  49.188  1.00  0.00     0.065 A 
HETATM   26  C2  UNL     1      30.067  10.298  49.163  1.00  0.00     0.084 A 
HETATM   27  C3  UNL     1      30.859  11.385  48.875  1.00  0.00     0.038 A 
HETATM   28  C4  UNL     1      30.267  12.574  48.590  1.00  0.00     0.003 A 
HETATM   29  C5  UNL     1      28.888  12.703  48.591  1.00  0.00     0.001 A 
HETATM   30  C6  UNL     1      28.161  11.586  48.888  1.00  0.00     0.020 A 
BRANCH  26  31
HETATM   31  O1  UNL     1      30.657   9.104  49.451  1.00  0.00    -0.355 OA
HETATM   32  C1  UNL     1      31.279   8.336  48.456  1.00  0.00     0.210 C 
ENDBRANCH  26  31
ENDBRANCH  22  25
ENDBRANCH  20  21
ENDBRANCH  18  19
ENDBRANCH  17  18
ENDBRANCH   1  17
TORSDOF 6
ENDMDL
MODEL 5
REMARK VINA RESULT:      -8.7      2.014      2.604
REMARK  6 active torsions:
REMARK  status: ('A' for Active; 'I' for Inactive)
REMARK    1  A    between atoms: O1_2  and  C2_3 
REMARK    2  A    between atoms: C7_8  and  C8_9 
REMARK       I    between atoms: C8_9  and  N1_11 
REMARK    3  A    between atoms: N1_11  and  C9_12 
REMARK    4  A    between atoms: C10_13  and  C11_14 
REMARK    5  A    between atoms: C11_14  and  C12_15 
REMARK    6  A    between atoms: C12_15  and  C13_16 
ROOT
HETATM    1  C13 UNL     1      23.825   4.066  49.859  1.00  0.00     0.066 A 
HETATM    2  C14 UNL     1      24.858   3.431  50.357  1.00  0.00     0.124 A 
HETATM    3  N2  UNL     1      26.157   3.030  50.670  1.00  0.00    -0.275 NA
HETATM    4  C15 UNL     1      26.831   2.323  51.415  1.00  0.00     0.197 C 
HETATM    5  C16 UNL     1      26.378   1.458  52.486  1.00  0.00     0.035 A 
HETATM    6  C17 UNL     1      27.720   1.396  53.034  1.00  0.00     0.101 A 
HETATM    7  N3  UNL     1      28.293   0.780  54.118  1.00  0.00    -0.276 NA
HETATM    8  C18 UNL     1      27.490   0.044  54.902  1.00  0.00     0.116 A 
HETATM    9  C19 UNL     1      26.182  -0.020  54.552  1.00  0.00     0.027 A 
HETATM   10  C20 UNL     1      25.729   0.625  53.468  1.00  0.00    -0.044 A 
HETATM   11  C21 UNL     1      24.315   0.419  53.194  1.00  0.00     0.027 C 
HETATM   12  C22 UNL     1      23.209   0.649  52.543  1.00  0.00     0.119 C 
HETATM   13  N4  UNL     1      23.957   1.509  51.847  1.00  0.00    -0.241 NA
HETATM   14  C23 UNL     1      23.984   2.491  51.116  1.00  0.00     0.158 A 
HETATM   15  N5  UNL     1      22.923   3.240  50.530  1.00  0.00    -0.337 N 
HETATM   16  H19 UNL     1      21.911   3.457  50.367  1.00  0.00     0.167 HD
ENDROOT
BRANCH   1  17
HETATM   17  C12 UNL     1      24.453   5.047  49.069  1.00  0.00     0.032 C 
BRANCH  17  18
HETATM   18  C11 UNL     1      24.906   6.104  48.560  1.00  0.00     0.004 C 
BRANCH  18  19
HETATM   19  C10 UNL     1      26.284   6.566  48.624  1.00  0.00     0.017 C 
HETATM   20  C9  UNL     1      27.504   6.085  48.562  1.00  0.00     0.091 C 
BRANCH  20  21
HETATM   21  N1  UNL     1      28.832   6.531  48.625  1.00  0.00    -0.333 N 
HETATM   22  C8  UNL     1      30.055   5.900  48.314  1.00  0.00     0.258 C 
HETATM   23  O2  UNL     1      29.876   4.725  47.923  1.00  0.00    -0.267 OA
HETATM   24  H8  UNL     1      28.864   7.532  48.969  1.00  0.00     0.168 HD
BRANCH  22  25
HETATM   25  C7  UNL     1      31.383   6.467  48.408  1.00  0.00     0.065 A 
HETATM   26  C2  UNL     1      31.769   7.777  48.397  1.00  0.00     0.084 A 
HETATM   27  C3  UNL     1      33.079   8.188  48.486  1.00  0.00     0.038 A 
HETATM   28  C4  UNL     1      34.057   7.252  48.599  1.00  0.00     0.003 A 
HETATM   29  C5  UNL     1      33.752   5.901  48.619  1.00  0.00     0.001 A 
HETATM   30  C6  UNL     1      32.433   5.561  48.524  1.00  0.00     0.020 A 
BRANCH  26  31
HETATM   31  O1  UNL     1      30.786   8.712  48.283  1.00  0.00    -0.355 OA
HETATM   32  C1  UNL     1      30.580   9.684  49.273  1.00  0.00     0.210 C 
ENDBRANCH  26  31
ENDBRANCH  22  25
ENDBRANCH  20  21
ENDBRANCH  18  19
ENDBRANCH  17  18
ENDBRANCH   1  17
TORSDOF 6
ENDMDL
MODEL 6
REMARK VINA RESULT:      -8.4      2.832      4.336
REMARK  6 active torsions:
REMARK  status: ('A' for Active; 'I' for Inactive)
REMARK    1  A    between atoms: O1_2  and  C2_3 
REMARK    2  A    between atoms: C7_8  and  C8_9 
REMARK       I    between atoms: C8_9  and  N1_11 
REMARK    3  A    between atoms: N1_11  and  C9_12 
REMARK    4  A    between atoms: C10_13  and  C11_14 
REMARK    5  A    between atoms: C11_14  and  C12_15 
REMARK    6  A    between atoms: C12_15  and  C13_16 
ROOT
HETATM    1  C13 UNL     1      23.479   3.334  50.405  1.00  0.00     0.066 A 
HETATM    2  C14 UNL     1      24.665   2.916  50.776  1.00  0.00     0.124 A 
HETATM    3  N2  UNL     1      26.044   2.768  50.924  1.00  0.00    -0.275 NA
HETATM    4  C15 UNL     1      26.924   2.225  51.587  1.00  0.00     0.197 C 
HETATM    5  C16 UNL     1      26.775   1.339  52.724  1.00  0.00     0.035 A 
HETATM    6  C17 UNL     1      28.164   1.541  53.092  1.00  0.00     0.101 A 
HETATM    7  N3  UNL     1      28.971   1.083  54.104  1.00  0.00    -0.276 NA
HETATM    8  C18 UNL     1      28.421   0.249  55.000  1.00  0.00     0.116 A 
HETATM    9  C19 UNL     1      27.113  -0.064  54.824  1.00  0.00     0.027 A 
HETATM   10  C20 UNL     1      26.417   0.444  53.798  1.00  0.00    -0.044 A 
HETATM   11  C21 UNL     1      25.043  -0.023  53.714  1.00  0.00     0.027 C 
HETATM   12  C22 UNL     1      23.840  -0.023  53.209  1.00  0.00     0.119 C 
HETATM   13  N4  UNL     1      24.325   0.928  52.405  1.00  0.00    -0.241 NA
HETATM   14  C23 UNL     1      24.080   1.867  51.659  1.00  0.00     0.158 A 
HETATM   15  N5  UNL     1      22.836   2.388  51.204  1.00  0.00    -0.337 N 
HETATM   16  H19 UNL     1      21.788   2.413  51.170  1.00  0.00     0.167 HD
ENDROOT
BRANCH   1  17
HETATM   17  C12 UNL     1      23.814   4.378  49.523  1.00  0.00     0.032 C 
BRANCH  17  18
HETATM   18  C11 UNL     1      23.898   5.449  48.869  1.00  0.00     0.004 C 
BRANCH  18  19
HETATM   19  C10 UNL     1      25.111   6.218  48.634  1.00  0.00     0.017 C 
HETATM   20  C9  UNL     1      26.335   6.323  49.099  1.00  0.00     0.091 C 
BRANCH  20  21
HETATM   21  N1  UNL     1      27.503   7.065  48.873  1.00  0.00    -0.333 N 
HETATM   22  C8  UNL     1      27.928   8.323  49.350  1.00  0.00     0.258 C 
HETATM   23  O2  UNL     1      27.072   8.838  50.103  1.00  0.00    -0.267 OA
HETATM   24  H8  UNL     1      28.150   6.536  48.224  1.00  0.00     0.168 HD
BRANCH  22  25
HETATM   25  C7  UNL     1      29.175   8.996  49.056  1.00  0.00     0.065 A 
HETATM   26  C2  UNL     1      30.398   8.466  48.760  1.00  0.00     0.084 A 
HETATM   27  C3  UNL     1      31.517   9.223  48.505  1.00  0.00     0.038 A 
HETATM   28  C4  UNL     1      31.419  10.577  48.540  1.00  0.00     0.003 A 
HETATM   29  C5  UNL     1      30.215  11.197  48.832  1.00  0.00     0.001 A 
HETATM   30  C6  UNL     1      29.143  10.387  49.078  1.00  0.00     0.020 A 
BRANCH  26  31
HETATM   31  O1  UNL     1      30.493   7.107  48.726  1.00  0.00    -0.355 OA
HETATM   32  C1  UNL     1      31.492   6.424  49.434  1.00  0.00     0.210 C 
ENDBRANCH  26  31
ENDBRANCH  22  25
ENDBRANCH  20  21
ENDBRANCH  18  19
ENDBRANCH  17  18
ENDBRANCH   1  17
TORSDOF 6
ENDMDL
MODEL 7
REMARK VINA RESULT:      -8.3      4.255      5.102
REMARK  6 active torsions:
REMARK  status: ('A' for Active; 'I' for Inactive)
REMARK    1  A    between atoms: O1_2  and  C2_3 
REMARK    2  A    between atoms: C7_8  and  C8_9 
REMARK       I    between atoms: C8_9  and  N1_11 
REMARK    3  A    between atoms: N1_11  and  C9_12 
REMARK    4  A    between atoms: C10_13  and  C11_14 
REMARK    5  A    between atoms: C11_14  and  C12_15 
REMARK    6  A    between atoms: C12_15  and  C13_16 
ROOT
HETATM    1  C13 UNL     1      24.234   3.235  50.028  1.00  0.00     0.066 A 
HETATM    2  C14 UNL     1      24.642   2.278  50.826  1.00  0.00     0.124 A 
HETATM    3  N2  UNL     1      25.437   1.407  51.570  1.00  0.00    -0.275 NA
HETATM    4  C15 UNL     1      25.425   0.554  52.455  1.00  0.00     0.197 C 
HETATM    5  C16 UNL     1      24.290   0.051  53.203  1.00  0.00     0.035 A 
HETATM    6  C17 UNL     1      25.174  -0.509  54.209  1.00  0.00     0.101 A 
HETATM    7  N3  UNL     1      24.988  -1.208  55.375  1.00  0.00    -0.276 NA
HETATM    8  C18 UNL     1      23.724  -1.474  55.738  1.00  0.00     0.116 A 
HETATM    9  C19 UNL     1      22.742  -1.025  54.917  1.00  0.00     0.027 A 
HETATM   10  C20 UNL     1      23.039  -0.350  53.799  1.00  0.00    -0.044 A 
HETATM   11  C21 UNL     1      21.883   0.021  52.997  1.00  0.00     0.027 C 
HETATM   12  C22 UNL     1      21.304   0.628  51.998  1.00  0.00     0.119 C 
HETATM   13  N4  UNL     1      22.542   1.038  51.706  1.00  0.00    -0.241 NA
HETATM   14  C23 UNL     1      23.244   1.853  51.121  1.00  0.00     0.158 A 
HETATM   15  N5  UNL     1      22.893   2.917  50.242  1.00  0.00    -0.337 N 
HETATM   16  H19 UNL     1      22.203   3.516  49.727  1.00  0.00     0.167 HD
ENDROOT
BRANCH   1  17
HETATM   17  C12 UNL     1      25.457   3.796  49.615  1.00  0.00     0.032 C 
BRANCH  17  18
HETATM   18  C11 UNL     1      26.625   4.021  49.207  1.00  0.00     0.004 C 
BRANCH  18  19
HETATM   19  C10 UNL     1      27.279   5.320  49.152  1.00  0.00     0.017 C 
HETATM   20  C9  UNL     1      27.198   6.454  48.495  1.00  0.00     0.091 C 
BRANCH  20  21
HETATM   21  N1  UNL     1      27.830   7.704  48.441  1.00  0.00    -0.333 N 
HETATM   22  C8  UNL     1      27.800   8.815  49.311  1.00  0.00     0.258 C 
HETATM   23  O2  UNL     1      27.053   8.605  50.292  1.00  0.00    -0.267 OA
HETATM   24  H8  UNL     1      28.432   7.771  47.572  1.00  0.00     0.168 HD
BRANCH  22  25
HETATM   25  C7  UNL     1      28.510  10.066  49.160  1.00  0.00     0.065 A 
HETATM   26  C2  UNL     1      28.017  11.324  48.959  1.00  0.00     0.084 A 
HETATM   27  C3  UNL     1      28.808  12.441  48.823  1.00  0.00     0.038 A 
HETATM   28  C4  UNL     1      30.158  12.306  48.897  1.00  0.00     0.003 A 
HETATM   29  C5  UNL     1      30.741  11.066  49.100  1.00  0.00     0.001 A 
HETATM   30  C6  UNL     1      29.899   9.998  49.224  1.00  0.00     0.020 A 
BRANCH  26  31
HETATM   31  O1  UNL     1      26.664  11.455  48.885  1.00  0.00    -0.355 OA
HETATM   32  C1  UNL     1      26.009  11.621  47.656  1.00  0.00     0.210 C 
ENDBRANCH  26  31
ENDBRANCH  22  25
ENDBRANCH  20  21
ENDBRANCH  18  19
ENDBRANCH  17  18
ENDBRANCH   1  17
TORSDOF 6
ENDMDL
MODEL 8
REMARK VINA RESULT:      -8.2      2.874      9.685
REMARK  6 active torsions:
REMARK  status: ('A' for Active; 'I' for Inactive)
REMARK    1  A    between atoms: O1_2  and  C2_3 
REMARK    2  A    between atoms: C7_8  and  C8_9 
REMARK       I    between atoms: C8_9  and  N1_11 
REMARK    3  A    between atoms: N1_11  and  C9_12 
REMARK    4  A    between atoms: C10_13  and  C11_14 
REMARK    5  A    between atoms: C11_14  and  C12_15 
REMARK    6  A    between atoms: C12_15  and  C13_16 
ROOT
HETATM    1  C13 UNL     1      27.910   7.931  48.713  1.00  0.00     0.066 A 
HETATM    2  C14 UNL     1      28.714   6.929  48.450  1.00  0.00     0.124 A 
HETATM    3  N2  UNL     1      29.220   5.684  48.076  1.00  0.00    -0.275 NA
HETATM    4  C15 UNL     1      30.246   5.064  47.808  1.00  0.00     0.197 C 
HETATM    5  C16 UNL     1      31.610   5.551  47.786  1.00  0.00     0.035 A 
HETATM    6  C17 UNL     1      32.034   4.396  47.016  1.00  0.00     0.101 A 
HETATM    7  N3  UNL     1      33.228   3.972  46.490  1.00  0.00    -0.276 NA
HETATM    8  C18 UNL     1      34.301   4.751  46.693  1.00  0.00     0.116 A 
HETATM    9  C19 UNL     1      34.106   5.892  47.401  1.00  0.00     0.027 A 
HETATM   10  C20 UNL     1      32.892   6.209  47.868  1.00  0.00    -0.044 A 
HETATM   11  C21 UNL     1      32.851   7.435  48.650  1.00  0.00     0.027 C 
HETATM   12  C22 UNL     1      32.235   8.380  49.305  1.00  0.00     0.119 C 
HETATM   13  N4  UNL     1      31.132   7.701  48.977  1.00  0.00    -0.241 NA
HETATM   14  C23 UNL     1      29.917   7.723  48.828  1.00  0.00     0.158 A 
HETATM   15  N5  UNL     1      28.971   8.756  49.085  1.00  0.00    -0.337 N 
HETATM   16  H19 UNL     1      28.701   9.724  49.385  1.00  0.00     0.167 HD
ENDROOT
BRANCH   1  17
HETATM   17  C12 UNL     1      26.655   7.370  48.409  1.00  0.00     0.032 C 
BRANCH  17  18
HETATM   18  C11 UNL     1      25.626   6.655  48.305  1.00  0.00     0.004 C 
BRANCH  18  19
HETATM   19  C10 UNL     1      25.367   5.415  49.021  1.00  0.00     0.017 C 
HETATM   20  C9  UNL     1      25.884   4.691  49.988  1.00  0.00     0.091 C 
BRANCH  20  21
HETATM   21  N1  UNL     1      25.634   3.495  50.676  1.00  0.00    -0.333 N 
HETATM   22  C8  UNL     1      24.666   3.147  51.641  1.00  0.00     0.258 C 
HETATM   23  O2  UNL     1      23.919   4.114  51.909  1.00  0.00    -0.267 OA
HETATM   24  H8  UNL     1      26.324   2.751  50.374  1.00  0.00     0.168 HD
BRANCH  22  25
HETATM   25  C7  UNL     1      24.492   1.862  52.284  1.00  0.00     0.065 A 
HETATM   26  C2  UNL     1      25.410   0.877  52.516  1.00  0.00     0.084 A 
HETATM   27  C3  UNL     1      25.112  -0.313  53.138  1.00  0.00     0.038 A 
HETATM   28  C4  UNL     1      23.839  -0.537  53.557  1.00  0.00     0.003 A 
HETATM   29  C5  UNL     1      22.847   0.410  53.362  1.00  0.00     0.001 A 
HETATM   30  C6  UNL     1      23.209   1.568  52.736  1.00  0.00     0.020 A 
BRANCH  26  31
HETATM   31  O1  UNL     1      26.684   1.105  52.095  1.00  0.00    -0.355 OA
HETATM   32  C1  UNL     1      27.723   1.359  53.002  1.00  0.00     0.210 C 
ENDBRANCH  26  31
ENDBRANCH  22  25
ENDBRANCH  20  21
ENDBRANCH  18  19
ENDBRANCH  17  18
ENDBRANCH   1  17
TORSDOF 6
ENDMDL
MODEL 9
REMARK VINA RESULT:      -8.2      4.199     11.198
REMARK  6 active torsions:
REMARK  status: ('A' for Active; 'I' for Inactive)
REMARK    1  A    between atoms: O1_2  and  C2_3 
REMARK    2  A    between atoms: C7_8  and  C8_9 
REMARK       I    between atoms: C8_9  and  N1_11 
REMARK    3  A    between atoms: N1_11  and  C9_12 
REMARK    4  A    between atoms: C10_13  and  C11_14 
REMARK    5  A    between atoms: C11_14  and  C12_15 
REMARK    6  A    between atoms: C12_15  and  C13_16 
ROOT
HETATM    1  C13 UNL     1      27.932   5.730  48.578  1.00  0.00     0.066 A 
HETATM    2  C14 UNL     1      27.802   7.034  48.516  1.00  0.00     0.124 A 
HETATM    3  N2  UNL     1      27.282   8.328  48.544  1.00  0.00    -0.275 NA
HETATM    4  C15 UNL     1      27.575   9.521  48.544  1.00  0.00     0.197 C 
HETATM    5  C16 UNL     1      28.893  10.123  48.510  1.00  0.00     0.035 A 
HETATM    6  C17 UNL     1      28.348  11.393  48.951  1.00  0.00     0.101 A 
HETATM    7  N3  UNL     1      28.880  12.629  49.225  1.00  0.00    -0.276 NA
HETATM    8  C18 UNL     1      30.205  12.775  49.072  1.00  0.00     0.116 A 
HETATM    9  C19 UNL     1      30.900  11.685  48.662  1.00  0.00     0.027 A 
HETATM   10  C20 UNL     1      30.276  10.524  48.424  1.00  0.00    -0.044 A 
HETATM   11  C21 UNL     1      31.146   9.462  47.942  1.00  0.00     0.027 C 
HETATM   12  C22 UNL     1      31.399   8.232  47.590  1.00  0.00     0.119 C 
HETATM   13  N4  UNL     1      30.113   8.026  47.889  1.00  0.00    -0.241 NA
HETATM   14  C23 UNL     1      29.243   7.217  48.182  1.00  0.00     0.158 A 
HETATM   15  N5  UNL     1      29.291   5.796  48.274  1.00  0.00    -0.337 N 
HETATM   16  H19 UNL     1      29.785   4.872  48.230  1.00  0.00     0.167 HD
ENDROOT
BRANCH   1  17
HETATM   17  C12 UNL     1      26.620   5.333  48.898  1.00  0.00     0.032 C 
BRANCH  17  18
HETATM   18  C11 UNL     1      25.509   4.754  49.014  1.00  0.00     0.004 C 
BRANCH  18  19
HETATM   19  C10 UNL     1      25.105   3.884  50.108  1.00  0.00     0.017 C 
HETATM   20  C9  UNL     1      24.330   2.847  50.328  1.00  0.00     0.091 C 
BRANCH  20  21
HETATM   21  N1  UNL     1      23.940   2.010  51.383  1.00  0.00    -0.333 N 
HETATM   22  C8  UNL     1      22.857   1.119  51.530  1.00  0.00     0.258 C 
HETATM   23  O2  UNL     1      22.131   1.112  50.511  1.00  0.00    -0.267 OA
HETATM   24  H8  UNL     1      24.622   2.099  52.188  1.00  0.00     0.168 HD
BRANCH  22  25
HETATM   25  C7  UNL     1      22.555   0.286  52.674  1.00  0.00     0.065 A 
HETATM   26  C2  UNL     1      23.391  -0.198  53.639  1.00  0.00     0.084 A 
HETATM   27  C3  UNL     1      22.975  -0.993  54.681  1.00  0.00     0.038 A 
HETATM   28  C4  UNL     1      21.660  -1.323  54.775  1.00  0.00     0.003 A 
HETATM   29  C5  UNL     1      20.744  -0.873  53.838  1.00  0.00     0.001 A 
HETATM   30  C6  UNL     1      21.223  -0.089  52.828  1.00  0.00     0.020 A 
BRANCH  26  31
HETATM   31  O1  UNL     1      24.708   0.134  53.542  1.00  0.00    -0.355 OA
HETATM   32  C1  UNL     1      25.675  -0.807  53.161  1.00  0.00     0.210 C 
ENDBRANCH  26  31
ENDBRANCH  22  25
ENDBRANCH  20  21
ENDBRANCH  18  19
ENDBRANCH  17  18
ENDBRANCH   1  17
TORSDOF 6
ENDMDL
