MODEL 1
REMARK VINA RESULT:      -7.6      0.000      0.000
REMARK  4 active torsions:
REMARK  status: ('A' for Active; 'I' for Inactive)
REMARK    1  A    between atoms: N1_1  and  C1_2 
REMARK    2  A    between atoms: S1_5  and  C3_7 
REMARK    3  A    between atoms: C6_11  and  N3_12 
REMARK    4  A    between atoms: N3_12  and  C7_13 
ROOT
HETATM    1  C1  UNL     1      24.230   0.427  53.230  1.00  0.00     0.263 A 
HETATM    2  N2  UNL     1      25.390   0.972  53.322  1.00  0.00     0.105 N 
HETATM    3  C2  UNL     1      26.210   0.852  54.517  1.00  0.00     0.384 C 
HETATM    4  S1  UNL     1      27.938   0.724  54.081  1.00  0.00     0.049 S 
HETATM    5  O1  UNL     1      28.689   0.608  55.365  1.00  0.00    -0.257 OA
HETATM    6  C4  UNL     1      28.318   2.098  53.355  1.00  0.00     0.078 C 
HETATM    7  C5  UNL     1      27.375   2.284  52.277  1.00  0.00     0.059 C 
HETATM    8  C6  UNL     1      26.454   2.396  51.354  1.00  0.00     0.134 C 
HETATM    9  N4  UNL     1      25.768   1.615  52.316  1.00  0.00    -0.142 N 
HETATM   10  C13 UNL     1      24.581   1.159  51.996  1.00  0.00     0.431 A 
ENDROOT
BRANCH   8  11
HETATM   11  N3  UNL     1      25.908   2.830  50.122  1.00  0.00    -0.341 N 
HETATM   12  H8  UNL     1      25.378   2.076  49.640  1.00  0.00     0.167 HD
BRANCH  11  13
HETATM   13  C7  UNL     1      26.146   4.174  49.727  1.00  0.00     0.034 A 
HETATM   14  C8  UNL     1      27.238   4.409  48.918  1.00  0.00     0.029 A 
HETATM   15  C9  UNL     1      27.502   5.725  48.515  1.00  0.00     0.004 A 
HETATM   16  C10 UNL     1      26.687   6.767  48.917  1.00  0.00     0.019 A 
HETATM   17  C11 UNL     1      25.607   6.484  49.725  1.00  0.00     0.013 A 
HETATM   18 BR1  UNL     1      24.379   7.825  50.368  1.00  0.00    -0.051 Br
HETATM   19  C12 UNL     1      25.318   5.196  50.141  1.00  0.00     0.048 A 
ENDBRANCH  11  13
ENDBRANCH   8  11
BRANCH   4  20
HETATM   20  C3  UNL     1      28.241  -0.662  53.080  1.00  0.00     0.329 C 
HETATM   21  O2  UNL     1      27.595  -1.694  53.091  1.00  0.00    -0.293 OA
ENDBRANCH   4  20
BRANCH   1  22
HETATM   22  N1  UNL     1      22.990  -0.250  53.350  1.00  0.00    -0.377 N 
HETATM   23  H1  UNL     1      22.680  -0.527  52.372  1.00  0.00     0.157 HD
HETATM   24  H2  UNL     1      23.115  -0.070  54.368  1.00  0.00     0.157 HD
ENDBRANCH   1  22
TORSDOF 4
ENDMDL
MODEL 2
REMARK VINA RESULT:      -7.5      1.324      1.655
REMARK  4 active torsions:
REMARK  status: ('A' for Active; 'I' for Inactive)
REMARK    1  A    between atoms: N1_1  and  C1_2 
REMARK    2  A    between atoms: S1_5  and  C3_7 
REMARK    3  A    between atoms: C6_11  and  N3_12 
REMARK    4  A    between atoms: N3_12  and  C7_13 
ROOT
HETATM    1  C1  UNL     1      24.174   0.204  53.384  1.00  0.00     0.263 A 
HETATM    2  N2  UNL     1      25.300   0.823  53.403  1.00  0.00     0.105 N 
HETATM    3  C2  UNL     1      26.183   0.791  54.558  1.00  0.00     0.384 C 
HETATM    4  S1  UNL     1      27.893   0.759  54.039  1.00  0.00     0.049 S 
HETATM    5  O1  UNL     1      28.712   0.727  55.286  1.00  0.00    -0.257 OA
HETATM    6  C4  UNL     1      28.149   2.132  53.258  1.00  0.00     0.078 C 
HETATM    7  C5  UNL     1      27.143   2.226  52.225  1.00  0.00     0.059 C 
HETATM    8  C6  UNL     1      26.174   2.252  51.347  1.00  0.00     0.134 C 
HETATM    9  N4  UNL     1      25.587   1.459  52.363  1.00  0.00    -0.142 N 
HETATM   10  C13 UNL     1      24.418   0.920  52.115  1.00  0.00     0.431 A 
ENDROOT
BRANCH   8  11
HETATM   11  N3  UNL     1      25.542   2.615  50.133  1.00  0.00    -0.341 N 
HETATM   12  H8  UNL     1      24.911   1.867  49.780  1.00  0.00     0.167 HD
BRANCH  11  13
HETATM   13  C7  UNL     1      25.839   3.892  49.584  1.00  0.00     0.034 A 
HETATM   14  C8  UNL     1      24.795   4.785  49.469  1.00  0.00     0.029 A 
HETATM   15  C9  UNL     1      25.055   6.051  48.926  1.00  0.00     0.004 A 
HETATM   16  C10 UNL     1      26.328   6.400  48.516  1.00  0.00     0.019 A 
HETATM   17  C11 UNL     1      27.340   5.474  48.652  1.00  0.00     0.013 A 
HETATM   18 BR1  UNL     1      29.165   5.808  48.127  1.00  0.00    -0.051 Br
HETATM   19  C12 UNL     1      27.117   4.215  49.183  1.00  0.00     0.048 A 
ENDBRANCH  11  13
ENDBRANCH   8  11
BRANCH   4  20
HETATM   20  C3  UNL     1      28.236  -0.635  53.060  1.00  0.00     0.329 C 
HETATM   21  O2  UNL     1      28.576  -1.725  53.482  1.00  0.00    -0.293 OA
ENDBRANCH   4  20
BRANCH   1  22
HETATM   22  N1  UNL     1      22.989  -0.546  53.584  1.00  0.00    -0.377 N 
HETATM   23  H1  UNL     1      22.310  -0.287  52.808  1.00  0.00     0.157 HD
HETATM   24  H2  UNL     1      23.498  -0.925  54.410  1.00  0.00     0.157 HD
ENDBRANCH   1  22
TORSDOF 4
ENDMDL
MODEL 3
REMARK VINA RESULT:      -7.2      5.071      6.424
REMARK  4 active torsions:
REMARK  status: ('A' for Active; 'I' for Inactive)
REMARK    1  A    between atoms: N1_1  and  C1_2 
REMARK    2  A    between atoms: S1_5  and  C3_7 
REMARK    3  A    between atoms: C6_11  and  N3_12 
REMARK    4  A    between atoms: N3_12  and  C7_13 
ROOT
HETATM    1  C1  UNL     1      20.969  -0.760  53.507  1.00  0.00     0.263 A 
HETATM    2  N2  UNL     1      21.615  -0.052  52.652  1.00  0.00     0.105 N 
HETATM    3  C2  UNL     1      21.033   0.353  51.383  1.00  0.00     0.384 C 
HETATM    4  S1  UNL     1      21.577   1.996  50.940  1.00  0.00     0.049 S 
HETATM    5  O1  UNL     1      20.931   2.316  49.633  1.00  0.00    -0.257 OA
HETATM    6  C4  UNL     1      23.163   1.906  50.750  1.00  0.00     0.078 C 
HETATM    7  C5  UNL     1      23.702   1.333  51.962  1.00  0.00     0.059 C 
HETATM    8  C6  UNL     1      24.102   0.768  53.073  1.00  0.00     0.134 C 
HETATM    9  N4  UNL     1      22.781   0.266  52.982  1.00  0.00    -0.142 N 
HETATM   10  C13 UNL     1      22.328  -0.440  53.989  1.00  0.00     0.431 A 
ENDROOT
BRANCH   8  11
HETATM   11  N3  UNL     1      25.017   0.464  54.109  1.00  0.00    -0.341 N 
HETATM   12  H8  UNL     1      24.543   0.076  54.950  1.00  0.00     0.167 HD
BRANCH  11  13
HETATM   13  C7  UNL     1      26.396   0.716  53.873  1.00  0.00     0.034 A 
HETATM   14  C8  UNL     1      26.774   2.031  53.705  1.00  0.00     0.029 A 
HETATM   15  C9  UNL     1      28.127   2.313  53.466  1.00  0.00     0.004 A 
HETATM   16  C10 UNL     1      29.062   1.297  53.401  1.00  0.00     0.019 A 
HETATM   17  C11 UNL     1      28.636  -0.002  53.576  1.00  0.00     0.013 A 
HETATM   18 BR1  UNL     1      29.817  -1.526  53.514  1.00  0.00    -0.051 Br
HETATM   19  C12 UNL     1      27.308  -0.314  53.813  1.00  0.00     0.048 A 
ENDBRANCH  11  13
ENDBRANCH   8  11
BRANCH   4  20
HETATM   20  C3  UNL     1      21.117   3.165  52.139  1.00  0.00     0.329 C 
HETATM   21  O2  UNL     1      20.030   3.224  52.684  1.00  0.00    -0.293 OA
ENDBRANCH   4  20
BRANCH   1  22
HETATM   22  N1  UNL     1      20.079  -1.537  54.291  1.00  0.00    -0.377 N 
HETATM   23  H1  UNL     1      19.096  -1.176  54.113  1.00  0.00     0.157 HD
HETATM   24  H2  UNL     1      20.947  -2.025  54.596  1.00  0.00     0.157 HD
ENDBRANCH   1  22
TORSDOF 4
ENDMDL
MODEL 4
REMARK VINA RESULT:      -7.1      3.315      6.013
REMARK  4 active torsions:
REMARK  status: ('A' for Active; 'I' for Inactive)
REMARK    1  A    between atoms: N1_1  and  C1_2 
REMARK    2  A    between atoms: S1_5  and  C3_7 
REMARK    3  A    between atoms: C6_11  and  N3_12 
REMARK    4  A    between atoms: N3_12  and  C7_13 
ROOT
HETATM    1  C1  UNL     1      26.269   2.528  51.248  1.00  0.00     0.263 A 
HETATM    2  N2  UNL     1      25.994   1.401  51.799  1.00  0.00     0.105 N 
HETATM    3  C2  UNL     1      26.953   0.310  51.855  1.00  0.00     0.384 C 
HETATM    4  S1  UNL     1      26.802  -0.580  53.397  1.00  0.00     0.049 S 
HETATM    5  O1  UNL     1      27.820  -1.670  53.357  1.00  0.00    -0.257 OA
HETATM    6  C4  UNL     1      25.333  -1.213  53.405  1.00  0.00     0.078 C 
HETATM    7  C5  UNL     1      24.404  -0.131  53.170  1.00  0.00     0.059 C 
HETATM    8  C6  UNL     1      23.638   0.896  52.907  1.00  0.00     0.134 C 
HETATM    9  N4  UNL     1      24.843   1.301  52.283  1.00  0.00    -0.142 N 
HETATM   10  C13 UNL     1      24.893   2.513  51.786  1.00  0.00     0.431 A 
ENDROOT
BRANCH   8  11
HETATM   11  N3  UNL     1      22.439   1.650  52.925  1.00  0.00    -0.341 N 
HETATM   12  H8  UNL     1      22.618   2.669  53.039  1.00  0.00     0.167 HD
BRANCH  11  13
HETATM   13  C7  UNL     1      21.211   0.949  52.792  1.00  0.00     0.034 A 
HETATM   14  C8  UNL     1      20.884   0.056  53.791  1.00  0.00     0.029 A 
HETATM   15  C9  UNL     1      19.681  -0.655  53.686  1.00  0.00     0.004 A 
HETATM   16  C10 UNL     1      18.838  -0.467  52.607  1.00  0.00     0.019 A 
HETATM   17  C11 UNL     1      19.206   0.436  51.633  1.00  0.00     0.013 A 
HETATM   18 BR1  UNL     1      18.140   0.809  50.070  1.00  0.00    -0.051 Br
HETATM   19  C12 UNL     1      20.387   1.154  51.706  1.00  0.00     0.048 A 
ENDBRANCH  11  13
ENDBRANCH   8  11
BRANCH   4  20
HETATM   20  C3  UNL     1      27.086   0.457  54.761  1.00  0.00     0.329 C 
HETATM   21  O2  UNL     1      28.093   1.115  54.948  1.00  0.00    -0.293 OA
ENDBRANCH   4  20
BRANCH   1  22
HETATM   22  N1  UNL     1      26.785   3.675  50.593  1.00  0.00    -0.377 N 
HETATM   23  H1  UNL     1      27.836   3.546  50.501  1.00  0.00     0.157 HD
HETATM   24  H2  UNL     1      25.790   3.985  50.588  1.00  0.00     0.157 HD
ENDBRANCH   1  22
TORSDOF 4
ENDMDL
MODEL 5
REMARK VINA RESULT:      -6.9      2.202      2.499
REMARK  4 active torsions:
REMARK  status: ('A' for Active; 'I' for Inactive)
REMARK    1  A    between atoms: N1_1  and  C1_2 
REMARK    2  A    between atoms: S1_5  and  C3_7 
REMARK    3  A    between atoms: C6_11  and  N3_12 
REMARK    4  A    between atoms: N3_12  and  C7_13 
ROOT
HETATM    1  C1  UNL     1      23.364   2.861  52.280  1.00  0.00     0.263 A 
HETATM    2  N2  UNL     1      24.614   2.697  52.524  1.00  0.00     0.105 N 
HETATM    3  C2  UNL     1      25.111   2.391  53.856  1.00  0.00     0.384 C 
HETATM    4  S1  UNL     1      26.496   1.265  53.765  1.00  0.00     0.049 S 
HETATM    5  O1  UNL     1      26.930   1.016  55.170  1.00  0.00    -0.257 OA
HETATM    6  C4  UNL     1      27.650   2.040  52.972  1.00  0.00     0.078 C 
HETATM    7  C5  UNL     1      27.078   2.490  51.724  1.00  0.00     0.059 C 
HETATM    8  C6  UNL     1      26.470   2.898  50.640  1.00  0.00     0.134 C 
HETATM    9  N4  UNL     1      25.380   2.821  51.540  1.00  0.00    -0.142 N 
HETATM   10  C13 UNL     1      24.178   3.027  51.059  1.00  0.00     0.431 A 
ENDROOT
BRANCH   8  11
HETATM   11  N3  UNL     1      26.379   3.307  49.287  1.00  0.00    -0.341 N 
HETATM   12  H8  UNL     1      25.987   2.560  48.678  1.00  0.00     0.167 HD
BRANCH  11  13
HETATM   13  C7  UNL     1      26.816   4.618  48.958  1.00  0.00     0.034 A 
HETATM   14  C8  UNL     1      25.881   5.630  49.032  1.00  0.00     0.029 A 
HETATM   15  C9  UNL     1      26.280   6.934  48.709  1.00  0.00     0.004 A 
HETATM   16  C10 UNL     1      27.580   7.204  48.323  1.00  0.00     0.019 A 
HETATM   17  C11 UNL     1      28.479   6.160  48.264  1.00  0.00     0.013 A 
HETATM   18 BR1  UNL     1      30.324   6.375  47.746  1.00  0.00    -0.051 Br
HETATM   19  C12 UNL     1      28.118   4.861  48.577  1.00  0.00     0.048 A 
ENDBRANCH  11  13
ENDBRANCH   8  11
BRANCH   4  20
HETATM   20  C3  UNL     1      26.053  -0.229  52.999  1.00  0.00     0.329 C 
HETATM   21  O2  UNL     1      24.943  -0.730  53.020  1.00  0.00    -0.293 OA
ENDBRANCH   4  20
BRANCH   1  22
HETATM   22  N1  UNL     1      21.954   3.002  52.244  1.00  0.00    -0.377 N 
HETATM   23  H1  UNL     1      21.717   3.964  52.628  1.00  0.00     0.157 HD
HETATM   24  H2  UNL     1      21.977   2.039  51.847  1.00  0.00     0.157 HD
ENDBRANCH   1  22
TORSDOF 4
ENDMDL
MODEL 6
REMARK VINA RESULT:      -6.8      4.624      6.319
REMARK  4 active torsions:
REMARK  status: ('A' for Active; 'I' for Inactive)
REMARK    1  A    between atoms: N1_1  and  C1_2 
REMARK    2  A    between atoms: S1_5  and  C3_7 
REMARK    3  A    between atoms: C6_11  and  N3_12 
REMARK    4  A    between atoms: N3_12  and  C7_13 
ROOT
HETATM    1  C1  UNL     1      22.460   4.890  51.853  1.00  0.00     0.263 A 
HETATM    2  N2  UNL     1      22.467   3.637  52.137  1.00  0.00     0.105 N 
HETATM    3  C2  UNL     1      21.242   2.880  52.337  1.00  0.00     0.384 C 
HETATM    4  S1  UNL     1      21.416   1.223  51.693  1.00  0.00     0.049 S 
HETATM    5  O1  UNL     1      20.117   0.533  51.945  1.00  0.00    -0.257 OA
HETATM    6  C4  UNL     1      22.573   0.528  52.552  1.00  0.00     0.078 C 
HETATM    7  C5  UNL     1      23.729   1.391  52.483  1.00  0.00     0.059 C 
HETATM    8  C6  UNL     1      24.713   2.251  52.405  1.00  0.00     0.134 C 
HETATM    9  N4  UNL     1      23.599   3.109  52.233  1.00  0.00    -0.142 N 
HETATM   10  C13 UNL     1      23.838   4.365  51.943  1.00  0.00     0.431 A 
ENDROOT
BRANCH   8  11
HETATM   11  N3  UNL     1      26.065   2.668  52.415  1.00  0.00    -0.341 N 
HETATM   12  H8  UNL     1      26.176   3.647  52.080  1.00  0.00     0.167 HD
BRANCH  11  13
HETATM   13  C7  UNL     1      27.045   1.739  52.858  1.00  0.00     0.034 A 
HETATM   14  C8  UNL     1      28.139   2.248  53.526  1.00  0.00     0.029 A 
HETATM   15  C9  UNL     1      29.125   1.357  53.972  1.00  0.00     0.004 A 
HETATM   16  C10 UNL     1      29.006  -0.002  53.749  1.00  0.00     0.019 A 
HETATM   17  C11 UNL     1      27.895  -0.464  53.077  1.00  0.00     0.013 A 
HETATM   18 BR1  UNL     1      27.586  -2.328  52.690  1.00  0.00    -0.051 Br
HETATM   19  C12 UNL     1      26.903   0.388  52.623  1.00  0.00     0.048 A 
ENDBRANCH  11  13
ENDBRANCH   8  11
BRANCH   4  20
HETATM   20  C3  UNL     1      21.769   1.235  49.992  1.00  0.00     0.329 C 
HETATM   21  O2  UNL     1      21.572   2.171  49.238  1.00  0.00    -0.293 OA
ENDBRANCH   4  20
BRANCH   1  22
HETATM   22  N1  UNL     1      22.215   6.253  51.552  1.00  0.00    -0.377 N 
HETATM   23  H1  UNL     1      21.796   6.295  50.576  1.00  0.00     0.157 HD
HETATM   24  H2  UNL     1      22.606   6.420  52.502  1.00  0.00     0.157 HD
ENDBRANCH   1  22
TORSDOF 4
ENDMDL
MODEL 7
REMARK VINA RESULT:      -6.8      5.298      7.390
REMARK  4 active torsions:
REMARK  status: ('A' for Active; 'I' for Inactive)
REMARK    1  A    between atoms: N1_1  and  C1_2 
REMARK    2  A    between atoms: S1_5  and  C3_7 
REMARK    3  A    between atoms: C6_11  and  N3_12 
REMARK    4  A    between atoms: N3_12  and  C7_13 
ROOT
HETATM    1  C1  UNL     1      18.525  -0.920  53.024  1.00  0.00     0.263 A 
HETATM    2  N2  UNL     1      19.094  -0.211  52.116  1.00  0.00     0.105 N 
HETATM    3  C2  UNL     1      18.426   0.138  50.873  1.00  0.00     0.384 C 
HETATM    4  S1  UNL     1      18.879   1.788  50.359  1.00  0.00     0.049 S 
HETATM    5  O1  UNL     1      18.148   2.048  49.084  1.00  0.00    -0.257 OA
HETATM    6  C4  UNL     1      20.454   1.753  50.081  1.00  0.00     0.078 C 
HETATM    7  C5  UNL     1      21.083   1.233  51.274  1.00  0.00     0.059 C 
HETATM    8  C6  UNL     1      21.566   0.714  52.373  1.00  0.00     0.134 C 
HETATM    9  N4  UNL     1      20.264   0.159  52.370  1.00  0.00    -0.142 N 
HETATM   10  C13 UNL     1      19.896  -0.536  53.419  1.00  0.00     0.431 A 
ENDROOT
BRANCH   8  11
HETATM   11  N3  UNL     1      22.550   0.472  53.362  1.00  0.00    -0.341 N 
HETATM   12  H8  UNL     1      22.133   0.342  54.307  1.00  0.00     0.167 HD
BRANCH  11  13
HETATM   13  C7  UNL     1      23.910   0.440  52.953  1.00  0.00     0.034 A 
HETATM   14  C8  UNL     1      24.673  -0.625  53.385  1.00  0.00     0.029 A 
HETATM   15  C9  UNL     1      26.020  -0.682  53.002  1.00  0.00     0.004 A 
HETATM   16  C10 UNL     1      26.575   0.305  52.209  1.00  0.00     0.019 A 
HETATM   17  C11 UNL     1      25.774   1.350  51.802  1.00  0.00     0.013 A 
HETATM   18 BR1  UNL     1      26.399   2.801  50.696  1.00  0.00    -0.051 Br
HETATM   19  C12 UNL     1      24.440   1.437  52.162  1.00  0.00     0.048 A 
ENDBRANCH  11  13
ENDBRANCH   8  11
BRANCH   4  20
HETATM   20  C3  UNL     1      18.442   2.970  51.554  1.00  0.00     0.329 C 
HETATM   21  O2  UNL     1      19.226   3.610  52.231  1.00  0.00    -0.293 OA
ENDBRANCH   4  20
BRANCH   1  22
HETATM   22  N1  UNL     1      17.713  -1.709  53.876  1.00  0.00    -0.377 N 
HETATM   23  H1  UNL     1      17.620  -1.191  54.800  1.00  0.00     0.157 HD
HETATM   24  H2  UNL     1      17.683  -2.361  53.064  1.00  0.00     0.157 HD
ENDBRANCH   1  22
TORSDOF 4
ENDMDL
MODEL 8
REMARK VINA RESULT:      -6.5      2.521      2.930
REMARK  4 active torsions:
REMARK  status: ('A' for Active; 'I' for Inactive)
REMARK    1  A    between atoms: N1_1  and  C1_2 
REMARK    2  A    between atoms: S1_5  and  C3_7 
REMARK    3  A    between atoms: C6_11  and  N3_12 
REMARK    4  A    between atoms: N3_12  and  C7_13 
ROOT
HETATM    1  C1  UNL     1      22.996  -0.688  53.789  1.00  0.00     0.263 A 
HETATM    2  N2  UNL     1      24.082  -0.020  53.942  1.00  0.00     0.105 N 
HETATM    3  C2  UNL     1      25.258  -0.588  54.581  1.00  0.00     0.384 C 
HETATM    4  S1  UNL     1      26.748   0.007  53.794  1.00  0.00     0.049 S 
HETATM    5  O1  UNL     1      27.889  -0.628  54.516  1.00  0.00    -0.257 OA
HETATM    6  C4  UNL     1      26.775   1.590  54.025  1.00  0.00     0.078 C 
HETATM    7  C5  UNL     1      25.516   2.110  53.542  1.00  0.00     0.059 C 
HETATM    8  C6  UNL     1      24.336   2.490  53.124  1.00  0.00     0.134 C 
HETATM    9  N4  UNL     1      24.062   1.155  53.508  1.00  0.00    -0.142 N 
HETATM   10  C13 UNL     1      22.869   0.679  53.245  1.00  0.00     0.431 A 
ENDROOT
BRANCH   8  11
HETATM   11  N3  UNL     1      23.385   3.395  52.594  1.00  0.00    -0.341 N 
HETATM   12  H8  UNL     1      22.689   3.695  53.307  1.00  0.00     0.167 HD
BRANCH  11  13
HETATM   13  C7  UNL     1      23.502   3.755  51.224  1.00  0.00     0.034 A 
HETATM   14  C8  UNL     1      24.154   4.936  50.938  1.00  0.00     0.029 A 
HETATM   15  C9  UNL     1      24.281   5.322  49.596  1.00  0.00     0.004 A 
HETATM   16  C10 UNL     1      23.765   4.538  48.581  1.00  0.00     0.019 A 
HETATM   17  C11 UNL     1      23.121   3.367  48.916  1.00  0.00     0.013 A 
HETATM   18 BR1  UNL     1      22.350   2.168  47.617  1.00  0.00    -0.051 Br
HETATM   19  C12 UNL     1      22.978   2.957  50.230  1.00  0.00     0.048 A 
ENDBRANCH  11  13
ENDBRANCH   8  11
BRANCH   4  20
HETATM   20  C3  UNL     1      26.792  -0.419  52.110  1.00  0.00     0.329 C 
HETATM   21  O2  UNL     1      26.731  -1.552  51.668  1.00  0.00    -0.293 OA
ENDBRANCH   4  20
BRANCH   1  22
HETATM   22  N1  UNL     1      21.914  -1.602  53.728  1.00  0.00    -0.377 N 
HETATM   23  H1  UNL     1      21.108  -1.114  53.237  1.00  0.00     0.157 HD
HETATM   24  H2  UNL     1      22.570  -2.243  54.223  1.00  0.00     0.157 HD
ENDBRANCH   1  22
TORSDOF 4
ENDMDL
MODEL 9
REMARK VINA RESULT:      -6.4      3.508      4.475
REMARK  4 active torsions:
REMARK  status: ('A' for Active; 'I' for Inactive)
REMARK    1  A    between atoms: N1_1  and  C1_2 
REMARK    2  A    between atoms: S1_5  and  C3_7 
REMARK    3  A    between atoms: C6_11  and  N3_12 
REMARK    4  A    between atoms: N3_12  and  C7_13 
ROOT
HETATM    1  C1  UNL     1      25.865   1.964  53.334  1.00  0.00     0.263 A 
HETATM    2  N2  UNL     1      24.952   2.184  52.458  1.00  0.00     0.105 N 
HETATM    3  C2  UNL     1      23.545   1.926  52.722  1.00  0.00     0.384 C 
HETATM    4  S1  UNL     1      22.523   3.162  51.936  1.00  0.00     0.049 S 
HETATM    5  O1  UNL     1      21.110   2.811  52.264  1.00  0.00    -0.257 OA
HETATM    6  C4  UNL     1      22.766   3.008  50.362  1.00  0.00     0.078 C 
HETATM    7  C5  UNL     1      24.192   3.091  50.144  1.00  0.00     0.059 C 
HETATM    8  C6  UNL     1      25.496   3.131  50.041  1.00  0.00     0.134 C 
HETATM    9  N4  UNL     1      25.351   2.632  51.358  1.00  0.00    -0.142 N 
HETATM   10  C13 UNL     1      26.438   2.490  52.077  1.00  0.00     0.431 A 
ENDROOT
BRANCH   8  11
HETATM   11  N3  UNL     1      26.732   3.369  49.393  1.00  0.00    -0.341 N 
HETATM   12  H8  UNL     1      27.319   2.511  49.342  1.00  0.00     0.167 HD
BRANCH  11  13
HETATM   13  C7  UNL     1      26.994   4.683  48.922  1.00  0.00     0.034 A 
HETATM   14  C8  UNL     1      25.933   5.565  48.894  1.00  0.00     0.029 A 
HETATM   15  C9  UNL     1      26.158   6.868  48.430  1.00  0.00     0.004 A 
HETATM   16  C10 UNL     1      27.414   7.264  48.009  1.00  0.00     0.019 A 
HETATM   17  C11 UNL     1      28.443   6.349  48.056  1.00  0.00     0.013 A 
HETATM   18 BR1  UNL     1      30.248   6.748  47.505  1.00  0.00    -0.051 Br
HETATM   19  C12 UNL     1      28.255   5.054  48.509  1.00  0.00     0.048 A 
ENDBRANCH  11  13
ENDBRANCH   8  11
BRANCH   4  20
HETATM   20  C3  UNL     1      22.895   4.757  52.513  1.00  0.00     0.329 C 
HETATM   21  O2  UNL     1      23.618   5.559  51.950  1.00  0.00    -0.293 OA
ENDBRANCH   4  20
BRANCH   1  22
HETATM   22  N1  UNL     1      26.694   1.648  54.439  1.00  0.00    -0.377 N 
HETATM   23  H1  UNL     1      27.638   2.108  54.274  1.00  0.00     0.157 HD
HETATM   24  H2  UNL     1      25.858   1.128  54.778  1.00  0.00     0.157 HD
ENDBRANCH   1  22
TORSDOF 4
ENDMDL
