MODEL 1
REMARK VINA RESULT:      -8.2      0.000      0.000
REMARK  7 active torsions:
REMARK  status: ('A' for Active; 'I' for Inactive)
REMARK    1  A    between atoms: C2_2  and  C3_3 
REMARK    2  A    between atoms: C5_5  and  N1_6 
REMARK    3  A    between atoms: N1_6  and  C6_7 
REMARK    4  A    between atoms: C9_10  and  O1_11 
REMARK    5  A    between atoms: O1_11  and  C10_12 
REMARK    6  A    between atoms: C10_12  and  C11_13 
REMARK    7  A    between atoms: C11_13  and  C12_14 
ROOT
HETATM    1  C6  UNL     1      25.192   3.018  51.447  1.00  0.00     0.035 A 
HETATM    2  C7  UNL     1      24.289   3.282  52.452  1.00  0.00     0.032 A 
HETATM    3  C8  UNL     1      22.916   3.305  52.334  1.00  0.00     0.041 A 
HETATM    4  C9  UNL     1      22.383   3.039  51.091  1.00  0.00     0.090 A 
HETATM    5  C18 UNL     1      23.234   2.767  50.043  1.00  0.00     0.069 A 
HETATM    6 CL1  UNL     1      22.570   2.429  48.459  1.00  0.00    -0.081 Cl
HETATM    7  C19 UNL     1      24.593   2.764  50.241  1.00  0.00     0.056 A 
ENDROOT
BRANCH   1   8
HETATM    8  N1  UNL     1      26.592   2.998  51.583  1.00  0.00    -0.341 N 
HETATM    9  H7  UNL     1      27.108   3.723  51.015  1.00  0.00     0.167 HD
BRANCH   8  10
HETATM   10  C5  UNL     1      27.380   2.132  52.382  1.00  0.00     0.131 A 
HETATM   11  C4  UNL     1      27.129   0.757  52.311  1.00  0.00     0.077 A 
HETATM   12  C3  UNL     1      27.821  -0.184  53.034  1.00  0.00     0.039 A 
HETATM   13  N3  UNL     1      28.797   0.254  53.857  1.00  0.00    -0.246 NA
HETATM   14  C20 UNL     1      29.029   1.576  53.918  1.00  0.00     0.235 A 
HETATM   15  N2  UNL     1      28.354   2.483  53.214  1.00  0.00    -0.224 NA
BRANCH  12  16
HETATM   16  C2  UNL     1      27.508  -1.629  52.914  1.00  0.00     0.055 C 
HETATM   17  C1  UNL     1      28.806  -2.428  53.082  1.00  0.00     0.011 C 
ENDBRANCH  12  16
ENDBRANCH   8  10
ENDBRANCH   1   8
BRANCH   4  18
HETATM   18  O1  UNL     1      21.006   3.050  50.918  1.00  0.00    -0.349 OA
BRANCH  18  19
HETATM   19  C10 UNL     1      20.176   2.187  51.668  1.00  0.00     0.180 C 
BRANCH  19  20
HETATM   20  C11 UNL     1      20.425   0.731  51.328  1.00  0.00     0.065 C 
BRANCH  20  21
HETATM   21  C12 UNL     1      20.979   0.011  52.489  1.00  0.00    -0.053 A 
HETATM   22  C13 UNL     1      20.278  -0.521  53.537  1.00  0.00     0.007 A 
HETATM   23  C14 UNL     1      20.916  -1.183  54.582  1.00  0.00     0.003 A 
HETATM   24  C15 UNL     1      22.309  -1.313  54.574  1.00  0.00     0.042 A 
HETATM   25  C16 UNL     1      23.047  -0.777  53.512  1.00  0.00     0.116 A 
HETATM   26  F1  UNL     1      24.390  -0.892  53.487  1.00  0.00    -0.206 F 
HETATM   27  C17 UNL     1      22.371  -0.129  52.497  1.00  0.00     0.049 A 
ENDBRANCH  20  21
ENDBRANCH  19  20
ENDBRANCH  18  19
ENDBRANCH   4  18
TORSDOF 7
ENDMDL
MODEL 2
REMARK VINA RESULT:      -7.8      3.271      6.104
REMARK  7 active torsions:
REMARK  status: ('A' for Active; 'I' for Inactive)
REMARK    1  A    between atoms: C2_2  and  C3_3 
REMARK    2  A    between atoms: C5_5  and  N1_6 
REMARK    3  A    between atoms: N1_6  and  C6_7 
REMARK    4  A    between atoms: C9_10  and  O1_11 
REMARK    5  A    between atoms: O1_11  and  C10_12 
REMARK    6  A    between atoms: C10_12  and  C11_13 
REMARK    7  A    between atoms: C11_13  and  C12_14 
ROOT
HETATM    1  C6  UNL     1      23.197   4.090  51.680  1.00  0.00     0.035 A 
HETATM    2  C7  UNL     1      24.102   3.760  52.665  1.00  0.00     0.032 A 
HETATM    3  C8  UNL     1      24.312   2.507  53.198  1.00  0.00     0.041 A 
HETATM    4  C9  UNL     1      23.546   1.472  52.705  1.00  0.00     0.090 A 
HETATM    5  C18 UNL     1      22.622   1.736  51.718  1.00  0.00     0.069 A 
HETATM    6 CL1  UNL     1      21.642   0.432  51.084  1.00  0.00    -0.081 Cl
HETATM    7  C19 UNL     1      22.471   3.015  51.238  1.00  0.00     0.056 A 
ENDROOT
BRANCH   1   8
HETATM    8  N1  UNL     1      22.994   5.374  51.145  1.00  0.00    -0.341 N 
HETATM    9  H7  UNL     1      21.985   5.681  51.087  1.00  0.00     0.167 HD
BRANCH   8  10
HETATM   10  C5  UNL     1      23.970   6.292  50.682  1.00  0.00     0.131 A 
HETATM   11  C4  UNL     1      25.010   5.803  49.884  1.00  0.00     0.077 A 
HETATM   12  C3  UNL     1      26.015   6.589  49.374  1.00  0.00     0.039 A 
HETATM   13  N3  UNL     1      25.989   7.906  49.667  1.00  0.00    -0.246 NA
HETATM   14  C20 UNL     1      24.986   8.364  50.435  1.00  0.00     0.235 A 
HETATM   15  N2  UNL     1      24.014   7.597  50.925  1.00  0.00    -0.224 NA
BRANCH  12  16
HETATM   16  C2  UNL     1      27.092   6.011  48.532  1.00  0.00     0.055 C 
HETATM   17  C1  UNL     1      27.262   4.533  48.900  1.00  0.00     0.011 C 
ENDBRANCH  12  16
ENDBRANCH   8  10
ENDBRANCH   1   8
BRANCH   4  18
HETATM   18  O1  UNL     1      23.717   0.191  53.208  1.00  0.00    -0.349 OA
BRANCH  18  19
HETATM   19  C10 UNL     1      24.899  -0.164  53.895  1.00  0.00     0.180 C 
BRANCH  19  20
HETATM   20  C11 UNL     1      25.842  -0.964  53.017  1.00  0.00     0.065 C 
BRANCH  20  21
HETATM   21  C12 UNL     1      27.239  -0.539  53.230  1.00  0.00    -0.053 A 
HETATM   22  C13 UNL     1      28.350  -1.336  53.215  1.00  0.00     0.007 A 
HETATM   23  C14 UNL     1      29.625  -0.818  53.430  1.00  0.00     0.003 A 
HETATM   24  C15 UNL     1      29.785   0.552  53.669  1.00  0.00     0.042 A 
HETATM   25  C16 UNL     1      28.662   1.386  53.686  1.00  0.00     0.116 A 
HETATM   26  F1  UNL     1      28.797   2.709  53.915  1.00  0.00    -0.206 F 
HETATM   27  C17 UNL     1      27.418   0.828  53.469  1.00  0.00     0.049 A 
ENDBRANCH  20  21
ENDBRANCH  19  20
ENDBRANCH  18  19
ENDBRANCH   4  18
TORSDOF 7
ENDMDL
MODEL 3
REMARK VINA RESULT:      -7.7      1.303      1.618
REMARK  7 active torsions:
REMARK  status: ('A' for Active; 'I' for Inactive)
REMARK    1  A    between atoms: C2_2  and  C3_3 
REMARK    2  A    between atoms: C5_5  and  N1_6 
REMARK    3  A    between atoms: N1_6  and  C6_7 
REMARK    4  A    between atoms: C9_10  and  O1_11 
REMARK    5  A    between atoms: O1_11  and  C10_12 
REMARK    6  A    between atoms: C10_12  and  C11_13 
REMARK    7  A    between atoms: C11_13  and  C12_14 
ROOT
HETATM    1  C6  UNL     1      24.466   3.114  51.870  1.00  0.00     0.035 A 
HETATM    2  C7  UNL     1      23.321   3.553  52.496  1.00  0.00     0.032 A 
HETATM    3  C8  UNL     1      22.071   3.668  51.929  1.00  0.00     0.041 A 
HETATM    4  C9  UNL     1      21.940   3.310  50.604  1.00  0.00     0.090 A 
HETATM    5  C18 UNL     1      23.049   2.861  49.921  1.00  0.00     0.069 A 
HETATM    6 CL1  UNL     1      22.897   2.404  48.238  1.00  0.00    -0.081 Cl
HETATM    7  C19 UNL     1      24.264   2.776  50.558  1.00  0.00     0.056 A 
ENDROOT
BRANCH   1   8
HETATM    8  N1  UNL     1      25.737   3.002  52.462  1.00  0.00    -0.341 N 
HETATM    9  H7  UNL     1      26.365   3.841  52.336  1.00  0.00     0.167 HD
BRANCH   8  10
HETATM   10  C5  UNL     1      26.265   1.911  53.197  1.00  0.00     0.131 A 
HETATM   11  C4  UNL     1      27.629   1.628  53.069  1.00  0.00     0.077 A 
HETATM   12  C3  UNL     1      28.261   0.600  53.727  1.00  0.00     0.039 A 
HETATM   13  N3  UNL     1      27.513  -0.174  54.540  1.00  0.00    -0.246 NA
HETATM   14  C20 UNL     1      26.204   0.107  54.656  1.00  0.00     0.235 A 
HETATM   15  N2  UNL     1      25.598   1.105  54.016  1.00  0.00    -0.224 NA
BRANCH  12  16
HETATM   16  C2  UNL     1      29.712   0.350  53.550  1.00  0.00     0.055 C 
HETATM   17  C1  UNL     1      29.968  -1.157  53.664  1.00  0.00     0.011 C 
ENDBRANCH  12  16
ENDBRANCH   8  10
ENDBRANCH   1   8
BRANCH   4  18
HETATM   18  O1  UNL     1      20.702   3.407  49.985  1.00  0.00    -0.349 OA
BRANCH  18  19
HETATM   19  C10 UNL     1      19.644   2.543  50.347  1.00  0.00     0.180 C 
BRANCH  19  20
HETATM   20  C11 UNL     1      19.999   1.088  50.112  1.00  0.00     0.065 C 
BRANCH  20  21
HETATM   21  C12 UNL     1      20.150   0.375  51.394  1.00  0.00    -0.053 A 
HETATM   22  C13 UNL     1      19.147  -0.028  52.233  1.00  0.00     0.007 A 
HETATM   23  C14 UNL     1      19.413  -0.698  53.424  1.00  0.00     0.003 A 
HETATM   24  C15 UNL     1      20.738  -0.972  53.784  1.00  0.00     0.042 A 
HETATM   25  C16 UNL     1      21.780  -0.571  52.941  1.00  0.00     0.116 A 
HETATM   26  F1  UNL     1      23.063  -0.826  53.270  1.00  0.00    -0.206 F 
HETATM   27  C17 UNL     1      21.467   0.092  51.770  1.00  0.00     0.049 A 
ENDBRANCH  20  21
ENDBRANCH  19  20
ENDBRANCH  18  19
ENDBRANCH   4  18
TORSDOF 7
ENDMDL
MODEL 4
REMARK VINA RESULT:      -7.7      2.508      4.767
REMARK  7 active torsions:
REMARK  status: ('A' for Active; 'I' for Inactive)
REMARK    1  A    between atoms: C2_2  and  C3_3 
REMARK    2  A    between atoms: C5_5  and  N1_6 
REMARK    3  A    between atoms: N1_6  and  C6_7 
REMARK    4  A    between atoms: C9_10  and  O1_11 
REMARK    5  A    between atoms: O1_11  and  C10_12 
REMARK    6  A    between atoms: C10_12  and  C11_13 
REMARK    7  A    between atoms: C11_13  and  C12_14 
ROOT
HETATM    1  C6  UNL     1      24.434   1.614  53.075  1.00  0.00     0.035 A 
HETATM    2  C7  UNL     1      24.225   2.973  53.148  1.00  0.00     0.032 A 
HETATM    3  C8  UNL     1      23.274   3.694  52.460  1.00  0.00     0.041 A 
HETATM    4  C9  UNL     1      22.441   2.996  51.611  1.00  0.00     0.090 A 
HETATM    5  C18 UNL     1      22.598   1.633  51.493  1.00  0.00     0.069 A 
HETATM    6 CL1  UNL     1      21.548   0.735  50.418  1.00  0.00    -0.081 Cl
HETATM    7  C19 UNL     1      23.573   0.985  52.214  1.00  0.00     0.056 A 
ENDROOT
BRANCH   1   8
HETATM    8  N1  UNL     1      25.410   0.891  53.783  1.00  0.00    -0.341 N 
HETATM    9  H7  UNL     1      25.040   0.096  54.371  1.00  0.00     0.167 HD
BRANCH   8  10
HETATM   10  C5  UNL     1      26.812   1.101  53.800  1.00  0.00     0.131 A 
HETATM   11  C4  UNL     1      27.648  -0.021  53.775  1.00  0.00     0.077 A 
HETATM   12  C3  UNL     1      29.020   0.049  53.789  1.00  0.00     0.039 A 
HETATM   13  N3  UNL     1      29.583   1.275  53.829  1.00  0.00    -0.246 NA
HETATM   14  C20 UNL     1      28.771   2.345  53.853  1.00  0.00     0.235 A 
HETATM   15  N2  UNL     1      27.442   2.270  53.839  1.00  0.00    -0.224 NA
BRANCH  12  16
HETATM   16  C2  UNL     1      29.853  -1.179  53.760  1.00  0.00     0.055 C 
HETATM   17  C1  UNL     1      29.037  -2.310  53.124  1.00  0.00     0.011 C 
ENDBRANCH  12  16
ENDBRANCH   8  10
ENDBRANCH   1   8
BRANCH   4  18
HETATM   18  O1  UNL     1      21.465   3.674  50.895  1.00  0.00    -0.349 OA
BRANCH  18  19
HETATM   19  C10 UNL     1      21.814   4.716  50.006  1.00  0.00     0.180 C 
BRANCH  19  20
HETATM   20  C11 UNL     1      22.647   4.211  48.845  1.00  0.00     0.065 C 
BRANCH  20  21
HETATM   21  C12 UNL     1      23.949   4.901  48.797  1.00  0.00    -0.053 A 
HETATM   22  C13 UNL     1      24.180   6.191  48.403  1.00  0.00     0.007 A 
HETATM   23  C14 UNL     1      25.461   6.736  48.400  1.00  0.00     0.003 A 
HETATM   24  C15 UNL     1      26.549   5.954  48.808  1.00  0.00     0.042 A 
HETATM   25  C16 UNL     1      26.335   4.633  49.216  1.00  0.00     0.116 A 
HETATM   26  F1  UNL     1      27.370   3.864  49.612  1.00  0.00    -0.206 F 
HETATM   27  C17 UNL     1      25.047   4.135  49.201  1.00  0.00     0.049 A 
ENDBRANCH  20  21
ENDBRANCH  19  20
ENDBRANCH  18  19
ENDBRANCH   4  18
TORSDOF 7
ENDMDL
MODEL 5
REMARK VINA RESULT:      -7.7      4.630      6.156
REMARK  7 active torsions:
REMARK  status: ('A' for Active; 'I' for Inactive)
REMARK    1  A    between atoms: C2_2  and  C3_3 
REMARK    2  A    between atoms: C5_5  and  N1_6 
REMARK    3  A    between atoms: N1_6  and  C6_7 
REMARK    4  A    between atoms: C9_10  and  O1_11 
REMARK    5  A    between atoms: O1_11  and  C10_12 
REMARK    6  A    between atoms: C10_12  and  C11_13 
REMARK    7  A    between atoms: C11_13  and  C12_14 
ROOT
HETATM    1  C6  UNL     1      27.235   5.633  48.675  1.00  0.00     0.035 A 
HETATM    2  C7  UNL     1      27.257   4.274  48.895  1.00  0.00     0.032 A 
HETATM    3  C8  UNL     1      26.322   3.542  49.594  1.00  0.00     0.041 A 
HETATM    4  C9  UNL     1      25.253   4.228  50.131  1.00  0.00     0.090 A 
HETATM    5  C18 UNL     1      25.172   5.591  49.946  1.00  0.00     0.069 A 
HETATM    6 CL1  UNL     1      23.821   6.474  50.624  1.00  0.00    -0.081 Cl
HETATM    7  C19 UNL     1      26.147   6.250  49.236  1.00  0.00     0.056 A 
ENDROOT
BRANCH   1   8
HETATM    8  N1  UNL     1      28.197   6.367  47.959  1.00  0.00    -0.341 N 
HETATM    9  H7  UNL     1      27.839   6.846  47.089  1.00  0.00     0.167 HD
BRANCH   8  10
HETATM   10  C5  UNL     1      29.571   6.537  48.264  1.00  0.00     0.131 A 
HETATM   11  C4  UNL     1      30.459   5.518  47.902  1.00  0.00     0.077 A 
HETATM   12  C3  UNL     1      31.811   5.563  48.141  1.00  0.00     0.039 A 
HETATM   13  N3  UNL     1      32.300   6.656  48.762  1.00  0.00    -0.246 NA
HETATM   14  C20 UNL     1      31.438   7.629  49.105  1.00  0.00     0.235 A 
HETATM   15  N2  UNL     1      30.129   7.580  48.870  1.00  0.00    -0.224 NA
BRANCH  12  16
HETATM   16  C2  UNL     1      32.702   4.449  47.733  1.00  0.00     0.055 C 
HETATM   17  C1  UNL     1      31.949   3.559  46.737  1.00  0.00     0.011 C 
ENDBRANCH  12  16
ENDBRANCH   8  10
ENDBRANCH   1   8
BRANCH   4  18
HETATM   18  O1  UNL     1      24.283   3.539  50.845  1.00  0.00    -0.349 OA
BRANCH  18  19
HETATM   19  C10 UNL     1      24.533   3.095  52.162  1.00  0.00     0.180 C 
BRANCH  19  20
HETATM   20  C11 UNL     1      24.581   1.582  52.247  1.00  0.00     0.065 C 
BRANCH  20  21
HETATM   21  C12 UNL     1      25.936   1.122  52.604  1.00  0.00    -0.053 A 
HETATM   22  C13 UNL     1      26.396  -0.166  52.591  1.00  0.00     0.007 A 
HETATM   23  C14 UNL     1      27.704  -0.479  52.952  1.00  0.00     0.003 A 
HETATM   24  C15 UNL     1      28.580   0.541  53.340  1.00  0.00     0.042 A 
HETATM   25  C16 UNL     1      28.131   1.866  53.359  1.00  0.00     0.116 A 
HETATM   26  F1  UNL     1      28.960   2.863  53.730  1.00  0.00    -0.206 F 
HETATM   27  C17 UNL     1      26.825   2.129  52.994  1.00  0.00     0.049 A 
ENDBRANCH  20  21
ENDBRANCH  19  20
ENDBRANCH  18  19
ENDBRANCH   4  18
TORSDOF 7
ENDMDL
MODEL 6
REMARK VINA RESULT:      -7.3      4.692      5.528
REMARK  7 active torsions:
REMARK  status: ('A' for Active; 'I' for Inactive)
REMARK    1  A    between atoms: C2_2  and  C3_3 
REMARK    2  A    between atoms: C5_5  and  N1_6 
REMARK    3  A    between atoms: N1_6  and  C6_7 
REMARK    4  A    between atoms: C9_10  and  O1_11 
REMARK    5  A    between atoms: O1_11  and  C10_12 
REMARK    6  A    between atoms: C10_12  and  C11_13 
REMARK    7  A    between atoms: C11_13  and  C12_14 
ROOT
HETATM    1  C6  UNL     1      27.619   5.789  48.540  1.00  0.00     0.035 A 
HETATM    2  C7  UNL     1      27.330   4.487  48.882  1.00  0.00     0.032 A 
HETATM    3  C8  UNL     1      26.210   4.046  49.553  1.00  0.00     0.041 A 
HETATM    4  C9  UNL     1      25.279   4.993  49.924  1.00  0.00     0.090 A 
HETATM    5  C18 UNL     1      25.509   6.314  49.610  1.00  0.00     0.069 A 
HETATM    6 CL1  UNL     1      24.335   7.527  50.075  1.00  0.00    -0.081 Cl
HETATM    7  C19 UNL     1      26.652   6.675  48.938  1.00  0.00     0.056 A 
ENDROOT
BRANCH   1   8
HETATM    8  N1  UNL     1      28.766   6.225  47.854  1.00  0.00    -0.341 N 
HETATM    9  H7  UNL     1      28.582   6.851  47.024  1.00  0.00     0.167 HD
BRANCH   8  10
HETATM   10  C5  UNL     1      30.122   5.928  48.143  1.00  0.00     0.131 A 
HETATM   11  C4  UNL     1      30.731   4.878  47.446  1.00  0.00     0.077 A 
HETATM   12  C3  UNL     1      32.036   4.492  47.634  1.00  0.00     0.039 A 
HETATM   13  N3  UNL     1      32.763   5.171  48.546  1.00  0.00    -0.246 NA
HETATM   14  C20 UNL     1      32.168   6.177  49.209  1.00  0.00     0.235 A 
HETATM   15  N2  UNL     1      30.903   6.546  49.022  1.00  0.00    -0.224 NA
BRANCH  12  16
HETATM   16  C2  UNL     1      32.624   3.369  46.863  1.00  0.00     0.055 C 
HETATM   17  C1  UNL     1      33.697   2.693  47.724  1.00  0.00     0.011 C 
ENDBRANCH  12  16
ENDBRANCH   8  10
ENDBRANCH   1   8
BRANCH   4  18
HETATM   18  O1  UNL     1      24.133   4.601  50.601  1.00  0.00    -0.349 OA
BRANCH  18  19
HETATM   19  C10 UNL     1      24.206   3.687  51.675  1.00  0.00     0.180 C 
BRANCH  19  20
HETATM   20  C11 UNL     1      23.581   2.351  51.321  1.00  0.00     0.065 C 
BRANCH  20  21
HETATM   21  C12 UNL     1      24.165   1.270  52.135  1.00  0.00    -0.053 A 
HETATM   22  C13 UNL     1      23.518   0.497  53.061  1.00  0.00     0.007 A 
HETATM   23  C14 UNL     1      24.179  -0.500  53.772  1.00  0.00     0.003 A 
HETATM   24  C15 UNL     1      25.542  -0.728  53.544  1.00  0.00     0.042 A 
HETATM   25  C16 UNL     1      26.223   0.049  52.601  1.00  0.00     0.116 A 
HETATM   26  F1  UNL     1      27.536  -0.155  52.368  1.00  0.00    -0.206 F 
HETATM   27  C17 UNL     1      25.526   1.028  51.920  1.00  0.00     0.049 A 
ENDBRANCH  20  21
ENDBRANCH  19  20
ENDBRANCH  18  19
ENDBRANCH   4  18
TORSDOF 7
ENDMDL
MODEL 7
REMARK VINA RESULT:      -7.3      4.747      5.712
REMARK  7 active torsions:
REMARK  status: ('A' for Active; 'I' for Inactive)
REMARK    1  A    between atoms: C2_2  and  C3_3 
REMARK    2  A    between atoms: C5_5  and  N1_6 
REMARK    3  A    between atoms: N1_6  and  C6_7 
REMARK    4  A    between atoms: C9_10  and  O1_11 
REMARK    5  A    between atoms: O1_11  and  C10_12 
REMARK    6  A    between atoms: C10_12  and  C11_13 
REMARK    7  A    between atoms: C11_13  and  C12_14 
ROOT
HETATM    1  C6  UNL     1      27.718   6.129  48.208  1.00  0.00     0.035 A 
HETATM    2  C7  UNL     1      26.613   6.944  48.309  1.00  0.00     0.032 A 
HETATM    3  C8  UNL     1      25.405   6.619  48.887  1.00  0.00     0.041 A 
HETATM    4  C9  UNL     1      25.279   5.354  49.420  1.00  0.00     0.090 A 
HETATM    5  C18 UNL     1      26.349   4.489  49.351  1.00  0.00     0.069 A 
HETATM    6 CL1  UNL     1      26.201   2.880  50.023  1.00  0.00    -0.081 Cl
HETATM    7  C19 UNL     1      27.522   4.889  48.757  1.00  0.00     0.056 A 
ENDROOT
BRANCH   1   8
HETATM    8  N1  UNL     1      28.945   6.475  47.615  1.00  0.00    -0.341 N 
HETATM    9  H7  UNL     1      28.872   6.933  46.666  1.00  0.00     0.167 HD
BRANCH   8  10
HETATM   10  C5  UNL     1      30.251   6.285  48.134  1.00  0.00     0.131 A 
HETATM   11  C4  UNL     1      30.975   5.166  47.707  1.00  0.00     0.077 A 
HETATM   12  C3  UNL     1      32.246   4.871  48.135  1.00  0.00     0.039 A 
HETATM   13  N3  UNL     1      32.820   5.714  49.018  1.00  0.00    -0.246 NA
HETATM   14  C20 UNL     1      32.116   6.785  49.421  1.00  0.00     0.235 A 
HETATM   15  N2  UNL     1      30.884   7.066  49.002  1.00  0.00    -0.224 NA
BRANCH  12  16
HETATM   16  C2  UNL     1      32.963   3.667  47.645  1.00  0.00     0.055 C 
HETATM   17  C1  UNL     1      32.103   2.988  46.573  1.00  0.00     0.011 C 
ENDBRANCH  12  16
ENDBRANCH   8  10
ENDBRANCH   1   8
BRANCH   4  18
HETATM   18  O1  UNL     1      24.083   4.975  50.013  1.00  0.00    -0.349 OA
BRANCH  18  19
HETATM   19  C10 UNL     1      23.751   5.413  51.315  1.00  0.00     0.180 C 
BRANCH  19  20
HETATM   20  C11 UNL     1      22.685   4.541  51.948  1.00  0.00     0.065 C 
BRANCH  20  21
HETATM   21  C12 UNL     1      23.232   3.217  52.295  1.00  0.00    -0.053 A 
HETATM   22  C13 UNL     1      22.728   1.998  51.930  1.00  0.00     0.007 A 
HETATM   23  C14 UNL     1      23.335   0.808  52.321  1.00  0.00     0.003 A 
HETATM   24  C15 UNL     1      24.492   0.846  53.108  1.00  0.00     0.042 A 
HETATM   25  C16 UNL     1      25.027   2.081  53.492  1.00  0.00     0.116 A 
HETATM   26  F1  UNL     1      26.140   2.138  54.250  1.00  0.00    -0.206 F 
HETATM   27  C17 UNL     1      24.389   3.235  53.081  1.00  0.00     0.049 A 
ENDBRANCH  20  21
ENDBRANCH  19  20
ENDBRANCH  18  19
ENDBRANCH   4  18
TORSDOF 7
ENDMDL
MODEL 8
REMARK VINA RESULT:      -7.2      5.012      6.726
REMARK  7 active torsions:
REMARK  status: ('A' for Active; 'I' for Inactive)
REMARK    1  A    between atoms: C2_2  and  C3_3 
REMARK    2  A    between atoms: C5_5  and  N1_6 
REMARK    3  A    between atoms: N1_6  and  C6_7 
REMARK    4  A    between atoms: C9_10  and  O1_11 
REMARK    5  A    between atoms: O1_11  and  C10_12 
REMARK    6  A    between atoms: C10_12  and  C11_13 
REMARK    7  A    between atoms: C11_13  and  C12_14 
ROOT
HETATM    1  C6  UNL     1      27.168   5.609  48.586  1.00  0.00     0.035 A 
HETATM    2  C7  UNL     1      27.319   4.315  49.030  1.00  0.00     0.032 A 
HETATM    3  C8  UNL     1      26.372   3.557  49.683  1.00  0.00     0.041 A 
HETATM    4  C9  UNL     1      25.147   4.143  49.923  1.00  0.00     0.090 A 
HETATM    5  C18 UNL     1      24.932   5.437  49.503  1.00  0.00     0.069 A 
HETATM    6 CL1  UNL     1      23.382   6.193  49.801  1.00  0.00    -0.081 Cl
HETATM    7  C19 UNL     1      25.929   6.128  48.857  1.00  0.00     0.056 A 
ENDROOT
BRANCH   1   8
HETATM    8  N1  UNL     1      28.145   6.370  47.919  1.00  0.00    -0.341 N 
HETATM    9  H7  UNL     1      27.925   6.597  46.912  1.00  0.00     0.167 HD
BRANCH   8  10
HETATM   10  C5  UNL     1      29.370   6.863  48.434  1.00  0.00     0.131 A 
HETATM   11  C4  UNL     1      29.494   8.241  48.640  1.00  0.00     0.077 A 
HETATM   12  C3  UNL     1      30.628   8.841  49.132  1.00  0.00     0.039 A 
HETATM   13  N3  UNL     1      31.676   8.046  49.430  1.00  0.00    -0.246 NA
HETATM   14  C20 UNL     1      31.547   6.724  49.228  1.00  0.00     0.235 A 
HETATM   15  N2  UNL     1      30.445   6.149  48.751  1.00  0.00    -0.224 NA
BRANCH  12  16
HETATM   16  C2  UNL     1      30.697  10.310  49.328  1.00  0.00     0.055 C 
HETATM   17  C1  UNL     1      31.349  10.940  48.093  1.00  0.00     0.011 C 
ENDBRANCH  12  16
ENDBRANCH   8  10
ENDBRANCH   1   8
BRANCH   4  18
HETATM   18  O1  UNL     1      24.158   3.423  50.578  1.00  0.00    -0.349 OA
BRANCH  18  19
HETATM   19  C10 UNL     1      24.014   3.504  51.981  1.00  0.00     0.180 C 
BRANCH  19  20
HETATM   20  C11 UNL     1      23.961   2.131  52.622  1.00  0.00     0.065 C 
BRANCH  20  21
HETATM   21  C12 UNL     1      25.312   1.545  52.712  1.00  0.00    -0.053 A 
HETATM   22  C13 UNL     1      25.684   0.280  52.350  1.00  0.00     0.007 A 
HETATM   23  C14 UNL     1      26.997  -0.163  52.482  1.00  0.00     0.003 A 
HETATM   24  C15 UNL     1      27.971   0.700  52.998  1.00  0.00     0.042 A 
HETATM   25  C16 UNL     1      27.614   1.999  53.373  1.00  0.00     0.116 A 
HETATM   26  F1  UNL     1      28.538   2.845  53.872  1.00  0.00    -0.206 F 
HETATM   27  C17 UNL     1      26.299   2.394  53.225  1.00  0.00     0.049 A 
ENDBRANCH  20  21
ENDBRANCH  19  20
ENDBRANCH  18  19
ENDBRANCH   4  18
TORSDOF 7
ENDMDL
MODEL 9
REMARK VINA RESULT:      -7.2      3.776      6.224
REMARK  7 active torsions:
REMARK  status: ('A' for Active; 'I' for Inactive)
REMARK    1  A    between atoms: C2_2  and  C3_3 
REMARK    2  A    between atoms: C5_5  and  N1_6 
REMARK    3  A    between atoms: N1_6  and  C6_7 
REMARK    4  A    between atoms: C9_10  and  O1_11 
REMARK    5  A    between atoms: O1_11  and  C10_12 
REMARK    6  A    between atoms: C10_12  and  C11_13 
REMARK    7  A    between atoms: C11_13  and  C12_14 
ROOT
HETATM    1  C6  UNL     1      23.938   2.284  52.403  1.00  0.00     0.035 A 
HETATM    2  C7  UNL     1      23.972   3.628  52.701  1.00  0.00     0.032 A 
HETATM    3  C8  UNL     1      23.751   4.668  51.824  1.00  0.00     0.041 A 
HETATM    4  C9  UNL     1      23.467   4.342  50.515  1.00  0.00     0.090 A 
HETATM    5  C18 UNL     1      23.418   3.014  50.152  1.00  0.00     0.069 A 
HETATM    6 CL1  UNL     1      23.059   2.587  48.493  1.00  0.00    -0.081 Cl
HETATM    7  C19 UNL     1      23.650   2.034  51.087  1.00  0.00     0.056 A 
ENDROOT
BRANCH   1   8
HETATM    8  N1  UNL     1      24.165   1.234  53.310  1.00  0.00    -0.341 N 
HETATM    9  H7  UNL     1      23.298   0.840  53.766  1.00  0.00     0.167 HD
BRANCH   8  10
HETATM   10  C5  UNL     1      25.403   0.650  53.678  1.00  0.00     0.131 A 
HETATM   11  C4  UNL     1      25.814  -0.506  53.003  1.00  0.00     0.077 A 
HETATM   12  C3  UNL     1      26.990  -1.166  53.266  1.00  0.00     0.039 A 
HETATM   13  N3  UNL     1      27.786  -0.663  54.232  1.00  0.00    -0.246 NA
HETATM   14  C20 UNL     1      27.381   0.447  54.874  1.00  0.00     0.235 A 
HETATM   15  N2  UNL     1      26.241   1.082  54.614  1.00  0.00    -0.224 NA
BRANCH  12  16
HETATM   16  C2  UNL     1      27.371  -2.387  52.515  1.00  0.00     0.055 C 
HETATM   17  C1  UNL     1      28.759  -2.838  52.983  1.00  0.00     0.011 C 
ENDBRANCH  12  16
ENDBRANCH   8  10
ENDBRANCH   1   8
BRANCH   4  18
HETATM   18  O1  UNL     1      23.237   5.351  49.590  1.00  0.00    -0.349 OA
BRANCH  18  19
HETATM   19  C10 UNL     1      24.307   5.936  48.877  1.00  0.00     0.180 C 
BRANCH  19  20
HETATM   20  C11 UNL     1      25.617   5.222  49.142  1.00  0.00     0.065 C 
BRANCH  20  21
HETATM   21  C12 UNL     1      26.741   5.945  48.518  1.00  0.00    -0.053 A 
HETATM   22  C13 UNL     1      26.701   7.186  47.944  1.00  0.00     0.007 A 
HETATM   23  C14 UNL     1      27.834   7.770  47.384  1.00  0.00     0.003 A 
HETATM   24  C15 UNL     1      29.051   7.079  47.402  1.00  0.00     0.042 A 
HETATM   25  C16 UNL     1      29.116   5.809  47.986  1.00  0.00     0.116 A 
HETATM   26  F1  UNL     1      30.279   5.128  48.013  1.00  0.00    -0.206 F 
HETATM   27  C17 UNL     1      27.966   5.270  48.528  1.00  0.00     0.049 A 
ENDBRANCH  20  21
ENDBRANCH  19  20
ENDBRANCH  18  19
ENDBRANCH   4  18
TORSDOF 7
ENDMDL
