MODEL 1
REMARK VINA RESULT:      -7.9      0.000      0.000
REMARK  6 active torsions:
REMARK  status: ('A' for Active; 'I' for Inactive)
REMARK    1  A    between atoms: C7_7  and  N1_8 
REMARK    2  A    between atoms: N1_8  and  C8_9 
REMARK    3  A    between atoms: C12_15  and  O1_16 
REMARK    4  A    between atoms: O1_16  and  C13_17 
REMARK    5  A    between atoms: C13_17  and  C15_19 
REMARK    6  A    between atoms: C15_19  and  O2_20 
ROOT
HETATM    1  C1  UNL     1      15.734   3.094  52.233  1.00  0.00     0.018 C 
HETATM    2  C2  UNL     1      16.789   2.676  51.811  1.00  0.00    -0.078 C 
HETATM    3  C3  UNL     1      18.046   2.184  51.324  1.00  0.00     0.019 A 
HETATM    4  C4  UNL     1      17.985   1.478  50.144  1.00  0.00     0.021 A 
HETATM    5  C5  UNL     1      19.146   0.971  49.608  1.00  0.00     0.004 A 
HETATM    6  C6  UNL     1      20.323   1.192  50.279  1.00  0.00     0.029 A 
HETATM    7  C7  UNL     1      20.468   1.886  51.463  1.00  0.00     0.035 A 
HETATM    8  C22 UNL     1      19.249   2.373  51.951  1.00  0.00     0.050 A 
ENDROOT
BRANCH   7   9
HETATM    9  N1  UNL     1      21.669   2.116  52.195  1.00  0.00    -0.340 N 
HETATM   10  H5  UNL     1      21.862   3.102  51.952  1.00  0.00     0.167 HD
BRANCH   9  11
HETATM   11  C8  UNL     1      22.229   1.075  52.972  1.00  0.00     0.144 A 
HETATM   12  N2  UNL     1      21.438   0.436  53.837  1.00  0.00    -0.223 NA
HETATM   13  C9  UNL     1      21.858  -0.564  54.624  1.00  0.00     0.236 A 
HETATM   14  N3  UNL     1      23.141  -0.959  54.557  1.00  0.00    -0.241 NA
HETATM   15  C10 UNL     1      24.006  -0.370  53.715  1.00  0.00     0.077 A 
HETATM   16  C11 UNL     1      25.318  -0.778  53.648  1.00  0.00     0.072 A 
HETATM   17  C19 UNL     1      23.531   0.645  52.931  1.00  0.00     0.075 A 
HETATM   18  C12 UNL     1      26.201  -0.170  52.781  1.00  0.00     0.107 A 
HETATM   19  C17 UNL     1      25.718   0.871  51.975  1.00  0.00     0.136 A 
HETATM   20  C18 UNL     1      24.392   1.268  52.056  1.00  0.00     0.121 A 
HETATM   21  O4  UNL     1      26.494   1.576  51.054  1.00  0.00    -0.344 OA
HETATM   22  O3  UNL     1      24.044   2.301  51.209  1.00  0.00    -0.345 OA
HETATM   23  C20 UNL     1      24.899   3.416  50.952  1.00  0.00     0.202 C 
HETATM   24  C21 UNL     1      26.351   3.006  51.013  1.00  0.00     0.202 C 
BRANCH  18  25
HETATM   25  O1  UNL     1      27.527  -0.520  52.654  1.00  0.00    -0.341 OA
BRANCH  25  26
HETATM   26  C13 UNL     1      28.417  -0.897  53.649  1.00  0.00     0.148 C 
HETATM   27  C14 UNL     1      29.281  -2.082  53.217  1.00  0.00     0.042 C 
BRANCH  26  28
HETATM   28  C15 UNL     1      29.305   0.288  54.019  1.00  0.00     0.199 C 
BRANCH  28  29
HETATM   29  O2  UNL     1      29.176   1.296  53.048  1.00  0.00    -0.393 OA
HETATM   30  C16 UNL     1      28.912   2.489  53.707  1.00  0.00     0.201 C 
ENDBRANCH  28  29
ENDBRANCH  26  28
ENDBRANCH  25  26
ENDBRANCH  18  25
ENDBRANCH   9  11
ENDBRANCH   7   9
TORSDOF 6
ENDMDL
MODEL 2
REMARK VINA RESULT:      -7.8      2.709      8.368
REMARK  6 active torsions:
REMARK  status: ('A' for Active; 'I' for Inactive)
REMARK    1  A    between atoms: C7_7  and  N1_8 
REMARK    2  A    between atoms: N1_8  and  C8_9 
REMARK    3  A    between atoms: C12_15  and  O1_16 
REMARK    4  A    between atoms: O1_16  and  C13_17 
REMARK    5  A    between atoms: C13_17  and  C15_19 
REMARK    6  A    between atoms: C15_19  and  O2_20 
ROOT
HETATM    1  C1  UNL     1      29.895  -1.909  53.454  1.00  0.00     0.018 C 
HETATM    2  C2  UNL     1      29.050  -1.042  53.428  1.00  0.00    -0.078 C 
HETATM    3  C3  UNL     1      28.038  -0.026  53.396  1.00  0.00     0.019 A 
HETATM    4  C4  UNL     1      28.431   1.212  53.852  1.00  0.00     0.021 A 
HETATM    5  C5  UNL     1      27.520   2.243  53.854  1.00  0.00     0.004 A 
HETATM    6  C6  UNL     1      26.250   1.990  53.400  1.00  0.00     0.029 A 
HETATM    7  C7  UNL     1      25.778   0.782  52.929  1.00  0.00     0.035 A 
HETATM    8  C22 UNL     1      26.756  -0.221  52.954  1.00  0.00     0.050 A 
ENDROOT
BRANCH   7   9
HETATM    9  N1  UNL     1      24.463   0.480  52.470  1.00  0.00    -0.340 N 
HETATM   10  H5  UNL     1      24.498   0.861  51.509  1.00  0.00     0.167 HD
BRANCH   9  11
HETATM   11  C8  UNL     1      23.552  -0.180  53.328  1.00  0.00     0.144 A 
HETATM   12  N2  UNL     1      24.044  -0.873  54.358  1.00  0.00    -0.223 NA
HETATM   13  C9  UNL     1      23.279  -1.537  55.235  1.00  0.00     0.236 A 
HETATM   14  N3  UNL     1      21.942  -1.518  55.088  1.00  0.00    -0.241 NA
HETATM   15  C10 UNL     1      21.365  -0.846  54.079  1.00  0.00     0.077 A 
HETATM   16  C11 UNL     1      19.997  -0.828  53.933  1.00  0.00     0.072 A 
HETATM   17  C19 UNL     1      22.186  -0.182  53.210  1.00  0.00     0.075 A 
HETATM   18  C12 UNL     1      19.408  -0.134  52.896  1.00  0.00     0.107 A 
HETATM   19  C17 UNL     1      20.248   0.547  52.002  1.00  0.00     0.136 A 
HETATM   20  C18 UNL     1      21.624   0.518  52.166  1.00  0.00     0.121 A 
HETATM   21  O4  UNL     1      19.795   1.287  50.909  1.00  0.00    -0.344 OA
HETATM   22  O3  UNL     1      22.335   1.230  51.221  1.00  0.00    -0.345 OA
HETATM   23  C20 UNL     1      21.984   1.249  49.837  1.00  0.00     0.202 C 
HETATM   24  C21 UNL     1      20.489   1.130  49.660  1.00  0.00     0.202 C 
BRANCH  18  25
HETATM   25  O1  UNL     1      18.050  -0.068  52.681  1.00  0.00    -0.341 OA
BRANCH  25  26
HETATM   26  C13 UNL     1      17.261  -0.894  51.896  1.00  0.00     0.148 C 
HETATM   27  C14 UNL     1      16.659  -2.043  52.707  1.00  0.00     0.042 C 
BRANCH  26  28
HETATM   28  C15 UNL     1      16.147  -0.075  51.247  1.00  0.00     0.199 C 
BRANCH  28  29
HETATM   29  O2  UNL     1      16.301   1.281  51.584  1.00  0.00    -0.393 OA
HETATM   30  C16 UNL     1      15.092   1.731  52.096  1.00  0.00     0.201 C 
ENDBRANCH  28  29
ENDBRANCH  26  28
ENDBRANCH  25  26
ENDBRANCH  18  25
ENDBRANCH   9  11
ENDBRANCH   7   9
TORSDOF 6
ENDMDL
MODEL 3
REMARK VINA RESULT:      -7.7      2.244      8.181
REMARK  6 active torsions:
REMARK  status: ('A' for Active; 'I' for Inactive)
REMARK    1  A    between atoms: C7_7  and  N1_8 
REMARK    2  A    between atoms: N1_8  and  C8_9 
REMARK    3  A    between atoms: C12_15  and  O1_16 
REMARK    4  A    between atoms: O1_16  and  C13_17 
REMARK    5  A    between atoms: C13_17  and  C15_19 
REMARK    6  A    between atoms: C15_19  and  O2_20 
ROOT
HETATM    1  C1  UNL     1      29.605  -2.402  53.426  1.00  0.00     0.018 C 
HETATM    2  C2  UNL     1      29.029  -1.348  53.270  1.00  0.00    -0.078 C 
HETATM    3  C3  UNL     1      28.335  -0.107  53.083  1.00  0.00     0.019 A 
HETATM    4  C4  UNL     1      28.992   1.011  53.543  1.00  0.00     0.021 A 
HETATM    5  C5  UNL     1      28.394   2.243  53.401  1.00  0.00     0.004 A 
HETATM    6  C6  UNL     1      27.160   2.302  52.804  1.00  0.00     0.029 A 
HETATM    7  C7  UNL     1      26.437   1.231  52.319  1.00  0.00     0.035 A 
HETATM    8  C22 UNL     1      27.103   0.012  52.495  1.00  0.00     0.050 A 
ENDROOT
BRANCH   7   9
HETATM    9  N1  UNL     1      25.147   1.255  51.714  1.00  0.00    -0.340 N 
HETATM   10  H5  UNL     1      25.382   1.583  50.762  1.00  0.00     0.167 HD
BRANCH   9  11
HETATM   11  C8  UNL     1      24.010   0.874  52.465  1.00  0.00     0.144 A 
HETATM   12  N2  UNL     1      24.126  -0.155  53.308  1.00  0.00    -0.223 NA
HETATM   13  C9  UNL     1      23.119  -0.604  54.069  1.00  0.00     0.236 A 
HETATM   14  N3  UNL     1      21.919  -0.002  53.995  1.00  0.00    -0.241 NA
HETATM   15  C10 UNL     1      21.716   1.040  53.172  1.00  0.00     0.077 A 
HETATM   16  C11 UNL     1      20.487   1.655  53.100  1.00  0.00     0.072 A 
HETATM   17  C19 UNL     1      22.773   1.464  52.416  1.00  0.00     0.075 A 
HETATM   18  C12 UNL     1      20.284   2.726  52.255  1.00  0.00     0.107 A 
HETATM   19  C17 UNL     1      21.366   3.163  51.477  1.00  0.00     0.136 A 
HETATM   20  C18 UNL     1      22.597   2.532  51.564  1.00  0.00     0.121 A 
HETATM   21  O4  UNL     1      21.308   4.231  50.580  1.00  0.00    -0.344 OA
HETATM   22  O3  UNL     1      23.578   3.060  50.748  1.00  0.00    -0.345 OA
HETATM   23  C20 UNL     1      23.323   3.505  49.416  1.00  0.00     0.202 C 
HETATM   24  C21 UNL     1      21.923   4.058  49.292  1.00  0.00     0.202 C 
BRANCH  18  25
HETATM   25  O1  UNL     1      19.087   3.394  52.125  1.00  0.00    -0.341 OA
BRANCH  25  26
HETATM   26  C13 UNL     1      17.918   2.958  51.521  1.00  0.00     0.148 C 
HETATM   27  C14 UNL     1      16.878   4.076  51.422  1.00  0.00     0.042 C 
BRANCH  26  28
HETATM   28  C15 UNL     1      18.231   2.414  50.129  1.00  0.00     0.199 C 
BRANCH  28  29
HETATM   29  O2  UNL     1      17.447   1.274  49.880  1.00  0.00    -0.393 OA
HETATM   30  C16 UNL     1      17.875   0.269  50.737  1.00  0.00     0.201 C 
ENDBRANCH  28  29
ENDBRANCH  26  28
ENDBRANCH  25  26
ENDBRANCH  18  25
ENDBRANCH   9  11
ENDBRANCH   7   9
TORSDOF 6
ENDMDL
MODEL 4
REMARK VINA RESULT:      -7.4      2.662      8.816
REMARK  6 active torsions:
REMARK  status: ('A' for Active; 'I' for Inactive)
REMARK    1  A    between atoms: C7_7  and  N1_8 
REMARK    2  A    between atoms: N1_8  and  C8_9 
REMARK    3  A    between atoms: C12_15  and  O1_16 
REMARK    4  A    between atoms: O1_16  and  C13_17 
REMARK    5  A    between atoms: C13_17  and  C15_19 
REMARK    6  A    between atoms: C15_19  and  O2_20 
ROOT
HETATM    1  C1  UNL     1      29.387  -2.349  53.334  1.00  0.00     0.018 C 
HETATM    2  C2  UNL     1      28.762  -1.317  53.231  1.00  0.00    -0.078 C 
HETATM    3  C3  UNL     1      28.010  -0.102  53.105  1.00  0.00     0.019 A 
HETATM    4  C4  UNL     1      28.586   1.009  53.678  1.00  0.00     0.021 A 
HETATM    5  C5  UNL     1      27.929   2.216  53.602  1.00  0.00     0.004 A 
HETATM    6  C6  UNL     1      26.720   2.259  52.954  1.00  0.00     0.029 A 
HETATM    7  C7  UNL     1      26.078   1.194  52.355  1.00  0.00     0.035 A 
HETATM    8  C22 UNL     1      26.800  -0.000  52.470  1.00  0.00     0.050 A 
ENDROOT
BRANCH   7   9
HETATM    9  N1  UNL     1      24.816   1.199  51.693  1.00  0.00    -0.340 N 
HETATM   10  H5  UNL     1      24.620   0.185  51.636  1.00  0.00     0.167 HD
BRANCH   9  11
HETATM   11  C8  UNL     1      24.220   2.428  51.324  1.00  0.00     0.144 A 
HETATM   12  N2  UNL     1      24.987   3.351  50.740  1.00  0.00    -0.223 NA
HETATM   13  C9  UNL     1      24.534   4.550  50.348  1.00  0.00     0.236 A 
HETATM   14  N3  UNL     1      23.240   4.860  50.545  1.00  0.00    -0.241 NA
HETATM   15  C10 UNL     1      22.399   3.989  51.126  1.00  0.00     0.077 A 
HETATM   16  C11 UNL     1      21.076   4.309  51.325  1.00  0.00     0.072 A 
HETATM   17  C19 UNL     1      22.907   2.778  51.508  1.00  0.00     0.075 A 
HETATM   18  C12 UNL     1      20.215   3.411  51.920  1.00  0.00     0.107 A 
HETATM   19  C17 UNL     1      20.733   2.168  52.314  1.00  0.00     0.136 A 
HETATM   20  C18 UNL     1      22.069   1.863  52.105  1.00  0.00     0.121 A 
HETATM   21  O4  UNL     1      19.983   1.163  52.927  1.00  0.00    -0.344 OA
HETATM   22  O3  UNL     1      22.451   0.608  52.536  1.00  0.00    -0.345 OA
HETATM   23  C20 UNL     1      21.976   0.026  53.750  1.00  0.00     0.202 C 
HETATM   24  C21 UNL     1      20.568   0.482  54.049  1.00  0.00     0.202 C 
BRANCH  18  25
HETATM   25  O1  UNL     1      18.880   3.655  52.153  1.00  0.00    -0.341 OA
BRANCH  25  26
HETATM   26  C13 UNL     1      17.862   3.829  51.228  1.00  0.00     0.148 C 
HETATM   27  C14 UNL     1      17.893   2.753  50.141  1.00  0.00     0.042 C 
BRANCH  26  28
HETATM   28  C15 UNL     1      16.512   3.811  51.940  1.00  0.00     0.199 C 
BRANCH  28  29
HETATM   29  O2  UNL     1      16.036   2.491  52.017  1.00  0.00    -0.393 OA
HETATM   30  C16 UNL     1      14.671   2.546  52.261  1.00  0.00     0.201 C 
ENDBRANCH  28  29
ENDBRANCH  26  28
ENDBRANCH  25  26
ENDBRANCH  18  25
ENDBRANCH   9  11
ENDBRANCH   7   9
TORSDOF 6
ENDMDL
MODEL 5
REMARK VINA RESULT:      -7.2      1.569      2.211
REMARK  6 active torsions:
REMARK  status: ('A' for Active; 'I' for Inactive)
REMARK    1  A    between atoms: C7_7  and  N1_8 
REMARK    2  A    between atoms: N1_8  and  C8_9 
REMARK    3  A    between atoms: C12_15  and  O1_16 
REMARK    4  A    between atoms: O1_16  and  C13_17 
REMARK    5  A    between atoms: C13_17  and  C15_19 
REMARK    6  A    between atoms: C15_19  and  O2_20 
ROOT
HETATM    1  C1  UNL     1      15.069   4.327  52.829  1.00  0.00     0.018 C 
HETATM    2  C2  UNL     1      15.626   3.439  52.225  1.00  0.00    -0.078 C 
HETATM    3  C3  UNL     1      16.299   2.387  51.517  1.00  0.00     0.019 A 
HETATM    4  C4  UNL     1      15.483   1.551  50.790  1.00  0.00     0.021 A 
HETATM    5  C5  UNL     1      16.048   0.516  50.081  1.00  0.00     0.004 A 
HETATM    6  C6  UNL     1      17.411   0.361  50.131  1.00  0.00     0.029 A 
HETATM    7  C7  UNL     1      18.296   1.154  50.834  1.00  0.00     0.035 A 
HETATM    8  C22 UNL     1      17.654   2.185  51.531  1.00  0.00     0.050 A 
ENDROOT
BRANCH   7   9
HETATM    9  N1  UNL     1      19.711   1.010  50.924  1.00  0.00    -0.340 N 
HETATM   10  H5  UNL     1      20.013   1.501  50.067  1.00  0.00     0.167 HD
BRANCH   9  11
HETATM   11  C8  UNL     1      20.279   0.319  52.020  1.00  0.00     0.144 A 
HETATM   12  N2  UNL     1      19.474  -0.419  52.788  1.00  0.00    -0.223 NA
HETATM   13  C9  UNL     1      19.899  -1.115  53.851  1.00  0.00     0.236 A 
HETATM   14  N3  UNL     1      21.202  -1.082  54.181  1.00  0.00    -0.241 NA
HETATM   15  C10 UNL     1      22.081  -0.364  53.462  1.00  0.00     0.077 A 
HETATM   16  C11 UNL     1      23.414  -0.333  53.801  1.00  0.00     0.072 A 
HETATM   17  C19 UNL     1      21.601   0.329  52.385  1.00  0.00     0.075 A 
HETATM   18  C12 UNL     1      24.313   0.404  53.059  1.00  0.00     0.107 A 
HETATM   19  C17 UNL     1      23.824   1.116  51.955  1.00  0.00     0.136 A 
HETATM   20  C18 UNL     1      22.477   1.073  51.628  1.00  0.00     0.121 A 
HETATM   21  O4  UNL     1      24.614   1.903  51.115  1.00  0.00    -0.344 OA
HETATM   22  O3  UNL     1      22.127   1.815  50.518  1.00  0.00    -0.345 OA
HETATM   23  C20 UNL     1      22.682   3.101  50.237  1.00  0.00     0.202 C 
HETATM   24  C21 UNL     1      24.105   3.191  50.731  1.00  0.00     0.202 C 
BRANCH  18  25
HETATM   25  O1  UNL     1      25.660   0.485  53.333  1.00  0.00    -0.341 OA
BRANCH  25  26
HETATM   26  C13 UNL     1      26.498  -0.498  53.836  1.00  0.00     0.148 C 
HETATM   27  C14 UNL     1      26.874  -1.525  52.766  1.00  0.00     0.042 C 
BRANCH  26  28
HETATM   28  C15 UNL     1      27.759   0.144  54.408  1.00  0.00     0.199 C 
BRANCH  28  29
HETATM   29  O2  UNL     1      28.825  -0.770  54.343  1.00  0.00    -0.393 OA
HETATM   30  C16 UNL     1      29.863  -0.162  53.650  1.00  0.00     0.201 C 
ENDBRANCH  28  29
ENDBRANCH  26  28
ENDBRANCH  25  26
ENDBRANCH  18  25
ENDBRANCH   9  11
ENDBRANCH   7   9
TORSDOF 6
ENDMDL
MODEL 6
REMARK VINA RESULT:      -7.2      3.510      8.372
REMARK  6 active torsions:
REMARK  status: ('A' for Active; 'I' for Inactive)
REMARK    1  A    between atoms: C7_7  and  N1_8 
REMARK    2  A    between atoms: N1_8  and  C8_9 
REMARK    3  A    between atoms: C12_15  and  O1_16 
REMARK    4  A    between atoms: O1_16  and  C13_17 
REMARK    5  A    between atoms: C13_17  and  C15_19 
REMARK    6  A    between atoms: C15_19  and  O2_20 
ROOT
HETATM    1  C1  UNL     1      26.867   3.950  49.378  1.00  0.00     0.018 C 
HETATM    2  C2  UNL     1      26.409   3.175  50.187  1.00  0.00    -0.078 C 
HETATM    3  C3  UNL     1      25.851   2.262  51.143  1.00  0.00     0.019 A 
HETATM    4  C4  UNL     1      26.686   1.242  51.539  1.00  0.00     0.021 A 
HETATM    5  C5  UNL     1      26.228   0.322  52.455  1.00  0.00     0.004 A 
HETATM    6  C6  UNL     1      24.950   0.463  52.935  1.00  0.00     0.029 A 
HETATM    7  C7  UNL     1      24.054   1.453  52.589  1.00  0.00     0.035 A 
HETATM    8  C22 UNL     1      24.584   2.353  51.656  1.00  0.00     0.050 A 
ENDROOT
BRANCH   7   9
HETATM    9  N1  UNL     1      22.716   1.617  53.051  1.00  0.00    -0.340 N 
HETATM   10  H5  UNL     1      22.588   2.636  52.926  1.00  0.00     0.167 HD
BRANCH   9  11
HETATM   11  C8  UNL     1      21.987   0.494  53.509  1.00  0.00     0.144 A 
HETATM   12  N2  UNL     1      22.566  -0.313  54.400  1.00  0.00    -0.223 NA
HETATM   13  C9  UNL     1      21.975  -1.405  54.904  1.00  0.00     0.236 A 
HETATM   14  N3  UNL     1      20.731  -1.723  54.503  1.00  0.00    -0.241 NA
HETATM   15  C10 UNL     1      20.075  -0.965  53.609  1.00  0.00     0.077 A 
HETATM   16  C11 UNL     1      18.803  -1.292  53.202  1.00  0.00     0.072 A 
HETATM   17  C19 UNL     1      20.720   0.140  53.124  1.00  0.00     0.075 A 
HETATM   18  C12 UNL     1      18.133  -0.509  52.285  1.00  0.00     0.107 A 
HETATM   19  C17 UNL     1      18.791   0.624  51.785  1.00  0.00     0.136 A 
HETATM   20  C18 UNL     1      20.073   0.939  52.207  1.00  0.00     0.121 A 
HETATM   21  O4  UNL     1      18.239   1.506  50.854  1.00  0.00    -0.344 OA
HETATM   22  O3  UNL     1      20.606   2.079  51.641  1.00  0.00    -0.345 OA
HETATM   23  C20 UNL     1      20.419   2.425  50.268  1.00  0.00     0.202 C 
HETATM   24  C21 UNL     1      19.076   1.947  49.772  1.00  0.00     0.202 C 
BRANCH  18  25
HETATM   25  O1  UNL     1      16.860  -0.768  51.829  1.00  0.00    -0.341 OA
BRANCH  25  26
HETATM   26  C13 UNL     1      15.669  -0.747  52.539  1.00  0.00     0.148 C 
HETATM   27  C14 UNL     1      15.122   0.674  52.687  1.00  0.00     0.042 C 
BRANCH  26  28
HETATM   28  C15 UNL     1      14.639  -1.632  51.842  1.00  0.00     0.199 C 
BRANCH  28  29
HETATM   29  O2  UNL     1      15.152  -2.934  51.703  1.00  0.00    -0.393 OA
HETATM   30  C16 UNL     1      14.726  -3.675  52.796  1.00  0.00     0.201 C 
ENDBRANCH  28  29
ENDBRANCH  26  28
ENDBRANCH  25  26
ENDBRANCH  18  25
ENDBRANCH   9  11
ENDBRANCH   7   9
TORSDOF 6
ENDMDL
MODEL 7
REMARK VINA RESULT:      -7.1      3.264      7.652
REMARK  6 active torsions:
REMARK  status: ('A' for Active; 'I' for Inactive)
REMARK    1  A    between atoms: C7_7  and  N1_8 
REMARK    2  A    between atoms: N1_8  and  C8_9 
REMARK    3  A    between atoms: C12_15  and  O1_16 
REMARK    4  A    between atoms: O1_16  and  C13_17 
REMARK    5  A    between atoms: C13_17  and  C15_19 
REMARK    6  A    between atoms: C15_19  and  O2_20 
ROOT
HETATM    1  C1  UNL     1      25.535   8.088  47.563  1.00  0.00     0.018 C 
HETATM    2  C2  UNL     1      25.701   7.078  48.211  1.00  0.00    -0.078 C 
HETATM    3  C3  UNL     1      25.884   5.884  48.984  1.00  0.00     0.019 A 
HETATM    4  C4  UNL     1      26.922   5.075  48.582  1.00  0.00     0.021 A 
HETATM    5  C5  UNL     1      27.166   3.909  49.271  1.00  0.00     0.004 A 
HETATM    6  C6  UNL     1      26.357   3.601  50.336  1.00  0.00     0.029 A 
HETATM    7  C7  UNL     1      25.298   4.356  50.801  1.00  0.00     0.035 A 
HETATM    8  C22 UNL     1      25.107   5.526  50.055  1.00  0.00     0.050 A 
ENDROOT
BRANCH   7   9
HETATM    9  N1  UNL     1      24.427   4.057  51.888  1.00  0.00    -0.340 N 
HETATM   10  H5  UNL     1      24.094   5.003  52.139  1.00  0.00     0.167 HD
BRANCH   9  11
HETATM   11  C8  UNL     1      24.255   2.715  52.303  1.00  0.00     0.144 A 
HETATM   12  N2  UNL     1      25.345   1.971  52.501  1.00  0.00    -0.223 NA
HETATM   13  C9  UNL     1      25.305   0.690  52.893  1.00  0.00     0.236 A 
HETATM   14  N3  UNL     1      24.114   0.104  53.104  1.00  0.00    -0.241 NA
HETATM   15  C10 UNL     1      22.967   0.780  52.928  1.00  0.00     0.077 A 
HETATM   16  C11 UNL     1      21.749   0.178  53.146  1.00  0.00     0.072 A 
HETATM   17  C19 UNL     1      23.058   2.085  52.528  1.00  0.00     0.075 A 
HETATM   18  C12 UNL     1      20.575   0.877  52.965  1.00  0.00     0.107 A 
HETATM   19  C17 UNL     1      20.664   2.216  52.555  1.00  0.00     0.136 A 
HETATM   20  C18 UNL     1      21.900   2.807  52.341  1.00  0.00     0.121 A 
HETATM   21  O4  UNL     1      19.563   3.044  52.332  1.00  0.00    -0.344 OA
HETATM   22  O3  UNL     1      21.849   4.127  51.941  1.00  0.00    -0.345 OA
HETATM   23  C20 UNL     1      20.877   4.623  51.020  1.00  0.00     0.202 C 
HETATM   24  C21 UNL     1      19.575   3.872  51.157  1.00  0.00     0.202 C 
BRANCH  18  25
HETATM   25  O1  UNL     1      19.319   0.347  53.162  1.00  0.00    -0.341 OA
BRANCH  25  26
HETATM   26  C13 UNL     1      18.611  -0.518  52.342  1.00  0.00     0.148 C 
HETATM   27  C14 UNL     1      17.945  -1.640  53.141  1.00  0.00     0.042 C 
BRANCH  26  28
HETATM   28  C15 UNL     1      17.557   0.263  51.562  1.00  0.00     0.199 C 
BRANCH  28  29
HETATM   29  O2  UNL     1      16.323  -0.407  51.636  1.00  0.00    -0.393 OA
HETATM   30  C16 UNL     1      15.696  -0.279  50.404  1.00  0.00     0.201 C 
ENDBRANCH  28  29
ENDBRANCH  26  28
ENDBRANCH  25  26
ENDBRANCH  18  25
ENDBRANCH   9  11
ENDBRANCH   7   9
TORSDOF 6
ENDMDL
MODEL 8
REMARK VINA RESULT:      -7.0      4.006      5.970
REMARK  6 active torsions:
REMARK  status: ('A' for Active; 'I' for Inactive)
REMARK    1  A    between atoms: C7_7  and  N1_8 
REMARK    2  A    between atoms: N1_8  and  C8_9 
REMARK    3  A    between atoms: C12_15  and  O1_16 
REMARK    4  A    between atoms: O1_16  and  C13_17 
REMARK    5  A    between atoms: C13_17  and  C15_19 
REMARK    6  A    between atoms: C15_19  and  O2_20 
ROOT
HETATM    1  C1  UNL     1      21.098   3.789  44.722  1.00  0.00     0.018 C 
HETATM    2  C2  UNL     1      21.600   4.693  45.353  1.00  0.00    -0.078 C 
HETATM    3  C3  UNL     1      22.202   5.753  46.109  1.00  0.00     0.019 A 
HETATM    4  C4  UNL     1      22.135   7.000  45.530  1.00  0.00     0.021 A 
HETATM    5  C5  UNL     1      22.688   8.073  46.190  1.00  0.00     0.004 A 
HETATM    6  C6  UNL     1      23.288   7.851  47.404  1.00  0.00     0.029 A 
HETATM    7  C7  UNL     1      23.398   6.636  48.049  1.00  0.00     0.035 A 
HETATM    8  C22 UNL     1      22.814   5.590  47.323  1.00  0.00     0.050 A 
ENDROOT
BRANCH   7   9
HETATM    9  N1  UNL     1      24.030   6.367  49.297  1.00  0.00    -0.340 N 
HETATM   10  H5  UNL     1      23.437   6.918  49.941  1.00  0.00     0.167 HD
BRANCH   9  11
HETATM   11  C8  UNL     1      25.166   5.524  49.344  1.00  0.00     0.144 A 
HETATM   12  N2  UNL     1      26.233   5.863  48.617  1.00  0.00    -0.223 NA
HETATM   13  C9  UNL     1      27.363   5.143  48.582  1.00  0.00     0.236 A 
HETATM   14  N3  UNL     1      27.446   4.015  49.309  1.00  0.00    -0.241 NA
HETATM   15  C10 UNL     1      26.418   3.600  50.067  1.00  0.00     0.077 A 
HETATM   16  C11 UNL     1      26.507   2.446  50.810  1.00  0.00     0.072 A 
HETATM   17  C19 UNL     1      25.287   4.369  50.072  1.00  0.00     0.075 A 
HETATM   18  C12 UNL     1      25.450   2.026  51.589  1.00  0.00     0.107 A 
HETATM   19  C17 UNL     1      24.287   2.811  51.596  1.00  0.00     0.136 A 
HETATM   20  C18 UNL     1      24.216   3.972  50.841  1.00  0.00     0.121 A 
HETATM   21  O4  UNL     1      23.141   2.510  52.334  1.00  0.00    -0.344 OA
HETATM   22  O3  UNL     1      23.019   4.653  50.938  1.00  0.00    -0.345 OA
HETATM   23  C20 UNL     1      21.753   3.994  50.987  1.00  0.00     0.202 C 
HETATM   24  C21 UNL     1      21.868   2.659  51.683  1.00  0.00     0.202 C 
BRANCH  18  25
HETATM   25  O1  UNL     1      25.461   0.885  52.360  1.00  0.00    -0.341 OA
BRANCH  25  26
HETATM   26  C13 UNL     1      26.220   0.616  53.489  1.00  0.00     0.148 C 
HETATM   27  C14 UNL     1      25.595  -0.490  54.342  1.00  0.00     0.042 C 
BRANCH  26  28
HETATM   28  C15 UNL     1      27.634   0.217  53.074  1.00  0.00     0.199 C 
BRANCH  28  29
HETATM   29  O2  UNL     1      28.047  -0.901  53.818  1.00  0.00    -0.393 OA
HETATM   30  C16 UNL     1      29.434  -0.906  53.842  1.00  0.00     0.201 C 
ENDBRANCH  28  29
ENDBRANCH  26  28
ENDBRANCH  25  26
ENDBRANCH  18  25
ENDBRANCH   9  11
ENDBRANCH   7   9
TORSDOF 6
ENDMDL
MODEL 9
REMARK VINA RESULT:      -7.0      3.537      8.080
REMARK  6 active torsions:
REMARK  status: ('A' for Active; 'I' for Inactive)
REMARK    1  A    between atoms: C7_7  and  N1_8 
REMARK    2  A    between atoms: N1_8  and  C8_9 
REMARK    3  A    between atoms: C12_15  and  O1_16 
REMARK    4  A    between atoms: O1_16  and  C13_17 
REMARK    5  A    between atoms: C13_17  and  C15_19 
REMARK    6  A    between atoms: C15_19  and  O2_20 
ROOT
HETATM    1  C1  UNL     1      29.078  -2.510  53.085  1.00  0.00     0.018 C 
HETATM    2  C2  UNL     1      28.347  -1.551  53.192  1.00  0.00    -0.078 C 
HETATM    3  C3  UNL     1      27.473  -0.418  53.306  1.00  0.00     0.019 A 
HETATM    4  C4  UNL     1      27.463   0.197  54.537  1.00  0.00     0.021 A 
HETATM    5  C5  UNL     1      26.652   1.291  54.730  1.00  0.00     0.004 A 
HETATM    6  C6  UNL     1      25.882   1.724  53.680  1.00  0.00     0.029 A 
HETATM    7  C7  UNL     1      25.834   1.164  52.419  1.00  0.00     0.035 A 
HETATM    8  C22 UNL     1      26.682   0.057  52.292  1.00  0.00     0.050 A 
ENDROOT
BRANCH   7   9
HETATM    9  N1  UNL     1      25.033   1.574  51.314  1.00  0.00    -0.340 N 
HETATM   10  H5  UNL     1      25.648   1.324  50.522  1.00  0.00     0.167 HD
BRANCH   9  11
HETATM   11  C8  UNL     1      23.760   2.148  51.543  1.00  0.00     0.144 A 
HETATM   12  N2  UNL     1      22.791   1.365  52.023  1.00  0.00    -0.223 NA
HETATM   13  C9  UNL     1      21.549   1.797  52.277  1.00  0.00     0.236 A 
HETATM   14  N3  UNL     1      21.239   3.085  52.043  1.00  0.00    -0.241 NA
HETATM   15  C10 UNL     1      22.154   3.941  51.558  1.00  0.00     0.077 A 
HETATM   16  C11 UNL     1      21.835   5.257  51.321  1.00  0.00     0.072 A 
HETATM   17  C19 UNL     1      23.409   3.454  51.316  1.00  0.00     0.075 A 
HETATM   18  C12 UNL     1      22.778   6.133  50.826  1.00  0.00     0.107 A 
HETATM   19  C17 UNL     1      24.066   5.637  50.575  1.00  0.00     0.136 A 
HETATM   20  C18 UNL     1      24.370   4.307  50.821  1.00  0.00     0.121 A 
HETATM   21  O4  UNL     1      25.119   6.405  50.074  1.00  0.00    -0.344 OA
HETATM   22  O3  UNL     1      25.671   3.948  50.534  1.00  0.00    -0.345 OA
HETATM   23  C20 UNL     1      26.376   4.431  49.390  1.00  0.00     0.202 C 
HETATM   24  C21 UNL     1      25.931   5.830  49.037  1.00  0.00     0.202 C 
BRANCH  18  25
HETATM   25  O1  UNL     1      22.538   7.463  50.562  1.00  0.00    -0.341 OA
BRANCH  25  26
HETATM   26  C13 UNL     1      21.769   8.014  49.548  1.00  0.00     0.148 C 
HETATM   27  C14 UNL     1      20.390   8.446  50.051  1.00  0.00     0.042 C 
BRANCH  26  28
HETATM   28  C15 UNL     1      22.499   9.210  48.941  1.00  0.00     0.199 C 
BRANCH  28  29
HETATM   29  O2  UNL     1      23.739   8.793  48.426  1.00  0.00    -0.393 OA
HETATM   30  C16 UNL     1      23.844   9.280  47.130  1.00  0.00     0.201 C 
ENDBRANCH  28  29
ENDBRANCH  26  28
ENDBRANCH  25  26
ENDBRANCH  18  25
ENDBRANCH   9  11
ENDBRANCH   7   9
TORSDOF 6
ENDMDL
