MODEL 1
REMARK VINA RESULT:      -8.4      0.000      0.000
REMARK  7 active torsions:
REMARK  status: ('A' for Active; 'I' for Inactive)
REMARK    1  A    between atoms: C3_3  and  C4_4 
REMARK       I    between atoms: C4_4  and  N1_6 
REMARK    2  A    between atoms: C11_15  and  N4_16 
REMARK    3  A    between atoms: N4_16  and  C12_17 
REMARK    4  A    between atoms: C12_17  and  C13_18 
REMARK    5  A    between atoms: C12_17  and  C14_20 
REMARK    6  A    between atoms: C13_18  and  O2_19 
REMARK    7  A    between atoms: C20_26  and  S1_27 
ROOT
HETATM    1  C1  UNL     1      22.284   5.300  45.743  1.00  0.00     0.112 C 
HETATM    2  C2  UNL     1      21.715   4.442  46.809  1.00  0.00    -0.101 C 
HETATM    3  C3  UNL     1      21.244   3.765  47.674  1.00  0.00    -0.006 C 
ENDROOT
BRANCH   3   4
HETATM    4  C4  UNL     1      20.680   2.943  48.689  1.00  0.00     0.298 C 
HETATM    5  O1  UNL     1      19.690   2.159  48.527  1.00  0.00    -0.258 OA
HETATM    6  N1  UNL     1      21.090   2.838  50.021  1.00  0.00    -0.336 N 
HETATM    7  C5  UNL     1      20.334   1.913  50.859  1.00  0.00     0.132 C 
HETATM    8  C21 UNL     1      22.159   3.497  50.745  1.00  0.00     0.172 C 
HETATM    9  C6  UNL     1      21.329   0.807  51.205  1.00  0.00     0.060 C 
HETATM   10  C7  UNL     1      22.321   1.436  52.155  1.00  0.00    -0.027 C 
HETATM   11  C8  UNL     1      22.773   0.526  53.182  1.00  0.00     0.035 A 
HETATM   12  C20 UNL     1      22.655   2.683  51.879  1.00  0.00     0.001 C 
HETATM   13  C9  UNL     1      21.698   0.079  53.963  1.00  0.00     0.134 A 
HETATM   14  C11 UNL     1      24.003   0.017  53.511  1.00  0.00     0.137 A 
HETATM   15  N2  UNL     1      21.855  -0.806  54.993  1.00  0.00    -0.253 NA
HETATM   16  C10 UNL     1      23.089  -1.262  55.261  1.00  0.00     0.234 A 
HETATM   17  N3  UNL     1      24.130  -0.848  54.523  1.00  0.00    -0.224 NA
BRANCH  14  18
HETATM   18  N4  UNL     1      25.063   0.443  52.680  1.00  0.00    -0.363 N 
HETATM   19  H10 UNL     1      25.047   0.567  51.658  1.00  0.00     0.162 HD
BRANCH  18  20
HETATM   20  C12 UNL     1      26.326   0.718  53.351  1.00  0.00     0.140 C 
BRANCH  20  21
HETATM   21  C13 UNL     1      27.020   1.951  52.869  1.00  0.00     0.194 C 
BRANCH  21  22
HETATM   22  O2  UNL     1      27.310   2.741  54.007  1.00  0.00    -0.399 OA
HETATM   23  H14 UNL     1      27.823   2.242  54.688  1.00  0.00     0.209 HD
ENDBRANCH  21  22
ENDBRANCH  20  21
BRANCH  20  24
HETATM   24  C14 UNL     1      27.251  -0.449  53.231  1.00  0.00    -0.034 A 
HETATM   25  C15 UNL     1      28.522  -0.203  53.766  1.00  0.00     0.009 A 
HETATM   26  C16 UNL     1      29.547  -1.126  53.789  1.00  0.00     0.001 A 
HETATM   27  C17 UNL     1      29.334  -2.380  53.256  1.00  0.00     0.000 A 
HETATM   28  C18 UNL     1      28.088  -2.634  52.727  1.00  0.00     0.001 A 
HETATM   29  C19 UNL     1      27.072  -1.709  52.708  1.00  0.00     0.009 A 
ENDBRANCH  20  24
ENDBRANCH  18  20
ENDBRANCH  14  18
BRANCH  12  30
HETATM   30  S1  UNL     1      23.820   3.449  52.990  1.00  0.00    -0.145 SA
HETATM   31  H20 UNL     1      23.218   3.594  54.249  1.00  0.00     0.107 HD
ENDBRANCH  12  30
ENDBRANCH   3   4
TORSDOF 7
ENDMDL
MODEL 2
REMARK VINA RESULT:      -8.3      8.885     11.746
REMARK  7 active torsions:
REMARK  status: ('A' for Active; 'I' for Inactive)
REMARK    1  A    between atoms: C3_3  and  C4_4 
REMARK       I    between atoms: C4_4  and  N1_6 
REMARK    2  A    between atoms: C11_15  and  N4_16 
REMARK    3  A    between atoms: N4_16  and  C12_17 
REMARK    4  A    between atoms: C12_17  and  C13_18 
REMARK    5  A    between atoms: C12_17  and  C14_20 
REMARK    6  A    between atoms: C13_18  and  O2_19 
REMARK    7  A    between atoms: C20_26  and  S1_27 
ROOT
HETATM    1  C1  UNL     1      32.415   0.719  47.206  1.00  0.00     0.112 C 
HETATM    2  C2  UNL     1      32.477   2.108  46.694  1.00  0.00    -0.101 C 
HETATM    3  C3  UNL     1      32.545   3.231  46.290  1.00  0.00    -0.006 C 
ENDROOT
BRANCH   3   4
HETATM    4  C4  UNL     1      32.622   4.560  45.790  1.00  0.00     0.298 C 
HETATM    5  O1  UNL     1      32.682   4.874  44.558  1.00  0.00    -0.258 OA
HETATM    6  N1  UNL     1      32.645   5.746  46.531  1.00  0.00    -0.336 N 
HETATM    7  C5  UNL     1      32.728   6.985  45.765  1.00  0.00     0.132 C 
HETATM    8  C21 UNL     1      32.599   5.978  47.961  1.00  0.00     0.172 C 
HETATM    9  C6  UNL     1      31.394   7.683  46.019  1.00  0.00     0.060 C 
HETATM   10  C7  UNL     1      31.440   8.138  47.459  1.00  0.00    -0.027 C 
HETATM   11  C8  UNL     1      30.789   9.410  47.670  1.00  0.00     0.035 A 
HETATM   12  C20 UNL     1      32.015   7.297  48.298  1.00  0.00     0.001 C 
HETATM   13  C9  UNL     1      31.401  10.418  46.911  1.00  0.00     0.134 A 
HETATM   14  C11 UNL     1      29.712   9.800  48.424  1.00  0.00     0.137 A 
HETATM   15  N2  UNL     1      30.962  11.712  46.918  1.00  0.00    -0.253 NA
HETATM   16  C10 UNL     1      29.903  12.024  47.682  1.00  0.00     0.234 A 
HETATM   17  N3  UNL     1      29.303  11.073  48.413  1.00  0.00    -0.224 NA
BRANCH  14  18
HETATM   18  N4  UNL     1      29.082   8.759  49.142  1.00  0.00    -0.363 N 
HETATM   19  H10 UNL     1      29.525   8.078  49.774  1.00  0.00     0.162 HD
BRANCH  18  20
HETATM   20  C12 UNL     1      27.645   8.628  48.943  1.00  0.00     0.140 C 
BRANCH  20  21
HETATM   21  C13 UNL     1      26.819   9.410  49.912  1.00  0.00     0.194 C 
BRANCH  21  22
HETATM   22  O2  UNL     1      27.621   9.646  51.053  1.00  0.00    -0.399 OA
HETATM   23  H14 UNL     1      28.431  10.170  50.840  1.00  0.00     0.209 HD
ENDBRANCH  21  22
ENDBRANCH  20  21
BRANCH  20  24
HETATM   24  C14 UNL     1      27.236   7.192  48.989  1.00  0.00    -0.034 A 
HETATM   25  C15 UNL     1      28.227   6.320  48.521  1.00  0.00     0.009 A 
HETATM   26  C16 UNL     1      28.097   4.948  48.475  1.00  0.00     0.001 A 
HETATM   27  C17 UNL     1      26.923   4.369  48.912  1.00  0.00     0.000 A 
HETATM   28  C18 UNL     1      25.940   5.217  49.376  1.00  0.00     0.001 A 
HETATM   29  C19 UNL     1      26.078   6.583  49.417  1.00  0.00     0.009 A 
ENDBRANCH  20  24
ENDBRANCH  18  20
ENDBRANCH  14  18
BRANCH  12  30
HETATM   30  S1  UNL     1      32.088   7.815  50.003  1.00  0.00    -0.145 SA
HETATM   31  H20 UNL     1      32.954   8.914  50.107  1.00  0.00     0.107 HD
ENDBRANCH  12  30
ENDBRANCH   3   4
TORSDOF 7
ENDMDL
MODEL 3
REMARK VINA RESULT:      -8.0      3.228      5.676
REMARK  7 active torsions:
REMARK  status: ('A' for Active; 'I' for Inactive)
REMARK    1  A    between atoms: C3_3  and  C4_4 
REMARK       I    between atoms: C4_4  and  N1_6 
REMARK    2  A    between atoms: C11_15  and  N4_16 
REMARK    3  A    between atoms: N4_16  and  C12_17 
REMARK    4  A    between atoms: C12_17  and  C13_18 
REMARK    5  A    between atoms: C12_17  and  C14_20 
REMARK    6  A    between atoms: C13_18  and  O2_19 
REMARK    7  A    between atoms: C20_26  and  S1_27 
ROOT
HETATM    1  C1  UNL     1      17.059  -1.241  52.198  1.00  0.00     0.112 C 
HETATM    2  C2  UNL     1      17.553   0.123  51.897  1.00  0.00    -0.101 C 
HETATM    3  C3  UNL     1      17.933   1.230  51.652  1.00  0.00    -0.006 C 
ENDROOT
BRANCH   3   4
HETATM    4  C4  UNL     1      18.397   2.546  51.378  1.00  0.00     0.298 C 
HETATM    5  O1  UNL     1      17.982   3.601  51.958  1.00  0.00    -0.258 OA
HETATM    6  N1  UNL     1      19.369   2.927  50.448  1.00  0.00    -0.336 N 
HETATM    7  C5  UNL     1      19.660   4.355  50.366  1.00  0.00     0.132 C 
HETATM    8  C21 UNL     1      20.164   2.143  49.524  1.00  0.00     0.172 C 
HETATM    9  C6  UNL     1      21.099   4.481  50.862  1.00  0.00     0.060 C 
HETATM   10  C7  UNL     1      21.957   3.869  49.781  1.00  0.00    -0.027 C 
HETATM   11  C8  UNL     1      23.217   4.555  49.604  1.00  0.00     0.035 A 
HETATM   12  C20 UNL     1      21.457   2.791  49.206  1.00  0.00     0.001 C 
HETATM   13  C9  UNL     1      23.011   5.894  49.242  1.00  0.00     0.134 A 
HETATM   14  C11 UNL     1      24.525   4.167  49.741  1.00  0.00     0.137 A 
HETATM   15  N2  UNL     1      24.042   6.765  49.033  1.00  0.00    -0.253 NA
HETATM   16  C10 UNL     1      25.299   6.317  49.182  1.00  0.00     0.234 A 
HETATM   17  N3  UNL     1      25.516   5.040  49.530  1.00  0.00    -0.224 NA
BRANCH  14  18
HETATM   18  N4  UNL     1      24.706   2.828  50.153  1.00  0.00    -0.363 N 
HETATM   19  H10 UNL     1      24.570   1.976  49.591  1.00  0.00     0.162 HD
BRANCH  18  20
HETATM   20  C12 UNL     1      25.114   2.638  51.538  1.00  0.00     0.140 C 
BRANCH  20  21
HETATM   21  C13 UNL     1      26.531   2.196  51.705  1.00  0.00     0.194 C 
BRANCH  21  22
HETATM   22  O2  UNL     1      27.356   3.232  51.207  1.00  0.00    -0.399 OA
HETATM   23  H14 UNL     1      27.532   3.929  51.885  1.00  0.00     0.209 HD
ENDBRANCH  21  22
ENDBRANCH  20  21
BRANCH  20  24
HETATM   24  C14 UNL     1      24.209   1.668  52.225  1.00  0.00    -0.034 A 
HETATM   25  C15 UNL     1      24.887   0.570  52.770  1.00  0.00     0.009 A 
HETATM   26  C16 UNL     1      24.278  -0.455  53.463  1.00  0.00     0.001 A 
HETATM   27  C17 UNL     1      22.911  -0.422  53.646  1.00  0.00     0.000 A 
HETATM   28  C18 UNL     1      22.232   0.653  53.115  1.00  0.00     0.001 A 
HETATM   29  C19 UNL     1      22.847   1.670  52.425  1.00  0.00     0.009 A 
ENDBRANCH  20  24
ENDBRANCH  18  20
ENDBRANCH  14  18
BRANCH  12  30
HETATM   30  S1  UNL     1      22.450   2.054  47.921  1.00  0.00    -0.145 SA
HETATM   31  H20 UNL     1      22.433   2.893  46.796  1.00  0.00     0.107 HD
ENDBRANCH  12  30
ENDBRANCH   3   4
TORSDOF 7
ENDMDL
MODEL 4
REMARK VINA RESULT:      -7.9      3.201      8.038
REMARK  7 active torsions:
REMARK  status: ('A' for Active; 'I' for Inactive)
REMARK    1  A    between atoms: C3_3  and  C4_4 
REMARK       I    between atoms: C4_4  and  N1_6 
REMARK    2  A    between atoms: C11_15  and  N4_16 
REMARK    3  A    between atoms: N4_16  and  C12_17 
REMARK    4  A    between atoms: C12_17  and  C13_18 
REMARK    5  A    between atoms: C12_17  and  C14_20 
REMARK    6  A    between atoms: C13_18  and  O2_19 
REMARK    7  A    between atoms: C20_26  and  S1_27 
ROOT
HETATM    1  C1  UNL     1      21.463  -1.268  53.943  1.00  0.00     0.112 C 
HETATM    2  C2  UNL     1      22.507  -0.396  53.357  1.00  0.00    -0.101 C 
HETATM    3  C3  UNL     1      23.336   0.319  52.876  1.00  0.00    -0.006 C 
ENDROOT
BRANCH   3   4
HETATM    4  C4  UNL     1      24.330   1.173  52.322  1.00  0.00     0.298 C 
HETATM    5  O1  UNL     1      25.523   0.822  52.048  1.00  0.00    -0.258 OA
HETATM    6  N1  UNL     1      24.196   2.522  51.982  1.00  0.00    -0.336 N 
HETATM    7  C5  UNL     1      25.380   3.169  51.427  1.00  0.00     0.132 C 
HETATM    8  C21 UNL     1      23.064   3.423  52.080  1.00  0.00     0.172 C 
HETATM    9  C6  UNL     1      24.998   3.498  49.986  1.00  0.00     0.060 C 
HETATM   10  C7  UNL     1      23.981   4.610  50.077  1.00  0.00    -0.027 C 
HETATM   11  C8  UNL     1      24.102   5.576  49.008  1.00  0.00     0.035 A 
HETATM   12  C20 UNL     1      23.121   4.508  51.073  1.00  0.00     0.001 C 
HETATM   13  C9  UNL     1      25.365   6.185  49.025  1.00  0.00     0.134 A 
HETATM   14  C11 UNL     1      23.259   5.976  48.005  1.00  0.00     0.137 A 
HETATM   15  N2  UNL     1      25.740   7.123  48.105  1.00  0.00    -0.253 NA
HETATM   16  C10 UNL     1      24.862   7.470  47.151  1.00  0.00     0.234 A 
HETATM   17  N3  UNL     1      23.650   6.897  47.118  1.00  0.00    -0.224 NA
BRANCH  14  18
HETATM   18  N4  UNL     1      22.010   5.314  47.980  1.00  0.00    -0.363 N 
HETATM   19  H10 UNL     1      21.128   5.625  48.410  1.00  0.00     0.162 HD
BRANCH  18  20
HETATM   20  C12 UNL     1      21.981   4.037  47.280  1.00  0.00     0.140 C 
BRANCH  20  21
HETATM   21  C13 UNL     1      21.113   4.024  46.065  1.00  0.00     0.194 C 
BRANCH  21  22
HETATM   22  O2  UNL     1      21.917   3.608  44.978  1.00  0.00    -0.399 OA
HETATM   23  H14 UNL     1      22.160   4.358  44.383  1.00  0.00     0.209 HD
ENDBRANCH  21  22
ENDBRANCH  20  21
BRANCH  20  24
HETATM   24  C14 UNL     1      21.559   2.941  48.203  1.00  0.00    -0.034 A 
HETATM   25  C15 UNL     1      20.342   3.199  48.846  1.00  0.00     0.009 A 
HETATM   26  C16 UNL     1      19.734   2.337  49.735  1.00  0.00     0.001 A 
HETATM   27  C17 UNL     1      20.344   1.134  50.028  1.00  0.00     0.000 A 
HETATM   28  C18 UNL     1      21.542   0.869  49.402  1.00  0.00     0.001 A 
HETATM   29  C19 UNL     1      22.141   1.734  48.518  1.00  0.00     0.009 A 
ENDBRANCH  20  24
ENDBRANCH  18  20
ENDBRANCH  14  18
BRANCH  12  30
HETATM   30  S1  UNL     1      21.914   5.814  51.207  1.00  0.00    -0.145 SA
HETATM   31  H20 UNL     1      22.391   6.944  50.526  1.00  0.00     0.107 HD
ENDBRANCH  12  30
ENDBRANCH   3   4
TORSDOF 7
ENDMDL
MODEL 5
REMARK VINA RESULT:      -7.8      2.880      4.774
REMARK  7 active torsions:
REMARK  status: ('A' for Active; 'I' for Inactive)
REMARK    1  A    between atoms: C3_3  and  C4_4 
REMARK       I    between atoms: C4_4  and  N1_6 
REMARK    2  A    between atoms: C11_15  and  N4_16 
REMARK    3  A    between atoms: N4_16  and  C12_17 
REMARK    4  A    between atoms: C12_17  and  C13_18 
REMARK    5  A    between atoms: C12_17  and  C14_20 
REMARK    6  A    between atoms: C13_18  and  O2_19 
REMARK    7  A    between atoms: C20_26  and  S1_27 
ROOT
HETATM    1  C1  UNL     1      23.337   8.225  44.226  1.00  0.00     0.112 C 
HETATM    2  C2  UNL     1      22.854   6.930  44.760  1.00  0.00    -0.101 C 
HETATM    3  C3  UNL     1      22.449   5.894  45.198  1.00  0.00    -0.006 C 
ENDROOT
BRANCH   3   4
HETATM    4  C4  UNL     1      21.968   4.653  45.701  1.00  0.00     0.298 C 
HETATM    5  O1  UNL     1      21.745   3.618  44.995  1.00  0.00    -0.258 OA
HETATM    6  N1  UNL     1      21.657   4.338  47.027  1.00  0.00    -0.336 N 
HETATM    7  C5  UNL     1      21.180   2.982  47.273  1.00  0.00     0.132 C 
HETATM    8  C21 UNL     1      21.724   5.133  48.237  1.00  0.00     0.172 C 
HETATM    9  C6  UNL     1      22.275   2.337  48.120  1.00  0.00     0.060 C 
HETATM   10  C7  UNL     1      22.192   3.007  49.472  1.00  0.00    -0.027 C 
HETATM   11  C8  UNL     1      22.469   2.105  50.566  1.00  0.00     0.035 A 
HETATM   12  C20 UNL     1      21.931   4.301  49.445  1.00  0.00     0.001 C 
HETATM   13  C9  UNL     1      21.550   1.046  50.587  1.00  0.00     0.134 A 
HETATM   14  C11 UNL     1      23.436   2.076  51.537  1.00  0.00     0.137 A 
HETATM   15  N2  UNL     1      21.605   0.044  51.514  1.00  0.00    -0.253 NA
HETATM   16  C10 UNL     1      22.578   0.080  52.438  1.00  0.00     0.234 A 
HETATM   17  N3  UNL     1      23.467   1.085  52.434  1.00  0.00    -0.224 NA
BRANCH  14  18
HETATM   18  N4  UNL     1      24.378   3.127  51.468  1.00  0.00    -0.363 N 
HETATM   19  H10 UNL     1      24.272   4.088  51.823  1.00  0.00     0.162 HD
BRANCH  18  20
HETATM   20  C12 UNL     1      25.632   2.814  50.796  1.00  0.00     0.140 C 
BRANCH  20  21
HETATM   21  C13 UNL     1      26.722   2.363  51.713  1.00  0.00     0.194 C 
BRANCH  21  22
HETATM   22  O2  UNL     1      26.284   2.603  53.036  1.00  0.00    -0.399 OA
HETATM   23  H14 UNL     1      25.305   2.511  53.130  1.00  0.00     0.209 HD
ENDBRANCH  21  22
ENDBRANCH  20  21
BRANCH  20  24
HETATM   24  C14 UNL     1      26.109   3.984  49.999  1.00  0.00    -0.034 A 
HETATM   25  C15 UNL     1      25.336   5.136  50.192  1.00  0.00     0.009 A 
HETATM   26  C16 UNL     1      25.580   6.348  49.581  1.00  0.00     0.001 A 
HETATM   27  C17 UNL     1      26.649   6.461  48.715  1.00  0.00     0.000 A 
HETATM   28  C18 UNL     1      27.417   5.334  48.517  1.00  0.00     0.001 A 
HETATM   29  C19 UNL     1      27.166   4.130  49.130  1.00  0.00     0.009 A 
ENDBRANCH  20  24
ENDBRANCH  18  20
ENDBRANCH  14  18
BRANCH  12  30
HETATM   30  S1  UNL     1      21.821   5.112  51.029  1.00  0.00    -0.145 SA
HETATM   31  H20 UNL     1      21.894   4.144  52.042  1.00  0.00     0.107 HD
ENDBRANCH  12  30
ENDBRANCH   3   4
TORSDOF 7
ENDMDL
MODEL 6
REMARK VINA RESULT:      -7.7      2.866      6.683
REMARK  7 active torsions:
REMARK  status: ('A' for Active; 'I' for Inactive)
REMARK    1  A    between atoms: C3_3  and  C4_4 
REMARK       I    between atoms: C4_4  and  N1_6 
REMARK    2  A    between atoms: C11_15  and  N4_16 
REMARK    3  A    between atoms: N4_16  and  C12_17 
REMARK    4  A    between atoms: C12_17  and  C13_18 
REMARK    5  A    between atoms: C12_17  and  C14_20 
REMARK    6  A    between atoms: C13_18  and  O2_19 
REMARK    7  A    between atoms: C20_26  and  S1_27 
ROOT
HETATM    1  C1  UNL     1      28.602   1.998  54.107  1.00  0.00     0.112 C 
HETATM    2  C2  UNL     1      27.799   2.267  52.892  1.00  0.00    -0.101 C 
HETATM    3  C3  UNL     1      27.163   2.497  51.905  1.00  0.00    -0.006 C 
ENDROOT
BRANCH   3   4
HETATM    4  C4  UNL     1      26.407   2.749  50.727  1.00  0.00     0.298 C 
HETATM    5  O1  UNL     1      26.765   2.431  49.548  1.00  0.00    -0.258 OA
HETATM    6  N1  UNL     1      25.160   3.376  50.638  1.00  0.00    -0.336 N 
HETATM    7  C5  UNL     1      24.600   3.510  49.297  1.00  0.00     0.132 C 
HETATM    8  C21 UNL     1      24.297   3.933  51.660  1.00  0.00     0.172 C 
HETATM    9  C6  UNL     1      23.360   2.618  49.310  1.00  0.00     0.060 C 
HETATM   10  C7  UNL     1      22.361   3.323  50.197  1.00  0.00    -0.027 C 
HETATM   11  C8  UNL     1      20.998   3.179  49.738  1.00  0.00     0.035 A 
HETATM   12  C20 UNL     1      22.870   3.910  51.265  1.00  0.00     0.001 C 
HETATM   13  C9  UNL     1      20.844   3.720  48.454  1.00  0.00     0.134 A 
HETATM   14  C11 UNL     1      19.876   2.616  50.288  1.00  0.00     0.137 A 
HETATM   15  N2  UNL     1      19.653   3.695  47.785  1.00  0.00    -0.253 NA
HETATM   16  C10 UNL     1      18.593   3.129  48.385  1.00  0.00     0.234 A 
HETATM   17  N3  UNL     1      18.722   2.605  49.613  1.00  0.00    -0.224 NA
BRANCH  14  18
HETATM   18  N4  UNL     1      20.068   2.035  51.562  1.00  0.00    -0.363 N 
HETATM   19  H10 UNL     1      20.176   2.523  52.463  1.00  0.00     0.162 HD
BRANCH  18  20
HETATM   20  C12 UNL     1      20.140   0.581  51.595  1.00  0.00     0.140 C 
BRANCH  20  21
HETATM   21  C13 UNL     1      18.857  -0.088  51.969  1.00  0.00     0.194 C 
BRANCH  21  22
HETATM   22  O2  UNL     1      18.096  -0.230  50.785  1.00  0.00    -0.399 OA
HETATM   23  H14 UNL     1      18.615  -0.643  50.054  1.00  0.00     0.209 HD
ENDBRANCH  21  22
ENDBRANCH  20  21
BRANCH  20  24
HETATM   24  C14 UNL     1      21.223   0.128  52.518  1.00  0.00    -0.034 A 
HETATM   25  C15 UNL     1      20.753  -0.665  53.573  1.00  0.00     0.009 A 
HETATM   26  C16 UNL     1      21.557  -1.216  54.550  1.00  0.00     0.001 A 
HETATM   27  C17 UNL     1      22.916  -0.985  54.510  1.00  0.00     0.000 A 
HETATM   28  C18 UNL     1      23.391  -0.207  53.476  1.00  0.00     0.001 A 
HETATM   29  C19 UNL     1      22.583   0.338  52.508  1.00  0.00     0.009 A 
ENDBRANCH  20  24
ENDBRANCH  18  20
ENDBRANCH  14  18
BRANCH  12  30
HETATM   30  S1  UNL     1      21.711   4.754  52.325  1.00  0.00    -0.145 SA
HETATM   31  H20 UNL     1      20.820   5.489  51.529  1.00  0.00     0.107 HD
ENDBRANCH  12  30
ENDBRANCH   3   4
TORSDOF 7
ENDMDL
MODEL 7
REMARK VINA RESULT:      -7.5      2.678      7.590
REMARK  7 active torsions:
REMARK  status: ('A' for Active; 'I' for Inactive)
REMARK    1  A    between atoms: C3_3  and  C4_4 
REMARK       I    between atoms: C4_4  and  N1_6 
REMARK    2  A    between atoms: C11_15  and  N4_16 
REMARK    3  A    between atoms: N4_16  and  C12_17 
REMARK    4  A    between atoms: C12_17  and  C13_18 
REMARK    5  A    between atoms: C12_17  and  C14_20 
REMARK    6  A    between atoms: C13_18  and  O2_19 
REMARK    7  A    between atoms: C20_26  and  S1_27 
ROOT
HETATM    1  C1  UNL     1      28.818   0.792  54.713  1.00  0.00     0.112 C 
HETATM    2  C2  UNL     1      27.410   0.342  54.621  1.00  0.00    -0.101 C 
HETATM    3  C3  UNL     1      26.277  -0.031  54.530  1.00  0.00    -0.006 C 
ENDROOT
BRANCH   3   4
HETATM    4  C4  UNL     1      24.931  -0.481  54.443  1.00  0.00     0.298 C 
HETATM    5  O1  UNL     1      24.354  -1.228  55.297  1.00  0.00    -0.258 OA
HETATM    6  N1  UNL     1      24.006  -0.201  53.432  1.00  0.00    -0.336 N 
HETATM    7  C5  UNL     1      22.682  -0.793  53.585  1.00  0.00     0.132 C 
HETATM    8  C21 UNL     1      24.124   0.594  52.225  1.00  0.00     0.172 C 
HETATM    9  C6  UNL     1      21.750   0.399  53.793  1.00  0.00     0.060 C 
HETATM   10  C7  UNL     1      21.685   1.102  52.459  1.00  0.00    -0.027 C 
HETATM   11  C8  UNL     1      20.379   1.652  52.173  1.00  0.00     0.035 A 
HETATM   12  C20 UNL     1      22.822   1.150  51.790  1.00  0.00     0.001 C 
HETATM   13  C9  UNL     1      19.408   0.641  52.141  1.00  0.00     0.134 A 
HETATM   14  C11 UNL     1      19.923   2.926  51.959  1.00  0.00     0.137 A 
HETATM   15  N2  UNL     1      18.086   0.900  51.909  1.00  0.00    -0.253 NA
HETATM   16  C10 UNL     1      17.709   2.172  51.705  1.00  0.00     0.234 A 
HETATM   17  N3  UNL     1      18.625   3.152  51.733  1.00  0.00    -0.224 NA
BRANCH  14  18
HETATM   18  N4  UNL     1      20.912   3.933  52.043  1.00  0.00    -0.363 N 
HETATM   19  H10 UNL     1      21.709   3.973  52.693  1.00  0.00     0.162 HD
BRANCH  18  20
HETATM   20  C12 UNL     1      20.768   5.046  51.115  1.00  0.00     0.140 C 
BRANCH  20  21
HETATM   21  C13 UNL     1      20.388   4.641  49.728  1.00  0.00     0.194 C 
BRANCH  21  22
HETATM   22  O2  UNL     1      19.122   5.211  49.456  1.00  0.00    -0.399 OA
HETATM   23  H14 UNL     1      18.702   5.592  50.264  1.00  0.00     0.209 HD
ENDBRANCH  21  22
ENDBRANCH  20  21
BRANCH  20  24
HETATM   24  C14 UNL     1      22.021   5.858  51.070  1.00  0.00    -0.034 A 
HETATM   25  C15 UNL     1      21.834   7.130  50.513  1.00  0.00     0.009 A 
HETATM   26  C16 UNL     1      22.832   8.071  50.372  1.00  0.00     0.001 A 
HETATM   27  C17 UNL     1      24.108   7.766  50.798  1.00  0.00     0.000 A 
HETATM   28  C18 UNL     1      24.305   6.518  51.348  1.00  0.00     0.001 A 
HETATM   29  C19 UNL     1      23.304   5.586  51.484  1.00  0.00     0.009 A 
ENDBRANCH  20  24
ENDBRANCH  18  20
ENDBRANCH  14  18
BRANCH  12  30
HETATM   30  S1  UNL     1      22.769   1.970  50.207  1.00  0.00    -0.145 SA
HETATM   31  H20 UNL     1      21.604   2.748  50.137  1.00  0.00     0.107 HD
ENDBRANCH  12  30
ENDBRANCH   3   4
TORSDOF 7
ENDMDL
MODEL 8
REMARK VINA RESULT:      -7.3      3.303      5.844
REMARK  7 active torsions:
REMARK  status: ('A' for Active; 'I' for Inactive)
REMARK    1  A    between atoms: C3_3  and  C4_4 
REMARK       I    between atoms: C4_4  and  N1_6 
REMARK    2  A    between atoms: C11_15  and  N4_16 
REMARK    3  A    between atoms: N4_16  and  C12_17 
REMARK    4  A    between atoms: C12_17  and  C13_18 
REMARK    5  A    between atoms: C12_17  and  C14_20 
REMARK    6  A    between atoms: C13_18  and  O2_19 
REMARK    7  A    between atoms: C20_26  and  S1_27 
ROOT
HETATM    1  C1  UNL     1      15.159  -1.932  50.993  1.00  0.00     0.112 C 
HETATM    2  C2  UNL     1      15.741  -0.571  51.057  1.00  0.00    -0.101 C 
HETATM    3  C3  UNL     1      16.193   0.535  51.105  1.00  0.00    -0.006 C 
ENDROOT
BRANCH   3   4
HETATM    4  C4  UNL     1      16.740   1.846  51.182  1.00  0.00     0.298 C 
HETATM    5  O1  UNL     1      16.234   2.811  51.839  1.00  0.00    -0.258 OA
HETATM    6  N1  UNL     1      17.906   2.316  50.569  1.00  0.00    -0.336 N 
HETATM    7  C5  UNL     1      18.245   3.714  50.812  1.00  0.00     0.132 C 
HETATM    8  C21 UNL     1      18.868   1.652  49.712  1.00  0.00     0.172 C 
HETATM    9  C6  UNL     1      19.538   3.660  51.623  1.00  0.00     0.060 C 
HETATM   10  C7  UNL     1      20.602   3.187  50.660  1.00  0.00    -0.027 C 
HETATM   11  C8  UNL     1      21.886   3.809  50.888  1.00  0.00     0.035 A 
HETATM   12  C20 UNL     1      20.216   2.258  49.805  1.00  0.00     0.001 C 
HETATM   13  C9  UNL     1      21.801   5.201  50.738  1.00  0.00     0.134 A 
HETATM   14  C11 UNL     1      23.119   3.319  51.232  1.00  0.00     0.137 A 
HETATM   15  N2  UNL     1      22.875   6.025  50.919  1.00  0.00    -0.253 NA
HETATM   16  C10 UNL     1      24.054   5.477  51.253  1.00  0.00     0.234 A 
HETATM   17  N3  UNL     1      24.154   4.148  51.402  1.00  0.00    -0.224 NA
BRANCH  14  18
HETATM   18  N4  UNL     1      23.169   1.920  51.424  1.00  0.00    -0.363 N 
HETATM   19  H10 UNL     1      23.033   1.185  50.715  1.00  0.00     0.162 HD
BRANCH  18  20
HETATM   20  C12 UNL     1      23.422   1.473  52.787  1.00  0.00     0.140 C 
BRANCH  20  21
HETATM   21  C13 UNL     1      24.772   0.866  52.992  1.00  0.00     0.194 C 
BRANCH  21  22
HETATM   22  O2  UNL     1      25.544   1.161  51.844  1.00  0.00    -0.399 OA
HETATM   23  H14 UNL     1      25.975   2.048  51.900  1.00  0.00     0.209 HD
ENDBRANCH  21  22
ENDBRANCH  20  21
BRANCH  20  24
HETATM   24  C14 UNL     1      22.372   0.505  53.226  1.00  0.00    -0.034 A 
HETATM   25  C15 UNL     1      22.881  -0.554  53.987  1.00  0.00     0.009 A 
HETATM   26  C16 UNL     1      22.114  -1.569  54.521  1.00  0.00     0.001 A 
HETATM   27  C17 UNL     1      20.751  -1.564  54.304  1.00  0.00     0.000 A 
HETATM   28  C18 UNL     1      20.237  -0.527  53.557  1.00  0.00     0.001 A 
HETATM   29  C19 UNL     1      21.010   0.480  53.030  1.00  0.00     0.009 A 
ENDBRANCH  20  24
ENDBRANCH  18  20
ENDBRANCH  14  18
BRANCH  12  30
HETATM   30  S1  UNL     1      21.452   1.688  48.654  1.00  0.00    -0.145 SA
HETATM   31  H20 UNL     1      22.698   1.663  49.300  1.00  0.00     0.107 HD
ENDBRANCH  12  30
ENDBRANCH   3   4
TORSDOF 7
ENDMDL
MODEL 9
REMARK VINA RESULT:      -7.3      3.255      6.634
REMARK  7 active torsions:
REMARK  status: ('A' for Active; 'I' for Inactive)
REMARK    1  A    between atoms: C3_3  and  C4_4 
REMARK       I    between atoms: C4_4  and  N1_6 
REMARK    2  A    between atoms: C11_15  and  N4_16 
REMARK    3  A    between atoms: N4_16  and  C12_17 
REMARK    4  A    between atoms: C12_17  and  C13_18 
REMARK    5  A    between atoms: C12_17  and  C14_20 
REMARK    6  A    between atoms: C13_18  and  O2_19 
REMARK    7  A    between atoms: C20_26  and  S1_27 
ROOT
HETATM    1  C1  UNL     1      24.722  -1.574  54.907  1.00  0.00     0.112 C 
HETATM    2  C2  UNL     1      23.506  -0.845  54.476  1.00  0.00    -0.101 C 
HETATM    3  C3  UNL     1      22.534  -0.240  54.133  1.00  0.00    -0.006 C 
ENDROOT
BRANCH   3   4
HETATM    4  C4  UNL     1      21.377   0.470  53.706  1.00  0.00     0.298 C 
HETATM    5  O1  UNL     1      20.382   0.757  54.446  1.00  0.00    -0.258 OA
HETATM    6  N1  UNL     1      21.115   0.975  52.428  1.00  0.00    -0.336 N 
HETATM    7  C5  UNL     1      19.843   1.669  52.257  1.00  0.00     0.132 C 
HETATM    8  C21 UNL     1      21.897   0.936  51.209  1.00  0.00     0.172 C 
HETATM    9  C6  UNL     1      20.232   3.119  51.979  1.00  0.00     0.060 C 
HETATM   10  C7  UNL     1      20.840   3.120  50.597  1.00  0.00    -0.027 C 
HETATM   11  C8  UNL     1      20.522   4.310  49.841  1.00  0.00     0.035 A 
HETATM   12  C20 UNL     1      21.597   2.076  50.312  1.00  0.00     0.001 C 
HETATM   13  C9  UNL     1      19.136   4.437  49.669  1.00  0.00     0.134 A 
HETATM   14  C11 UNL     1      21.285   5.312  49.301  1.00  0.00     0.137 A 
HETATM   15  N2  UNL     1      18.572   5.489  49.004  1.00  0.00    -0.253 NA
HETATM   16  C10 UNL     1      19.380   6.434  48.498  1.00  0.00     0.234 A 
HETATM   17  N3  UNL     1      20.708   6.330  48.654  1.00  0.00    -0.224 NA
BRANCH  14  18
HETATM   18  N4  UNL     1      22.675   5.187  49.528  1.00  0.00    -0.363 N 
HETATM   19  H10 UNL     1      23.385   4.825  48.877  1.00  0.00     0.162 HD
BRANCH  18  20
HETATM   20  C12 UNL     1      23.144   5.602  50.843  1.00  0.00     0.140 C 
BRANCH  20  21
HETATM   21  C13 UNL     1      24.023   6.810  50.827  1.00  0.00     0.194 C 
BRANCH  21  22
HETATM   22  O2  UNL     1      24.390   7.080  52.166  1.00  0.00    -0.399 OA
HETATM   23  H14 UNL     1      24.852   6.316  52.589  1.00  0.00     0.209 HD
ENDBRANCH  21  22
ENDBRANCH  20  21
BRANCH  20  24
HETATM   24  C14 UNL     1      23.857   4.480  51.525  1.00  0.00    -0.034 A 
HETATM   25  C15 UNL     1      24.866   3.908  50.739  1.00  0.00     0.009 A 
HETATM   26  C16 UNL     1      25.674   2.868  51.148  1.00  0.00     0.001 A 
HETATM   27  C17 UNL     1      25.498   2.336  52.409  1.00  0.00     0.000 A 
HETATM   28  C18 UNL     1      24.509   2.890  53.192  1.00  0.00     0.001 A 
HETATM   29  C19 UNL     1      23.708   3.926  52.776  1.00  0.00     0.009 A 
ENDBRANCH  20  24
ENDBRANCH  18  20
ENDBRANCH  14  18
BRANCH  12  30
HETATM   30  S1  UNL     1      22.320   2.052  48.683  1.00  0.00    -0.145 SA
HETATM   31  H20 UNL     1      23.696   2.307  48.793  1.00  0.00     0.107 HD
ENDBRANCH  12  30
ENDBRANCH   3   4
TORSDOF 7
ENDMDL
