MODEL 1
REMARK VINA RESULT:      -7.5      0.000      0.000
REMARK  3 active torsions:
REMARK  status: ('A' for Active; 'I' for Inactive)
REMARK    1  A    between atoms: C2_2  and  C3_3 
REMARK    2  A    between atoms: C3_3  and  C4_4 
REMARK       I    between atoms: C4_4  and  N1_6 
REMARK    3  A    between atoms: N3_21  and  C17_22 
ROOT
HETATM    1  C4  UNL     1      24.749   1.686  52.802  1.00  0.00     0.225 C 
HETATM    2  O1  UNL     1      23.652   1.475  53.392  1.00  0.00    -0.273 OA
HETATM    3  N1  UNL     1      24.876   2.464  51.593  1.00  0.00    -0.304 N 
HETATM    4  C5  UNL     1      26.221   2.566  51.138  1.00  0.00     0.096 A 
HETATM    5  C6  UNL     1      26.620   3.248  50.085  1.00  0.00     0.017 A 
HETATM    6  C7  UNL     1      25.657   3.976  49.275  1.00  0.00     0.001 A 
HETATM    7  C8  UNL     1      24.426   3.843  49.729  1.00  0.00     0.017 A 
HETATM    8  C9  UNL     1      23.799   3.102  50.893  1.00  0.00     0.136 A 
HETATM    9  C10 UNL     1      22.964   4.007  51.701  1.00  0.00     0.013 C 
HETATM   10  C11 UNL     1      21.776   4.121  52.328  1.00  0.00    -0.018 C 
HETATM   11  C12 UNL     1      21.073   2.826  52.103  1.00  0.00     0.043 C 
HETATM   12  C13 UNL     1      19.861   2.351  52.465  1.00  0.00     0.003 C 
HETATM   13  C14 UNL     1      19.943   1.001  51.859  1.00  0.00     0.023 C 
HETATM   14 BR1  UNL     1      18.483  -0.257  51.967  1.00  0.00    -0.050 Br
HETATM   15  C15 UNL     1      20.963   0.519  51.205  1.00  0.00     0.108 C 
HETATM   16  N2  UNL     1      22.257   0.965  50.828  1.00  0.00    -0.351 N 
HETATM   17  C16 UNL     1      22.859   2.106  50.237  1.00  0.00     0.138 C 
HETATM   18  N3  UNL     1      22.236   1.753  49.172  1.00  0.00    -0.243 NA
HETATM   19  H17 UNL     1      23.124   0.355  50.990  1.00  0.00     0.166 HD
ENDROOT
BRANCH   1  20
HETATM   20  C3  UNL     1      25.893   1.056  53.473  1.00  0.00     0.103 C 
BRANCH  20  21
HETATM   21  C2  UNL     1      25.844  -0.435  53.441  1.00  0.00     0.005 C 
HETATM   22  C1  UNL     1      26.712  -1.027  52.357  1.00  0.00     0.005 C 
ENDBRANCH  20  21
ENDBRANCH   1  20
BRANCH  18  23
HETATM   23  C17 UNL     1      22.240   2.379  47.898  1.00  0.00     0.372 C 
HETATM   24  F1  UNL     1      22.994   1.700  46.933  1.00  0.00    -0.232 F 
ENDBRANCH  18  23
TORSDOF 3
ENDMDL
MODEL 2
REMARK VINA RESULT:      -7.4      2.542      3.748
REMARK  3 active torsions:
REMARK  status: ('A' for Active; 'I' for Inactive)
REMARK    1  A    between atoms: C2_2  and  C3_3 
REMARK    2  A    between atoms: C3_3  and  C4_4 
REMARK       I    between atoms: C4_4  and  N1_6 
REMARK    3  A    between atoms: N3_21  and  C17_22 
ROOT
HETATM    1  C4  UNL     1      22.968   0.645  52.648  1.00  0.00     0.225 C 
HETATM    2  O1  UNL     1      22.053   1.501  52.489  1.00  0.00    -0.273 OA
HETATM    3  N1  UNL     1      24.377   0.948  52.573  1.00  0.00    -0.304 N 
HETATM    4  C5  UNL     1      25.202  -0.188  52.808  1.00  0.00     0.096 A 
HETATM    5  C6  UNL     1      26.519  -0.181  52.836  1.00  0.00     0.017 A 
HETATM    6  C7  UNL     1      27.250   1.055  52.613  1.00  0.00     0.001 A 
HETATM    7  C8  UNL     1      26.445   2.075  52.390  1.00  0.00     0.017 A 
HETATM    8  C9  UNL     1      24.940   2.241  52.312  1.00  0.00     0.136 A 
HETATM    9  C10 UNL     1      24.485   3.324  53.199  1.00  0.00     0.013 C 
HETATM   10  C11 UNL     1      23.675   4.400  53.277  1.00  0.00    -0.018 C 
HETATM   11  C12 UNL     1      22.999   4.494  51.952  1.00  0.00     0.043 C 
HETATM   12  C13 UNL     1      22.103   5.356  51.424  1.00  0.00     0.003 C 
HETATM   13  C14 UNL     1      21.945   4.747  50.083  1.00  0.00     0.023 C 
HETATM   14 BR1  UNL     1      20.788   5.515  48.742  1.00  0.00    -0.050 Br
HETATM   15  C15 UNL     1      22.542   3.667  49.660  1.00  0.00     0.108 C 
HETATM   16  N2  UNL     1      23.461   2.719  50.183  1.00  0.00    -0.351 N 
HETATM   17  C16 UNL     1      24.692   2.707  50.887  1.00  0.00     0.138 C 
HETATM   18  N3  UNL     1      25.193   3.192  49.810  1.00  0.00    -0.243 NA
HETATM   19  H17 UNL     1      23.285   1.665  50.089  1.00  0.00     0.166 HD
ENDROOT
BRANCH   1  20
HETATM   20  C3  UNL     1      22.453  -0.703  52.921  1.00  0.00     0.103 C 
BRANCH  20  21
HETATM   21  C2  UNL     1      21.824  -0.830  54.268  1.00  0.00     0.005 C 
HETATM   22  C1  UNL     1      22.788  -1.321  55.321  1.00  0.00     0.005 C 
ENDBRANCH  20  21
ENDBRANCH   1  20
BRANCH  18  23
HETATM   23  C17 UNL     1      26.542   3.546  49.544  1.00  0.00     0.372 C 
HETATM   24  F1  UNL     1      26.683   4.598  48.629  1.00  0.00    -0.232 F 
ENDBRANCH  18  23
TORSDOF 3
ENDMDL
MODEL 3
REMARK VINA RESULT:      -7.4      3.275      5.705
REMARK  3 active torsions:
REMARK  status: ('A' for Active; 'I' for Inactive)
REMARK    1  A    between atoms: C2_2  and  C3_3 
REMARK    2  A    between atoms: C3_3  and  C4_4 
REMARK       I    between atoms: C4_4  and  N1_6 
REMARK    3  A    between atoms: N3_21  and  C17_22 
ROOT
HETATM    1  C4  UNL     1      26.019   2.840  50.564  1.00  0.00     0.225 C 
HETATM    2  O1  UNL     1      27.134   2.469  51.025  1.00  0.00    -0.273 OA
HETATM    3  N1  UNL     1      24.763   2.665  51.253  1.00  0.00    -0.304 N 
HETATM    4  C5  UNL     1      23.655   3.185  50.528  1.00  0.00     0.096 A 
HETATM    5  C6  UNL     1      22.406   3.191  50.945  1.00  0.00     0.017 A 
HETATM    6  C7  UNL     1      22.064   2.631  52.242  1.00  0.00     0.001 A 
HETATM    7  C8  UNL     1      23.119   2.153  52.870  1.00  0.00     0.017 A 
HETATM    8  C9  UNL     1      24.596   2.055  52.540  1.00  0.00     0.136 A 
HETATM    9  C10 UNL     1      25.414   2.622  53.624  1.00  0.00     0.013 C 
HETATM   10  C11 UNL     1      26.511   2.419  54.381  1.00  0.00    -0.018 C 
HETATM   11  C12 UNL     1      27.092   1.128  53.913  1.00  0.00     0.043 C 
HETATM   12  C13 UNL     1      28.166   0.400  54.289  1.00  0.00     0.003 C 
HETATM   13  C14 UNL     1      28.041  -0.724  53.332  1.00  0.00     0.023 C 
HETATM   14 BR1  UNL     1      29.279  -2.205  53.329  1.00  0.00    -0.050 Br
HETATM   15  C15 UNL     1      27.121  -0.847  52.416  1.00  0.00     0.108 C 
HETATM   16  N2  UNL     1      25.999  -0.102  51.966  1.00  0.00    -0.351 N 
HETATM   17  C16 UNL     1      24.873   0.561  52.518  1.00  0.00     0.138 C 
HETATM   18  N3  UNL     1      24.467  -0.615  52.832  1.00  0.00    -0.243 NA
HETATM   19  H17 UNL     1      25.845   0.095  50.924  1.00  0.00     0.166 HD
ENDROOT
BRANCH   1  20
HETATM   20  C3  UNL     1      26.126   3.475  49.243  1.00  0.00     0.103 C 
BRANCH  20  21
HETATM   21  C2  UNL     1      26.648   4.871  49.304  1.00  0.00     0.005 C 
HETATM   22  C1  UNL     1      27.928   5.053  48.525  1.00  0.00     0.005 C 
ENDBRANCH  20  21
ENDBRANCH   1  20
BRANCH  18  23
HETATM   23  C17 UNL     1      23.270  -0.987  53.500  1.00  0.00     0.372 C 
HETATM   24  F1  UNL     1      22.142  -1.018  52.670  1.00  0.00    -0.232 F 
ENDBRANCH  18  23
TORSDOF 3
ENDMDL
MODEL 4
REMARK VINA RESULT:      -7.2      2.917      4.569
REMARK  3 active torsions:
REMARK  status: ('A' for Active; 'I' for Inactive)
REMARK    1  A    between atoms: C2_2  and  C3_3 
REMARK    2  A    between atoms: C3_3  and  C4_4 
REMARK       I    between atoms: C4_4  and  N1_6 
REMARK    3  A    between atoms: N3_21  and  C17_22 
ROOT
HETATM    1  C4  UNL     1      24.916   1.704  52.175  1.00  0.00     0.225 C 
HETATM    2  O1  UNL     1      25.425   2.671  51.541  1.00  0.00    -0.273 OA
HETATM    3  N1  UNL     1      23.547   1.275  52.027  1.00  0.00    -0.304 N 
HETATM    4  C5  UNL     1      23.227   0.151  52.841  1.00  0.00     0.096 A 
HETATM    5  C6  UNL     1      22.062  -0.463  52.869  1.00  0.00     0.017 A 
HETATM    6  C7  UNL     1      20.971  -0.003  52.026  1.00  0.00     0.001 A 
HETATM    7  C8  UNL     1      21.311   1.044  51.301  1.00  0.00     0.017 A 
HETATM    8  C9  UNL     1      22.575   1.868  51.155  1.00  0.00     0.136 A 
HETATM    9  C10 UNL     1      22.971   1.975  49.742  1.00  0.00     0.013 C 
HETATM   10  C11 UNL     1      23.404   2.833  48.794  1.00  0.00    -0.018 C 
HETATM   11  C12 UNL     1      23.517   4.157  49.469  1.00  0.00     0.043 C 
HETATM   12  C13 UNL     1      23.879   5.388  49.045  1.00  0.00     0.003 C 
HETATM   13  C14 UNL     1      23.732   6.132  50.319  1.00  0.00     0.023 C 
HETATM   14 BR1  UNL     1      24.070   8.029  50.438  1.00  0.00    -0.050 Br
HETATM   15  C15 UNL     1      23.370   5.621  51.463  1.00  0.00     0.108 C 
HETATM   16  N2  UNL     1      23.012   4.340  51.959  1.00  0.00    -0.351 N 
HETATM   17  C16 UNL     1      22.164   3.261  51.603  1.00  0.00     0.138 C 
HETATM   18  N3  UNL     1      21.201   4.069  51.861  1.00  0.00    -0.243 NA
HETATM   19  H17 UNL     1      23.445   3.953  52.861  1.00  0.00     0.166 HD
ENDROOT
BRANCH   1  20
HETATM   20  C3  UNL     1      25.866   1.053  53.087  1.00  0.00     0.103 C 
BRANCH  20  21
HETATM   21  C2  UNL     1      26.907   0.253  52.378  1.00  0.00     0.005 C 
HETATM   22  C1  UNL     1      26.654  -1.233  52.450  1.00  0.00     0.005 C 
ENDBRANCH  20  21
ENDBRANCH   1  20
BRANCH  18  23
HETATM   23  C17 UNL     1      19.804   3.832  51.781  1.00  0.00     0.372 C 
HETATM   24  F1  UNL     1      19.341   3.596  50.479  1.00  0.00    -0.232 F 
ENDBRANCH  18  23
TORSDOF 3
ENDMDL
MODEL 5
REMARK VINA RESULT:      -6.9      2.821      4.507
REMARK  3 active torsions:
REMARK  status: ('A' for Active; 'I' for Inactive)
REMARK    1  A    between atoms: C2_2  and  C3_3 
REMARK    2  A    between atoms: C3_3  and  C4_4 
REMARK       I    between atoms: C4_4  and  N1_6 
REMARK    3  A    between atoms: N3_21  and  C17_22 
ROOT
HETATM    1  C4  UNL     1      23.008   4.096  51.085  1.00  0.00     0.225 C 
HETATM    2  O1  UNL     1      22.003   4.281  50.341  1.00  0.00    -0.273 OA
HETATM    3  N1  UNL     1      23.293   2.852  51.759  1.00  0.00    -0.304 N 
HETATM    4  C5  UNL     1      24.494   2.897  52.521  1.00  0.00     0.096 A 
HETATM    5  C6  UNL     1      25.004   1.891  53.200  1.00  0.00     0.017 A 
HETATM    6  C7  UNL     1      24.332   0.602  53.215  1.00  0.00     0.001 A 
HETATM    7  C8  UNL     1      23.222   0.613  52.505  1.00  0.00     0.017 A 
HETATM    8  C9  UNL     1      22.495   1.662  51.688  1.00  0.00     0.136 A 
HETATM    9  C10 UNL     1      22.212   1.167  50.332  1.00  0.00     0.013 C 
HETATM   10  C11 UNL     1      21.262   1.091  49.376  1.00  0.00    -0.018 C 
HETATM   11  C12 UNL     1      20.068   1.785  49.937  1.00  0.00     0.043 C 
HETATM   12  C13 UNL     1      18.822   2.019  49.469  1.00  0.00     0.003 C 
HETATM   13  C14 UNL     1      18.268   2.764  50.623  1.00  0.00     0.023 C 
HETATM   14 BR1  UNL     1      16.446   3.401  50.646  1.00  0.00    -0.050 Br
HETATM   15  C15 UNL     1      18.911   3.065  51.716  1.00  0.00     0.108 C 
HETATM   16  N2  UNL     1      20.217   2.870  52.238  1.00  0.00    -0.351 N 
HETATM   17  C16 UNL     1      21.156   1.816  52.388  1.00  0.00     0.138 C 
HETATM   18  N3  UNL     1      20.317   1.329  53.227  1.00  0.00    -0.243 NA
HETATM   19  H17 UNL     1      20.770   3.680  52.670  1.00  0.00     0.166 HD
ENDROOT
BRANCH   1  20
HETATM   20  C3  UNL     1      23.866   5.283  51.196  1.00  0.00     0.103 C 
BRANCH  20  21
HETATM   21  C2  UNL     1      24.503   5.670  49.904  1.00  0.00     0.005 C 
HETATM   22  C1  UNL     1      25.466   4.628  49.390  1.00  0.00     0.005 C 
ENDBRANCH  20  21
ENDBRANCH   1  20
BRANCH  18  23
HETATM   23  C17 UNL     1      20.420   0.133  53.986  1.00  0.00     0.372 C 
HETATM   24  F1  UNL     1      21.130   0.280  55.185  1.00  0.00    -0.232 F 
ENDBRANCH  18  23
TORSDOF 3
ENDMDL
MODEL 6
REMARK VINA RESULT:      -6.7      7.429     10.061
REMARK  3 active torsions:
REMARK  status: ('A' for Active; 'I' for Inactive)
REMARK    1  A    between atoms: C2_2  and  C3_3 
REMARK    2  A    between atoms: C3_3  and  C4_4 
REMARK       I    between atoms: C4_4  and  N1_6 
REMARK    3  A    between atoms: N3_21  and  C17_22 
ROOT
HETATM    1  C4  UNL     1      27.506   6.298  48.548  1.00  0.00     0.225 C 
HETATM    2  O1  UNL     1      28.499   5.657  48.101  1.00  0.00    -0.273 OA
HETATM    3  N1  UNL     1      27.399   7.737  48.520  1.00  0.00    -0.304 N 
HETATM    4  C5  UNL     1      26.174   8.212  49.068  1.00  0.00     0.096 A 
HETATM    5  C6  UNL     1      25.805   9.474  49.130  1.00  0.00     0.017 A 
HETATM    6  C7  UNL     1      26.677  10.518  48.617  1.00  0.00     0.001 A 
HETATM    7  C8  UNL     1      27.801  10.031  48.131  1.00  0.00     0.017 A 
HETATM    8  C9  UNL     1      28.382   8.638  47.993  1.00  0.00     0.136 A 
HETATM    9  C10 UNL     1      28.802   8.379  46.607  1.00  0.00     0.013 C 
HETATM   10  C11 UNL     1      29.793   7.869  45.846  1.00  0.00    -0.018 C 
HETATM   11  C12 UNL     1      30.832   7.392  46.802  1.00  0.00     0.043 C 
HETATM   12  C13 UNL     1      32.042   6.811  46.648  1.00  0.00     0.003 C 
HETATM   13  C14 UNL     1      32.416   6.653  48.073  1.00  0.00     0.023 C 
HETATM   14 BR1  UNL     1      34.107   5.889  48.606  1.00  0.00    -0.050 Br
HETATM   15  C15 UNL     1      31.684   6.997  49.096  1.00  0.00     0.108 C 
HETATM   16  N2  UNL     1      30.406   7.578  49.308  1.00  0.00    -0.351 N 
HETATM   17  C16 UNL     1      29.646   8.678  48.835  1.00  0.00     0.138 C 
HETATM   18  N3  UNL     1      30.516   9.403  49.439  1.00  0.00    -0.243 NA
HETATM   19  H17 UNL     1      29.710   7.149  50.002  1.00  0.00     0.166 HD
ENDROOT
BRANCH   1  20
HETATM   20  C3  UNL     1      26.462   5.427  49.102  1.00  0.00     0.103 C 
BRANCH  20  21
HETATM   21  C2  UNL     1      26.903   4.010  49.262  1.00  0.00     0.005 C 
HETATM   22  C1  UNL     1      25.990   3.210  50.158  1.00  0.00     0.005 C 
ENDBRANCH  20  21
ENDBRANCH   1  20
BRANCH  18  23
HETATM   23  C17 UNL     1      30.575  10.819  49.529  1.00  0.00     0.372 C 
HETATM   24  F1  UNL     1      30.859  11.454  48.313  1.00  0.00    -0.232 F 
ENDBRANCH  18  23
TORSDOF 3
ENDMDL
MODEL 7
REMARK VINA RESULT:      -6.5      3.273      4.990
REMARK  3 active torsions:
REMARK  status: ('A' for Active; 'I' for Inactive)
REMARK    1  A    between atoms: C2_2  and  C3_3 
REMARK    2  A    between atoms: C3_3  and  C4_4 
REMARK       I    between atoms: C4_4  and  N1_6 
REMARK    3  A    between atoms: N3_21  and  C17_22 
ROOT
HETATM    1  C4  UNL     1      23.418   1.430  51.789  1.00  0.00     0.225 C 
HETATM    2  O1  UNL     1      23.941   2.077  50.839  1.00  0.00    -0.273 OA
HETATM    3  N1  UNL     1      22.028   1.044  51.831  1.00  0.00    -0.304 N 
HETATM    4  C5  UNL     1      21.692   0.307  53.001  1.00  0.00     0.096 A 
HETATM    5  C6  UNL     1      20.506  -0.198  53.271  1.00  0.00     0.017 A 
HETATM    6  C7  UNL     1      19.405  -0.019  52.339  1.00  0.00     0.001 A 
HETATM    7  C8  UNL     1      19.761   0.677  51.278  1.00  0.00     0.017 A 
HETATM    8  C9  UNL     1      21.050   1.330  50.821  1.00  0.00     0.136 A 
HETATM    9  C10 UNL     1      21.401   0.901  49.458  1.00  0.00     0.013 C 
HETATM   10  C11 UNL     1      21.834   1.337  48.257  1.00  0.00    -0.018 C 
HETATM   11  C12 UNL     1      22.023   2.808  48.404  1.00  0.00     0.043 C 
HETATM   12  C13 UNL     1      22.418   3.784  47.558  1.00  0.00     0.003 C 
HETATM   13  C14 UNL     1      22.345   4.943  48.478  1.00  0.00     0.023 C 
HETATM   14 BR1  UNL     1      22.762   6.736  47.897  1.00  0.00    -0.050 Br
HETATM   15  C15 UNL     1      22.003   4.898  49.736  1.00  0.00     0.108 C 
HETATM   16  N2  UNL     1      21.612   3.901  50.669  1.00  0.00    -0.351 N 
HETATM   17  C16 UNL     1      20.710   2.809  50.742  1.00  0.00     0.138 C 
HETATM   18  N3  UNL     1      19.790   3.702  50.708  1.00  0.00    -0.243 NA
HETATM   19  H17 UNL     1      22.061   3.844  51.641  1.00  0.00     0.166 HD
ENDROOT
BRANCH   1  20
HETATM   20  C3  UNL     1      24.372   1.105  52.857  1.00  0.00     0.103 C 
BRANCH  20  21
HETATM   21  C2  UNL     1      25.098   2.300  53.378  1.00  0.00     0.005 C 
HETATM   22  C1  UNL     1      26.540   2.008  53.716  1.00  0.00     0.005 C 
ENDBRANCH  20  21
ENDBRANCH   1  20
BRANCH  18  23
HETATM   23  C17 UNL     1      18.382   3.522  50.745  1.00  0.00     0.372 C 
HETATM   24  F1  UNL     1      17.874   3.272  52.027  1.00  0.00    -0.232 F 
ENDBRANCH  18  23
TORSDOF 3
ENDMDL
MODEL 8
REMARK VINA RESULT:      -6.5      2.879      5.064
REMARK  3 active torsions:
REMARK  status: ('A' for Active; 'I' for Inactive)
REMARK    1  A    between atoms: C2_2  and  C3_3 
REMARK    2  A    between atoms: C3_3  and  C4_4 
REMARK       I    between atoms: C4_4  and  N1_6 
REMARK    3  A    between atoms: N3_21  and  C17_22 
ROOT
HETATM    1  C4  UNL     1      20.978   1.625  51.054  1.00  0.00     0.225 C 
HETATM    2  O1  UNL     1      20.642   2.711  50.502  1.00  0.00    -0.273 OA
HETATM    3  N1  UNL     1      22.202   1.445  51.797  1.00  0.00    -0.304 N 
HETATM    4  C5  UNL     1      22.337   0.133  52.334  1.00  0.00     0.096 A 
HETATM    5  C6  UNL     1      23.335  -0.285  53.082  1.00  0.00     0.017 A 
HETATM    6  C7  UNL     1      24.424   0.616  53.422  1.00  0.00     0.001 A 
HETATM    7  C8  UNL     1      24.261   1.812  52.895  1.00  0.00     0.017 A 
HETATM    8  C9  UNL     1      23.201   2.449  52.017  1.00  0.00     0.136 A 
HETATM    9  C10 UNL     1      22.718   3.708  52.609  1.00  0.00     0.013 C 
HETATM   10  C11 UNL     1      22.404   4.990  52.334  1.00  0.00    -0.018 C 
HETATM   11  C12 UNL     1      22.643   5.161  50.872  1.00  0.00     0.043 C 
HETATM   12  C13 UNL     1      22.525   6.207  50.026  1.00  0.00     0.003 C 
HETATM   13  C14 UNL     1      22.942   5.546  48.767  1.00  0.00     0.023 C 
HETATM   14 BR1  UNL     1      23.040   6.505  47.095  1.00  0.00    -0.050 Br
HETATM   15  C15 UNL     1      23.280   4.293  48.640  1.00  0.00     0.108 C 
HETATM   16  N2  UNL     1      23.389   3.158  49.485  1.00  0.00    -0.351 N 
HETATM   17  C16 UNL     1      23.945   2.820  50.746  1.00  0.00     0.138 C 
HETATM   18  N3  UNL     1      25.081   3.001  50.176  1.00  0.00    -0.243 NA
HETATM   19  H17 UNL     1      22.962   2.215  49.207  1.00  0.00     0.166 HD
ENDROOT
BRANCH   1  20
HETATM   20  C3  UNL     1      19.991   0.554  50.863  1.00  0.00     0.103 C 
BRANCH  20  21
HETATM   21  C2  UNL     1      18.729   0.776  51.627  1.00  0.00     0.005 C 
HETATM   22  C1  UNL     1      18.014  -0.510  51.963  1.00  0.00     0.005 C 
ENDBRANCH  20  21
ENDBRANCH   1  20
BRANCH  18  23
HETATM   23  C17 UNL     1      26.380   2.867  50.733  1.00  0.00     0.372 C 
HETATM   24  F1  UNL     1      26.797   1.539  50.892  1.00  0.00    -0.232 F 
ENDBRANCH  18  23
TORSDOF 3
ENDMDL
MODEL 9
REMARK VINA RESULT:      -6.5      3.310      5.831
REMARK  3 active torsions:
REMARK  status: ('A' for Active; 'I' for Inactive)
REMARK    1  A    between atoms: C2_2  and  C3_3 
REMARK    2  A    between atoms: C3_3  and  C4_4 
REMARK       I    between atoms: C4_4  and  N1_6 
REMARK    3  A    between atoms: N3_21  and  C17_22 
ROOT
HETATM    1  C4  UNL     1      22.222   2.029  49.336  1.00  0.00     0.225 C 
HETATM    2  O1  UNL     1      23.346   2.469  49.709  1.00  0.00    -0.273 OA
HETATM    3  N1  UNL     1      21.105   1.818  50.225  1.00  0.00    -0.304 N 
HETATM    4  C5  UNL     1      19.947   1.333  49.554  1.00  0.00     0.096 A 
HETATM    5  C6  UNL     1      18.782   1.094  50.119  1.00  0.00     0.017 A 
HETATM    6  C7  UNL     1      18.599   1.319  51.543  1.00  0.00     0.001 A 
HETATM    7  C8  UNL     1      19.699   1.757  52.122  1.00  0.00     0.017 A 
HETATM    8  C9  UNL     1      21.101   2.070  51.636  1.00  0.00     0.136 A 
HETATM    9  C10 UNL     1      21.505   3.426  52.041  1.00  0.00     0.013 C 
HETATM   10  C11 UNL     1      22.517   4.151  52.562  1.00  0.00    -0.018 C 
HETATM   11  C12 UNL     1      23.626   3.184  52.800  1.00  0.00     0.043 C 
HETATM   12  C13 UNL     1      24.871   3.305  53.312  1.00  0.00     0.003 C 
HETATM   13  C14 UNL     1      25.316   1.897  53.192  1.00  0.00     0.023 C 
HETATM   14 BR1  UNL     1      27.060   1.323  53.790  1.00  0.00    -0.050 Br
HETATM   15  C15 UNL     1      24.617   0.915  52.693  1.00  0.00     0.108 C 
HETATM   16  N2  UNL     1      23.329   0.746  52.121  1.00  0.00    -0.351 N 
HETATM   17  C16 UNL     1      21.985   1.101  52.404  1.00  0.00     0.138 C 
HETATM   18  N3  UNL     1      22.089   0.290  53.392  1.00  0.00    -0.243 NA
HETATM   19  H17 UNL     1      23.196   0.218  51.198  1.00  0.00     0.166 HD
ENDROOT
BRANCH   1  20
HETATM   20  C3  UNL     1      22.164   1.752  47.895  1.00  0.00     0.103 C 
BRANCH  20  21
HETATM   21  C2  UNL     1      22.228   2.984  47.057  1.00  0.00     0.005 C 
HETATM   22  C1  UNL     1      20.865   3.548  46.738  1.00  0.00     0.005 C 
ENDBRANCH  20  21
ENDBRANCH   1  20
BRANCH  18  23
HETATM   23  C17 UNL     1      21.109  -0.051  54.362  1.00  0.00     0.372 C 
HETATM   24  F1  UNL     1      21.577  -0.911  55.364  1.00  0.00    -0.232 F 
ENDBRANCH  18  23
TORSDOF 3
ENDMDL
