MODEL 1
REMARK VINA RESULT:      -7.8      0.000      0.000
REMARK  8 active torsions:
REMARK  status: ('A' for Active; 'I' for Inactive)
REMARK    1  A    between atoms: O1_2  and  C2_3 
REMARK    2  A    between atoms: C3_4  and  C4_5 
REMARK    3  A    between atoms: C3_4  and  C7_9 
REMARK    4  A    between atoms: C7_9  and  C10_12 
REMARK    5  A    between atoms: C10_12  and  O2_13 
REMARK    6  A    between atoms: O2_13  and  C11_14 
REMARK    7  A    between atoms: C11_14  and  O3_15 
REMARK    8  A    between atoms: O3_15  and  C12_16 
ROOT
HETATM    1  C2  UNL     1      26.648   2.503  51.238  1.00  0.00     0.065 A 
HETATM    2  C3  UNL     1      26.822   1.522  52.197  1.00  0.00     0.145 A 
HETATM    3  C10 UNL     1      25.720   1.753  52.091  1.00  0.00     0.200 A 
ENDROOT
BRANCH   3   4
HETATM    4  C7  UNL     1      26.808   1.019  53.036  1.00  0.00     0.191 A 
HETATM    5  C6  UNL     1      27.651   2.155  53.509  1.00  0.00     0.275 A 
HETATM    6  C5  UNL     1      29.040   2.187  53.854  1.00  0.00     0.262 A 
HETATM    7  N1  UNL     1      28.242   1.356  53.465  1.00  0.00    -0.018 N 
HETATM    8  C4  UNL     1      27.455   0.522  53.079  1.00  0.00     0.199 A 
HETATM    9  C8  UNL     1      26.707  -0.269  52.713  1.00  0.00    -0.027 A 
HETATM   10  C9  UNL     1      26.700  -1.692  52.395  1.00  0.00     0.044 C 
ENDBRANCH   3   4
BRANCH   3  11
HETATM   11  O2  UNL     1      24.770   2.469  52.786  1.00  0.00    -0.354 OA
BRANCH  11  12
HETATM   12  C11 UNL     1      23.547   2.286  52.112  1.00  0.00     0.345 C 
BRANCH  12  13
HETATM   13  O3  UNL     1      23.314   0.900  52.068  1.00  0.00    -0.326 OA
BRANCH  13  14
HETATM   14  C12 UNL     1      22.481   0.142  52.820  1.00  0.00     0.072 A 
HETATM   15  C13 UNL     1      23.151  -0.469  53.856  1.00  0.00     0.037 A 
HETATM   16  C14 UNL     1      22.431  -1.278  54.720  1.00  0.00     0.004 A 
HETATM   17  C15 UNL     1      21.058  -1.463  54.539  1.00  0.00     0.019 A 
HETATM   18  C16 UNL     1      20.376  -0.868  53.521  1.00  0.00     0.013 A 
HETATM   19 BR1  UNL     1      18.523  -1.019  53.152  1.00  0.00    -0.051 Br
HETATM   20  C17 UNL     1      21.095  -0.066  52.661  1.00  0.00     0.055 A 
ENDBRANCH  13  14
ENDBRANCH  12  13
ENDBRANCH  11  12
ENDBRANCH   3  11
BRANCH   1  21
HETATM   21  O1  UNL     1      27.127   3.380  50.306  1.00  0.00    -0.361 OA
HETATM   22  C1  UNL     1      26.103   3.872  49.404  1.00  0.00     0.209 C 
ENDBRANCH   1  21
TORSDOF 8
ENDMDL
MODEL 2
REMARK VINA RESULT:      -7.6      2.888      4.263
REMARK  8 active torsions:
REMARK  status: ('A' for Active; 'I' for Inactive)
REMARK    1  A    between atoms: O1_2  and  C2_3 
REMARK    2  A    between atoms: C3_4  and  C4_5 
REMARK    3  A    between atoms: C3_4  and  C7_9 
REMARK    4  A    between atoms: C7_9  and  C10_12 
REMARK    5  A    between atoms: C10_12  and  O2_13 
REMARK    6  A    between atoms: O2_13  and  C11_14 
REMARK    7  A    between atoms: C11_14  and  O3_15 
REMARK    8  A    between atoms: O3_15  and  C12_16 
ROOT
HETATM    1  C2  UNL     1      26.688   1.989  53.691  1.00  0.00     0.065 A 
HETATM    2  C3  UNL     1      25.991   0.818  53.453  1.00  0.00     0.145 A 
HETATM    3  C10 UNL     1      25.438   1.687  52.984  1.00  0.00     0.200 A 
ENDROOT
BRANCH   3   4
HETATM    4  C7  UNL     1      25.292   0.135  53.417  1.00  0.00     0.191 A 
HETATM    5  C6  UNL     1      26.599  -0.447  52.998  1.00  0.00     0.275 A 
HETATM    6  C5  UNL     1      26.915  -1.770  52.552  1.00  0.00     0.262 A 
HETATM    7  N1  UNL     1      25.921  -1.171  52.917  1.00  0.00    -0.018 N 
HETATM    8  C4  UNL     1      24.928  -0.584  53.279  1.00  0.00     0.199 A 
HETATM    9  C8  UNL     1      23.986  -0.025  53.624  1.00  0.00    -0.027 A 
HETATM   10  C9  UNL     1      22.571  -0.308  53.832  1.00  0.00     0.044 C 
ENDBRANCH   3   4
BRANCH   3  11
HETATM   11  O2  UNL     1      24.334   2.455  53.280  1.00  0.00    -0.354 OA
BRANCH  11  12
HETATM   12  C11 UNL     1      24.160   3.351  52.206  1.00  0.00     0.345 C 
BRANCH  12  13
HETATM   13  O3  UNL     1      24.215   2.585  51.028  1.00  0.00    -0.326 OA
BRANCH  13  14
HETATM   14  C12 UNL     1      23.244   2.334  50.118  1.00  0.00     0.072 A 
HETATM   15  C13 UNL     1      22.406   1.327  50.539  1.00  0.00     0.037 A 
HETATM   16  C14 UNL     1      21.356   0.957  49.715  1.00  0.00     0.004 A 
HETATM   17  C15 UNL     1      21.159   1.596  48.488  1.00  0.00     0.019 A 
HETATM   18  C16 UNL     1      21.977   2.595  48.052  1.00  0.00     0.013 A 
HETATM   19 BR1  UNL     1      21.834   3.555  46.424  1.00  0.00    -0.051 Br
HETATM   20  C17 UNL     1      23.023   2.960  48.873  1.00  0.00     0.055 A 
ENDBRANCH  13  14
ENDBRANCH  12  13
ENDBRANCH  11  12
ENDBRANCH   3  11
BRANCH   1  21
HETATM   21  O1  UNL     1      27.741   2.682  54.216  1.00  0.00    -0.361 OA
HETATM   22  C1  UNL     1      29.031   2.134  53.842  1.00  0.00     0.209 C 
ENDBRANCH   1  21
TORSDOF 8
ENDMDL
MODEL 3
REMARK VINA RESULT:      -7.4      2.944      5.799
REMARK  8 active torsions:
REMARK  status: ('A' for Active; 'I' for Inactive)
REMARK    1  A    between atoms: O1_2  and  C2_3 
REMARK    2  A    between atoms: C3_4  and  C4_5 
REMARK    3  A    between atoms: C3_4  and  C7_9 
REMARK    4  A    between atoms: C7_9  and  C10_12 
REMARK    5  A    between atoms: C10_12  and  O2_13 
REMARK    6  A    between atoms: O2_13  and  C11_14 
REMARK    7  A    between atoms: C11_14  and  O3_15 
REMARK    8  A    between atoms: O3_15  and  C12_16 
ROOT
HETATM    1  C2  UNL     1      26.968   1.822  52.301  1.00  0.00     0.065 A 
HETATM    2  C3  UNL     1      26.183   0.719  52.583  1.00  0.00     0.145 A 
HETATM    3  C10 UNL     1      25.578   1.470  51.991  1.00  0.00     0.200 A 
ENDROOT
BRANCH   3   4
HETATM    4  C7  UNL     1      25.464   0.138  52.902  1.00  0.00     0.191 A 
HETATM    5  C6  UNL     1      26.737  -0.576  52.600  1.00  0.00     0.275 A 
HETATM    6  C5  UNL     1      27.020  -1.980  52.576  1.00  0.00     0.262 A 
HETATM    7  N1  UNL     1      26.055  -1.273  52.800  1.00  0.00    -0.018 N 
HETATM    8  C4  UNL     1      25.091  -0.579  53.024  1.00  0.00     0.199 A 
HETATM    9  C8  UNL     1      24.176   0.081  53.238  1.00  0.00    -0.027 A 
HETATM   10  C9  UNL     1      22.780  -0.089  53.621  1.00  0.00     0.044 C 
ENDBRANCH   3   4
BRANCH   3  11
HETATM   11  O2  UNL     1      24.607   2.410  52.253  1.00  0.00    -0.354 OA
BRANCH  11  12
HETATM   12  C11 UNL     1      24.000   2.724  51.022  1.00  0.00     0.345 C 
BRANCH  12  13
HETATM   13  O3  UNL     1      25.040   2.897  50.091  1.00  0.00    -0.326 OA
BRANCH  13  14
HETATM   14  C12 UNL     1      25.528   4.037  49.548  1.00  0.00     0.072 A 
HETATM   15  C13 UNL     1      26.873   3.930  49.275  1.00  0.00     0.037 A 
HETATM   16  C14 UNL     1      27.519   5.018  48.710  1.00  0.00     0.004 A 
HETATM   17  C15 UNL     1      26.815   6.191  48.425  1.00  0.00     0.019 A 
HETATM   18  C16 UNL     1      25.483   6.317  48.687  1.00  0.00     0.013 A 
HETATM   19 BR1  UNL     1      24.397   7.834  48.353  1.00  0.00    -0.051 Br
HETATM   20  C17 UNL     1      24.844   5.235  49.252  1.00  0.00     0.055 A 
ENDBRANCH  13  14
ENDBRANCH  12  13
ENDBRANCH  11  12
ENDBRANCH   3  11
BRANCH   1  21
HETATM   21  O1  UNL     1      28.144   2.515  52.361  1.00  0.00    -0.361 OA
HETATM   22  C1  UNL     1      28.771   2.465  53.668  1.00  0.00     0.209 C 
ENDBRANCH   1  21
TORSDOF 8
ENDMDL
MODEL 4
REMARK VINA RESULT:      -7.4      3.164      6.531
REMARK  8 active torsions:
REMARK  status: ('A' for Active; 'I' for Inactive)
REMARK    1  A    between atoms: O1_2  and  C2_3 
REMARK    2  A    between atoms: C3_4  and  C4_5 
REMARK    3  A    between atoms: C3_4  and  C7_9 
REMARK    4  A    between atoms: C7_9  and  C10_12 
REMARK    5  A    between atoms: C10_12  and  O2_13 
REMARK    6  A    between atoms: O2_13  and  C11_14 
REMARK    7  A    between atoms: C11_14  and  O3_15 
REMARK    8  A    between atoms: O3_15  and  C12_16 
ROOT
HETATM    1  C2  UNL     1      25.924  -0.031  53.365  1.00  0.00     0.065 A 
HETATM    2  C3  UNL     1      24.635   0.413  53.129  1.00  0.00     0.145 A 
HETATM    3  C10 UNL     1      25.346   0.923  52.412  1.00  0.00     0.200 A 
ENDROOT
BRANCH   3   4
HETATM    4  C7  UNL     1      23.846   0.979  53.014  1.00  0.00     0.191 A 
HETATM    5  C6  UNL     1      23.567  -0.451  53.332  1.00  0.00     0.275 A 
HETATM    6  C5  UNL     1      22.328  -1.169  53.326  1.00  0.00     0.262 A 
HETATM    7  N1  UNL     1      22.696  -0.032  53.096  1.00  0.00    -0.018 N 
HETATM    8  C4  UNL     1      23.051   1.100  52.865  1.00  0.00     0.199 A 
HETATM    9  C8  UNL     1      23.390   2.175  52.647  1.00  0.00    -0.027 A 
HETATM   10  C9  UNL     1      22.790   3.445  52.255  1.00  0.00     0.044 C 
ENDBRANCH   3   4
BRANCH   3  11
HETATM   11  O2  UNL     1      25.947   2.157  52.297  1.00  0.00    -0.354 OA
BRANCH  11  12
HETATM   12  C11 UNL     1      26.637   2.163  51.069  1.00  0.00     0.345 C 
BRANCH  12  13
HETATM   13  O3  UNL     1      25.875   2.944  50.182  1.00  0.00    -0.326 OA
BRANCH  13  14
HETATM   14  C12 UNL     1      26.033   4.239  49.821  1.00  0.00     0.072 A 
HETATM   15  C13 UNL     1      27.123   4.404  48.997  1.00  0.00     0.037 A 
HETATM   16  C14 UNL     1      27.416   5.678  48.537  1.00  0.00     0.004 A 
HETATM   17  C15 UNL     1      26.617   6.764  48.905  1.00  0.00     0.019 A 
HETATM   18  C16 UNL     1      25.533   6.623  49.720  1.00  0.00     0.013 A 
HETATM   19 BR1  UNL     1      24.359   7.993  50.298  1.00  0.00    -0.051 Br
HETATM   20  C17 UNL     1      25.247   5.355  50.177  1.00  0.00     0.055 A 
ENDBRANCH  13  14
ENDBRANCH  12  13
ENDBRANCH  11  12
ENDBRANCH   3  11
BRANCH   1  21
HETATM   21  O1  UNL     1      26.833  -0.797  54.037  1.00  0.00    -0.361 OA
HETATM   22  C1  UNL     1      28.038  -0.073  54.396  1.00  0.00     0.209 C 
ENDBRANCH   1  21
TORSDOF 8
ENDMDL
MODEL 5
REMARK VINA RESULT:      -7.3      2.135      3.684
REMARK  8 active torsions:
REMARK  status: ('A' for Active; 'I' for Inactive)
REMARK    1  A    between atoms: O1_2  and  C2_3 
REMARK    2  A    between atoms: C3_4  and  C4_5 
REMARK    3  A    between atoms: C3_4  and  C7_9 
REMARK    4  A    between atoms: C7_9  and  C10_12 
REMARK    5  A    between atoms: C10_12  and  O2_13 
REMARK    6  A    between atoms: O2_13  and  C11_14 
REMARK    7  A    between atoms: C11_14  and  O3_15 
REMARK    8  A    between atoms: O3_15  and  C12_16 
ROOT
HETATM    1  C2  UNL     1      27.012   1.810  53.609  1.00  0.00     0.065 A 
HETATM    2  C3  UNL     1      26.301   0.639  53.422  1.00  0.00     0.145 A 
HETATM    3  C10 UNL     1      25.731   1.503  52.965  1.00  0.00     0.200 A 
ENDROOT
BRANCH   3   4
HETATM    4  C7  UNL     1      25.598  -0.041  53.429  1.00  0.00     0.191 A 
HETATM    5  C6  UNL     1      26.874  -0.639  52.944  1.00  0.00     0.275 A 
HETATM    6  C5  UNL     1      27.155  -1.972  52.501  1.00  0.00     0.262 A 
HETATM    7  N1  UNL     1      26.188  -1.359  52.913  1.00  0.00    -0.018 N 
HETATM    8  C4  UNL     1      25.222  -0.759  53.323  1.00  0.00     0.199 A 
HETATM    9  C8  UNL     1      24.305  -0.188  53.712  1.00  0.00    -0.027 A 
HETATM   10  C9  UNL     1      22.902  -0.456  54.005  1.00  0.00     0.044 C 
ENDBRANCH   3   4
BRANCH   3  11
HETATM   11  O2  UNL     1      24.644   2.281  53.299  1.00  0.00    -0.354 OA
BRANCH  11  12
HETATM   12  C11 UNL     1      24.307   3.026  52.152  1.00  0.00     0.345 C 
BRANCH  12  13
HETATM   13  O3  UNL     1      23.992   2.096  51.145  1.00  0.00    -0.326 OA
BRANCH  13  14
HETATM   14  C12 UNL     1      22.805   1.853  50.539  1.00  0.00     0.072 A 
HETATM   15  C13 UNL     1      22.831   2.221  49.213  1.00  0.00     0.037 A 
HETATM   16  C14 UNL     1      21.688   2.029  48.454  1.00  0.00     0.004 A 
HETATM   17  C15 UNL     1      20.542   1.473  49.028  1.00  0.00     0.019 A 
HETATM   18  C16 UNL     1      20.496   1.101  50.338  1.00  0.00     0.013 A 
HETATM   19 BR1  UNL     1      19.023   0.332  51.251  1.00  0.00    -0.051 Br
HETATM   20  C17 UNL     1      21.633   1.296  51.092  1.00  0.00     0.055 A 
ENDBRANCH  13  14
ENDBRANCH  12  13
ENDBRANCH  11  12
ENDBRANCH   3  11
BRANCH   1  21
HETATM   21  O1  UNL     1      28.091   2.507  54.075  1.00  0.00    -0.361 OA
HETATM   22  C1  UNL     1      29.230   1.661  54.379  1.00  0.00     0.209 C 
ENDBRANCH   1  21
TORSDOF 8
ENDMDL
MODEL 6
REMARK VINA RESULT:      -7.3      1.884      2.863
REMARK  8 active torsions:
REMARK  status: ('A' for Active; 'I' for Inactive)
REMARK    1  A    between atoms: O1_2  and  C2_3 
REMARK    2  A    between atoms: C3_4  and  C4_5 
REMARK    3  A    between atoms: C3_4  and  C7_9 
REMARK    4  A    between atoms: C7_9  and  C10_12 
REMARK    5  A    between atoms: C10_12  and  O2_13 
REMARK    6  A    between atoms: O2_13  and  C11_14 
REMARK    7  A    between atoms: C11_14  and  O3_15 
REMARK    8  A    between atoms: O3_15  and  C12_16 
ROOT
HETATM    1  C2  UNL     1      26.927   1.387  52.318  1.00  0.00     0.065 A 
HETATM    2  C3  UNL     1      27.889   0.544  52.843  1.00  0.00     0.145 A 
HETATM    3  C10 UNL     1      26.949   0.479  53.470  1.00  0.00     0.200 A 
ENDROOT
BRANCH   3   4
HETATM    4  C7  UNL     1      28.523   0.107  53.446  1.00  0.00     0.191 A 
HETATM    5  C6  UNL     1      28.513  -1.332  53.058  1.00  0.00     0.275 A 
HETATM    6  C5  UNL     1      29.423  -2.383  53.403  1.00  0.00     0.262 A 
HETATM    7  N1  UNL     1      29.309  -1.195  53.640  1.00  0.00    -0.018 N 
HETATM    8  C4  UNL     1      29.205  -0.015  53.879  1.00  0.00     0.199 A 
HETATM    9  C8  UNL     1      29.106   1.107  54.106  1.00  0.00    -0.027 A 
HETATM   10  C9  UNL     1      29.828   2.133  54.849  1.00  0.00     0.044 C 
ENDBRANCH   3   4
BRANCH   3  11
HETATM   11  O2  UNL     1      26.510   0.971  54.680  1.00  0.00    -0.354 OA
BRANCH  11  12
HETATM   12  C11 UNL     1      25.803  -0.071  55.311  1.00  0.00     0.345 C 
BRANCH  12  13
HETATM   13  O3  UNL     1      25.082  -0.737  54.304  1.00  0.00    -0.326 OA
BRANCH  13  14
HETATM   14  C12 UNL     1      23.767  -0.656  53.989  1.00  0.00     0.072 A 
HETATM   15  C13 UNL     1      22.974  -1.149  55.000  1.00  0.00     0.037 A 
HETATM   16  C14 UNL     1      21.599  -1.130  54.828  1.00  0.00     0.004 A 
HETATM   17  C15 UNL     1      21.040  -0.621  53.653  1.00  0.00     0.019 A 
HETATM   18  C16 UNL     1      21.807  -0.128  52.640  1.00  0.00     0.013 A 
HETATM   19 BR1  UNL     1      21.195   0.598  50.999  1.00  0.00    -0.051 Br
HETATM   20  C17 UNL     1      23.174  -0.150  52.813  1.00  0.00     0.055 A 
ENDBRANCH  13  14
ENDBRANCH  12  13
ENDBRANCH  11  12
ENDBRANCH   3  11
BRANCH   1  21
HETATM   21  O1  UNL     1      26.491   2.298  51.397  1.00  0.00    -0.361 OA
HETATM   22  C1  UNL     1      25.137   2.756  51.642  1.00  0.00     0.209 C 
ENDBRANCH   1  21
TORSDOF 8
ENDMDL
MODEL 7
REMARK VINA RESULT:      -7.2      3.272      6.118
REMARK  8 active torsions:
REMARK  status: ('A' for Active; 'I' for Inactive)
REMARK    1  A    between atoms: O1_2  and  C2_3 
REMARK    2  A    between atoms: C3_4  and  C4_5 
REMARK    3  A    between atoms: C3_4  and  C7_9 
REMARK    4  A    between atoms: C7_9  and  C10_12 
REMARK    5  A    between atoms: C10_12  and  O2_13 
REMARK    6  A    between atoms: O2_13  and  C11_14 
REMARK    7  A    between atoms: C11_14  and  O3_15 
REMARK    8  A    between atoms: O3_15  and  C12_16 
ROOT
HETATM    1  C2  UNL     1      24.582   0.067  53.437  1.00  0.00     0.065 A 
HETATM    2  C3  UNL     1      25.879   0.322  53.030  1.00  0.00     0.145 A 
HETATM    3  C10 UNL     1      25.195   1.129  52.631  1.00  0.00     0.200 A 
ENDROOT
BRANCH   3   4
HETATM    4  C7  UNL     1      26.674   0.492  52.486  1.00  0.00     0.191 A 
HETATM    5  C6  UNL     1      26.388  -0.954  52.262  1.00  0.00     0.275 A 
HETATM    6  C5  UNL     1      27.152  -2.109  52.625  1.00  0.00     0.262 A 
HETATM    7  N1  UNL     1      27.260  -0.903  52.739  1.00  0.00    -0.018 N 
HETATM    8  C4  UNL     1      27.376   0.295  52.857  1.00  0.00     0.199 A 
HETATM    9  C8  UNL     1      27.485   1.433  52.968  1.00  0.00    -0.027 A 
HETATM   10  C9  UNL     1      28.445   2.383  53.514  1.00  0.00     0.044 C 
ENDBRANCH   3   4
BRANCH   3  11
HETATM   11  O2  UNL     1      24.602   1.441  51.428  1.00  0.00    -0.354 OA
BRANCH  11  12
HETATM   12  C11 UNL     1      24.253   2.805  51.486  1.00  0.00     0.345 C 
BRANCH  12  13
HETATM   13  O3  UNL     1      24.306   3.292  50.169  1.00  0.00    -0.326 OA
BRANCH  13  14
HETATM   14  C12 UNL     1      25.159   4.187  49.615  1.00  0.00     0.072 A 
HETATM   15  C13 UNL     1      26.437   3.681  49.532  1.00  0.00     0.037 A 
HETATM   16  C14 UNL     1      27.426   4.480  48.981  1.00  0.00     0.004 A 
HETATM   17  C15 UNL     1      27.126   5.765  48.523  1.00  0.00     0.019 A 
HETATM   18  C16 UNL     1      25.867   6.284  48.596  1.00  0.00     0.013 A 
HETATM   19 BR1  UNL     1      25.308   7.999  48.013  1.00  0.00    -0.051 Br
HETATM   20  C17 UNL     1      24.886   5.489  49.146  1.00  0.00     0.055 A 
ENDBRANCH  13  14
ENDBRANCH  12  13
ENDBRANCH  11  12
ENDBRANCH   3  11
BRANCH   1  21
HETATM   21  O1  UNL     1      23.649  -0.678  54.099  1.00  0.00    -0.361 OA
HETATM   22  C1  UNL     1      24.133  -1.217  55.357  1.00  0.00     0.209 C 
ENDBRANCH   1  21
TORSDOF 8
ENDMDL
MODEL 8
REMARK VINA RESULT:      -7.2      2.583      5.751
REMARK  8 active torsions:
REMARK  status: ('A' for Active; 'I' for Inactive)
REMARK    1  A    between atoms: O1_2  and  C2_3 
REMARK    2  A    between atoms: C3_4  and  C4_5 
REMARK    3  A    between atoms: C3_4  and  C7_9 
REMARK    4  A    between atoms: C7_9  and  C10_12 
REMARK    5  A    between atoms: C10_12  and  O2_13 
REMARK    6  A    between atoms: O2_13  and  C11_14 
REMARK    7  A    between atoms: C11_14  and  O3_15 
REMARK    8  A    between atoms: O3_15  and  C12_16 
ROOT
HETATM    1  C2  UNL     1      26.200   0.165  53.840  1.00  0.00     0.065 A 
HETATM    2  C3  UNL     1      24.934   0.572  53.460  1.00  0.00     0.145 A 
HETATM    3  C10 UNL     1      25.691   0.945  52.707  1.00  0.00     0.200 A 
ENDROOT
BRANCH   3   4
HETATM    4  C7  UNL     1      24.162   1.116  53.206  1.00  0.00     0.191 A 
HETATM    5  C6  UNL     1      23.679  -0.293  53.272  1.00  0.00     0.275 A 
HETATM    6  C5  UNL     1      22.366  -0.825  53.066  1.00  0.00     0.262 A 
HETATM    7  N1  UNL     1      22.891   0.272  53.046  1.00  0.00    -0.018 N 
HETATM    8  C4  UNL     1      23.405   1.366  53.024  1.00  0.00     0.199 A 
HETATM    9  C8  UNL     1      23.894   2.405  53.004  1.00  0.00    -0.027 A 
HETATM   10  C9  UNL     1      23.495   3.790  52.780  1.00  0.00     0.044 C 
ENDBRANCH   3   4
BRANCH   3  11
HETATM   11  O2  UNL     1      26.319   2.136  52.416  1.00  0.00    -0.354 OA
BRANCH  11  12
HETATM   12  C11 UNL     1      26.908   1.987  51.145  1.00  0.00     0.345 C 
BRANCH  12  13
HETATM   13  O3  UNL     1      26.802   3.233  50.503  1.00  0.00    -0.326 OA
BRANCH  13  14
HETATM   14  C12 UNL     1      25.744   3.786  49.864  1.00  0.00     0.072 A 
HETATM   15  C13 UNL     1      25.950   5.123  49.609  1.00  0.00     0.037 A 
HETATM   16  C14 UNL     1      24.954   5.829  48.954  1.00  0.00     0.004 A 
HETATM   17  C15 UNL     1      23.773   5.192  48.564  1.00  0.00     0.019 A 
HETATM   18  C16 UNL     1      23.549   3.869  48.806  1.00  0.00     0.013 A 
HETATM   19 BR1  UNL     1      22.009   2.871  48.334  1.00  0.00    -0.051 Br
HETATM   20  C17 UNL     1      24.541   3.170  49.460  1.00  0.00     0.055 A 
ENDBRANCH  13  14
ENDBRANCH  12  13
ENDBRANCH  11  12
ENDBRANCH   3  11
BRANCH   1  21
HETATM   21  O1  UNL     1      27.058  -0.481  54.684  1.00  0.00    -0.361 OA
HETATM   22  C1  UNL     1      28.326   0.204  54.845  1.00  0.00     0.209 C 
ENDBRANCH   1  21
TORSDOF 8
ENDMDL
MODEL 9
REMARK VINA RESULT:      -7.1      1.783      2.466
REMARK  8 active torsions:
REMARK  status: ('A' for Active; 'I' for Inactive)
REMARK    1  A    between atoms: O1_2  and  C2_3 
REMARK    2  A    between atoms: C3_4  and  C4_5 
REMARK    3  A    between atoms: C3_4  and  C7_9 
REMARK    4  A    between atoms: C7_9  and  C10_12 
REMARK    5  A    between atoms: C10_12  and  O2_13 
REMARK    6  A    between atoms: O2_13  and  C11_14 
REMARK    7  A    between atoms: C11_14  and  O3_15 
REMARK    8  A    between atoms: O3_15  and  C12_16 
ROOT
HETATM    1  C2  UNL     1      26.132   0.910  52.559  1.00  0.00     0.065 A 
HETATM    2  C3  UNL     1      27.251   0.385  53.179  1.00  0.00     0.145 A 
HETATM    3  C10 UNL     1      26.328  -0.158  53.546  1.00  0.00     0.200 A 
ENDROOT
BRANCH   3   4
HETATM    4  C7  UNL     1      27.897   0.089  53.851  1.00  0.00     0.191 A 
HETATM    5  C6  UNL     1      27.975   1.571  53.992  1.00  0.00     0.275 A 
HETATM    6  C5  UNL     1      29.049   2.468  53.689  1.00  0.00     0.262 A 
HETATM    7  N1  UNL     1      28.850   1.269  53.628  1.00  0.00    -0.018 N 
HETATM    8  C4  UNL     1      28.662   0.077  53.563  1.00  0.00     0.199 A 
HETATM    9  C8  UNL     1      28.482  -1.056  53.503  1.00  0.00    -0.027 A 
HETATM   10  C9  UNL     1      29.216  -2.253  53.109  1.00  0.00     0.044 C 
ENDBRANCH   3   4
BRANCH   3  11
HETATM   11  O2  UNL     1      25.532  -0.144  54.670  1.00  0.00    -0.354 OA
BRANCH  11  12
HETATM   12  C11 UNL     1      24.550  -1.137  54.487  1.00  0.00     0.345 C 
BRANCH  12  13
HETATM   13  O3  UNL     1      23.304  -0.511  54.666  1.00  0.00    -0.326 OA
BRANCH  13  14
HETATM   14  C12 UNL     1      22.307  -0.307  53.772  1.00  0.00     0.072 A 
HETATM   15  C13 UNL     1      21.084  -0.672  54.289  1.00  0.00     0.037 A 
HETATM   16  C14 UNL     1      19.961  -0.518  53.493  1.00  0.00     0.004 A 
HETATM   17  C15 UNL     1      20.074  -0.002  52.199  1.00  0.00     0.019 A 
HETATM   18  C16 UNL     1      21.275   0.366  51.669  1.00  0.00     0.013 A 
HETATM   19 BR1  UNL     1      21.585   1.082  49.942  1.00  0.00    -0.051 Br
HETATM   20  C17 UNL     1      22.391   0.209  52.462  1.00  0.00     0.055 A 
ENDBRANCH  13  14
ENDBRANCH  12  13
ENDBRANCH  11  12
ENDBRANCH   3  11
BRANCH   1  21
HETATM   21  O1  UNL     1      25.525   1.776  51.695  1.00  0.00    -0.361 OA
HETATM   22  C1  UNL     1      26.462   2.500  50.857  1.00  0.00     0.209 C 
ENDBRANCH   1  21
TORSDOF 8
ENDMDL
