MODEL 1
REMARK VINA RESULT:      -7.3      0.000      0.000
REMARK  3 active torsions:
REMARK  status: ('A' for Active; 'I' for Inactive)
REMARK    1  A    between atoms: O1_2  and  C2_3 
REMARK    2  A    between atoms: C13_17  and  N3_18 
REMARK    3  A    between atoms: C13_17  and  O3_19 
ROOT
HETATM    1  C2  UNL     1      21.470   0.309  51.743  1.00  0.00     0.116 A 
HETATM    2  C3  UNL     1      22.038  -0.408  52.690  1.00  0.00     0.045 A 
HETATM    3  C4  UNL     1      23.317   0.268  53.001  1.00  0.00    -0.046 A 
HETATM    4  C5  UNL     1      23.446   1.360  52.220  1.00  0.00    -0.001 A 
HETATM    5  C6  UNL     1      24.751   1.871  52.686  1.00  0.00     0.056 C 
HETATM    6  C7  UNL     1      25.859   0.854  52.499  1.00  0.00     0.107 A 
HETATM    7  C8  UNL     1      27.191   1.434  52.771  1.00  0.00     0.231 A 
HETATM    8  O2  UNL     1      27.439   2.406  52.015  1.00  0.00    -0.273 OA
HETATM    9  N1  UNL     1      28.133   1.011  53.744  1.00  0.00    -0.317 N 
HETATM   10  C9  UNL     1      29.389   1.702  53.964  1.00  0.00     0.160 C 
HETATM   11  C10 UNL     1      27.704  -0.142  54.454  1.00  0.00     0.205 A 
HETATM   12  N2  UNL     1      26.591  -0.745  54.251  1.00  0.00    -0.278 NA
HETATM   13  C11 UNL     1      25.607  -0.382  53.305  1.00  0.00     0.127 A 
HETATM   14  C12 UNL     1      24.249  -0.262  54.032  1.00  0.00     0.067 C 
HETATM   15  C13 UNL     1      22.286   1.517  51.315  1.00  0.00     0.330 A 
ENDROOT
BRANCH  15  16
HETATM   16  N3  UNL     1      21.483   2.652  51.766  1.00  0.00     0.125 N 
HETATM   17  H15 UNL     1      21.619   3.413  51.062  1.00  0.00     0.317 HD
HETATM   18  H16 UNL     1      20.481   2.332  51.632  1.00  0.00     0.317 HD
ENDBRANCH  15  16
BRANCH  15  19
HETATM   19  O3  UNL     1      22.510   1.505  49.983  1.00  0.00    -0.349 OA
HETATM   20  C14 UNL     1      22.929   2.731  49.511  1.00  0.00     0.205 C 
ENDBRANCH  15  19
BRANCH   1  21
HETATM   21  O1  UNL     1      20.274   0.217  51.023  1.00  0.00    -0.355 OA
HETATM   22  C1  UNL     1      19.104   0.006  51.823  1.00  0.00     0.209 C 
ENDBRANCH   1  21
TORSDOF 3
ENDMDL
MODEL 2
REMARK VINA RESULT:      -7.1      1.888      6.158
REMARK  3 active torsions:
REMARK  status: ('A' for Active; 'I' for Inactive)
REMARK    1  A    between atoms: O1_2  and  C2_3 
REMARK    2  A    between atoms: C13_17  and  N3_18 
REMARK    3  A    between atoms: C13_17  and  O3_19 
ROOT
HETATM    1  C2  UNL     1      26.919   0.428  54.461  1.00  0.00     0.116 A 
HETATM    2  C3  UNL     1      26.640   1.672  54.130  1.00  0.00     0.045 A 
HETATM    3  C4  UNL     1      25.254   1.654  53.613  1.00  0.00    -0.046 A 
HETATM    4  C5  UNL     1      24.775   0.394  53.663  1.00  0.00    -0.001 A 
HETATM    5  C6  UNL     1      23.417   0.601  53.121  1.00  0.00     0.056 C 
HETATM    6  C7  UNL     1      23.447   1.185  51.723  1.00  0.00     0.107 A 
HETATM    7  C8  UNL     1      22.105   1.201  51.103  1.00  0.00     0.231 A 
HETATM    8  O2  UNL     1      21.617   0.046  51.019  1.00  0.00    -0.273 OA
HETATM    9  N1  UNL     1      21.384   2.330  50.635  1.00  0.00    -0.317 N 
HETATM   10  C9  UNL     1      20.040   2.228  50.101  1.00  0.00     0.160 C 
HETATM   11  C10 UNL     1      22.124   3.536  50.753  1.00  0.00     0.205 A 
HETATM   12  N2  UNL     1      23.313   3.614  51.227  1.00  0.00    -0.278 NA
HETATM   13  C11 UNL     1      24.088   2.537  51.710  1.00  0.00     0.127 A 
HETATM   14  C12 UNL     1      24.585   2.892  53.130  1.00  0.00     0.067 C 
HETATM   15  C13 UNL     1      25.781  -0.546  54.205  1.00  0.00     0.330 A 
ENDROOT
BRANCH  15  16
HETATM   16  N3  UNL     1      25.371  -0.958  55.546  1.00  0.00     0.125 N 
HETATM   17  H15 UNL     1      26.222  -0.895  56.151  1.00  0.00     0.317 HD
HETATM   18  H16 UNL     1      24.742  -0.171  55.878  1.00  0.00     0.317 HD
ENDBRANCH  15  16
BRANCH  15  19
HETATM   19  O3  UNL     1      26.185  -1.569  53.422  1.00  0.00    -0.349 OA
HETATM   20  C14 UNL     1      26.513  -1.156  52.148  1.00  0.00     0.205 C 
ENDBRANCH  15  19
BRANCH   1  21
HETATM   21  O1  UNL     1      28.037  -0.220  54.999  1.00  0.00    -0.355 OA
HETATM   22  C1  UNL     1      29.263   0.010  54.294  1.00  0.00     0.209 C 
ENDBRANCH   1  21
TORSDOF 3
ENDMDL
MODEL 3
REMARK VINA RESULT:      -7.0      2.138      2.441
REMARK  3 active torsions:
REMARK  status: ('A' for Active; 'I' for Inactive)
REMARK    1  A    between atoms: O1_2  and  C2_3 
REMARK    2  A    between atoms: C13_17  and  N3_18 
REMARK    3  A    between atoms: C13_17  and  O3_19 
ROOT
HETATM    1  C2  UNL     1      22.105   3.413  51.901  1.00  0.00     0.116 A 
HETATM    2  C3  UNL     1      22.195   2.143  52.238  1.00  0.00     0.045 A 
HETATM    3  C4  UNL     1      23.574   1.951  52.738  1.00  0.00    -0.046 A 
HETATM    4  C5  UNL     1      24.239   3.122  52.675  1.00  0.00    -0.001 A 
HETATM    5  C6  UNL     1      25.553   2.715  53.211  1.00  0.00     0.056 C 
HETATM    6  C7  UNL     1      26.185   1.611  52.387  1.00  0.00     0.107 A 
HETATM    7  C8  UNL     1      27.580   1.346  52.797  1.00  0.00     0.231 A 
HETATM    8  O2  UNL     1      28.302   2.367  52.677  1.00  0.00    -0.273 OA
HETATM    9  N1  UNL     1      28.121   0.126  53.279  1.00  0.00    -0.317 N 
HETATM   10  C9  UNL     1      29.499   0.003  53.714  1.00  0.00     0.160 C 
HETATM   11  C10 UNL     1      27.170  -0.929  53.280  1.00  0.00     0.205 A 
HETATM   12  N2  UNL     1      25.954  -0.809  52.892  1.00  0.00    -0.278 NA
HETATM   13  C11 UNL     1      25.348   0.370  52.404  1.00  0.00     0.127 A 
HETATM   14  C12 UNL     1      24.055   0.625  53.210  1.00  0.00     0.067 C 
HETATM   15  C13 UNL     1      23.385   4.200  52.126  1.00  0.00     0.330 A 
ENDROOT
BRANCH  15  16
HETATM   16  N3  UNL     1      23.037   5.123  53.204  1.00  0.00     0.125 N 
HETATM   17  H15 UNL     1      23.352   6.072  52.897  1.00  0.00     0.317 HD
HETATM   18  H16 UNL     1      21.978   5.165  53.178  1.00  0.00     0.317 HD
ENDBRANCH  15  16
BRANCH  15  19
HETATM   19  O3  UNL     1      23.784   4.813  50.991  1.00  0.00    -0.349 OA
HETATM   20  C14 UNL     1      24.059   6.150  51.187  1.00  0.00     0.205 C 
ENDBRANCH  15  19
BRANCH   1  21
HETATM   21  O1  UNL     1      21.093   4.221  51.373  1.00  0.00    -0.355 OA
HETATM   22  C1  UNL     1      19.760   3.758  51.623  1.00  0.00     0.209 C 
ENDBRANCH   1  21
TORSDOF 3
ENDMDL
MODEL 4
REMARK VINA RESULT:      -7.0      2.217      6.084
REMARK  3 active torsions:
REMARK  status: ('A' for Active; 'I' for Inactive)
REMARK    1  A    between atoms: O1_2  and  C2_3 
REMARK    2  A    between atoms: C13_17  and  N3_18 
REMARK    3  A    between atoms: C13_17  and  O3_19 
ROOT
HETATM    1  C2  UNL     1      26.110   0.667  54.237  1.00  0.00     0.116 A 
HETATM    2  C3  UNL     1      25.466  -0.408  54.641  1.00  0.00     0.045 A 
HETATM    3  C4  UNL     1      24.172  -0.402  53.923  1.00  0.00    -0.046 A 
HETATM    4  C5  UNL     1      24.110   0.682  53.124  1.00  0.00    -0.001 A 
HETATM    5  C6  UNL     1      22.777   0.493  52.517  1.00  0.00     0.056 C 
HETATM    6  C7  UNL     1      21.679   0.444  53.561  1.00  0.00     0.107 A 
HETATM    7  C8  UNL     1      20.335   0.462  52.947  1.00  0.00     0.231 A 
HETATM    8  O2  UNL     1      20.152   1.494  52.256  1.00  0.00    -0.273 OA
HETATM    9  N1  UNL     1      19.318  -0.521  53.070  1.00  0.00    -0.317 N 
HETATM   10  C9  UNL     1      18.054  -0.424  52.366  1.00  0.00     0.160 C 
HETATM   11  C10 UNL     1      19.684  -1.578  53.944  1.00  0.00     0.205 A 
HETATM   12  N2  UNL     1      20.805  -1.652  54.562  1.00  0.00    -0.278 NA
HETATM   13  C11 UNL     1      21.861  -0.717  54.488  1.00  0.00     0.127 A 
HETATM   14  C12 UNL     1      23.160  -1.473  54.130  1.00  0.00     0.067 C 
HETATM   15  C13 UNL     1      25.338   1.503  53.230  1.00  0.00     0.330 A 
ENDROOT
BRANCH  15  16
HETATM   16  N3  UNL     1      26.111   1.360  51.998  1.00  0.00     0.125 N 
HETATM   17  H15 UNL     1      27.079   1.692  52.213  1.00  0.00     0.317 HD
HETATM   18  H16 UNL     1      26.205   0.311  51.870  1.00  0.00     0.317 HD
ENDBRANCH  15  16
BRANCH  15  19
HETATM   19  O3  UNL     1      25.216   2.780  53.650  1.00  0.00    -0.349 OA
HETATM   20  C14 UNL     1      24.274   3.482  52.929  1.00  0.00     0.205 C 
ENDBRANCH  15  19
BRANCH   1  21
HETATM   21  O1  UNL     1      27.356   1.233  54.524  1.00  0.00    -0.355 OA
HETATM   22  C1  UNL     1      28.396   0.288  54.807  1.00  0.00     0.209 C 
ENDBRANCH   1  21
TORSDOF 3
ENDMDL
MODEL 5
REMARK VINA RESULT:      -7.0      2.098      2.946
REMARK  3 active torsions:
REMARK  status: ('A' for Active; 'I' for Inactive)
REMARK    1  A    between atoms: O1_2  and  C2_3 
REMARK    2  A    between atoms: C13_17  and  N3_18 
REMARK    3  A    between atoms: C13_17  and  O3_19 
ROOT
HETATM    1  C2  UNL     1      21.688   2.303  52.672  1.00  0.00     0.116 A 
HETATM    2  C3  UNL     1      22.739   3.091  52.571  1.00  0.00     0.045 A 
HETATM    3  C4  UNL     1      23.919   2.198  52.575  1.00  0.00    -0.046 A 
HETATM    4  C5  UNL     1      23.510   0.918  52.678  1.00  0.00    -0.001 A 
HETATM    5  C6  UNL     1      24.810   0.218  52.659  1.00  0.00     0.056 C 
HETATM    6  C7  UNL     1      25.711   0.662  53.795  1.00  0.00     0.107 A 
HETATM    7  C8  UNL     1      26.922  -0.178  53.898  1.00  0.00     0.231 A 
HETATM    8  O2  UNL     1      26.636  -1.386  54.095  1.00  0.00    -0.273 OA
HETATM    9  N1  UNL     1      28.274   0.241  53.800  1.00  0.00    -0.317 N 
HETATM   10  C9  UNL     1      29.384  -0.691  53.855  1.00  0.00     0.160 C 
HETATM   11  C10 UNL     1      28.399   1.647  53.646  1.00  0.00     0.205 A 
HETATM   12  N2  UNL     1      27.410   2.462  53.599  1.00  0.00    -0.278 NA
HETATM   13  C11 UNL     1      26.043   2.118  53.689  1.00  0.00     0.127 A 
HETATM   14  C12 UNL     1      25.303   2.735  52.481  1.00  0.00     0.067 C 
HETATM   15  C13 UNL     1      22.035   0.826  52.760  1.00  0.00     0.330 A 
ENDROOT
BRANCH  15  16
HETATM   16  N3  UNL     1      21.524   0.277  51.505  1.00  0.00     0.125 N 
HETATM   17  H15 UNL     1      21.439   1.080  50.841  1.00  0.00     0.317 HD
HETATM   18  H16 UNL     1      22.328  -0.304  51.129  1.00  0.00     0.317 HD
ENDBRANCH  15  16
BRANCH  15  19
HETATM   19  O3  UNL     1      21.491   0.264  53.861  1.00  0.00    -0.349 OA
HETATM   20  C14 UNL     1      21.597  -1.111  53.854  1.00  0.00     0.205 C 
ENDBRANCH  15  19
BRANCH   1  21
HETATM   21  O1  UNL     1      20.306   2.508  52.723  1.00  0.00    -0.355 OA
HETATM   22  C1  UNL     1      19.815   3.520  51.835  1.00  0.00     0.209 C 
ENDBRANCH   1  21
TORSDOF 3
ENDMDL
MODEL 6
REMARK VINA RESULT:      -6.6      2.594      5.662
REMARK  3 active torsions:
REMARK  status: ('A' for Active; 'I' for Inactive)
REMARK    1  A    between atoms: O1_2  and  C2_3 
REMARK    2  A    between atoms: C13_17  and  N3_18 
REMARK    3  A    between atoms: C13_17  and  O3_19 
ROOT
HETATM    1  C2  UNL     1      25.579   0.147  53.950  1.00  0.00     0.116 A 
HETATM    2  C3  UNL     1      24.371   0.213  53.431  1.00  0.00     0.045 A 
HETATM    3  C4  UNL     1      24.468   1.154  52.293  1.00  0.00    -0.046 A 
HETATM    4  C5  UNL     1      25.735   1.603  52.192  1.00  0.00    -0.001 A 
HETATM    5  C6  UNL     1      25.611   2.498  51.024  1.00  0.00     0.056 C 
HETATM    6  C7  UNL     1      24.594   3.598  51.257  1.00  0.00     0.107 A 
HETATM    7  C8  UNL     1      24.617   4.607  50.179  1.00  0.00     0.231 A 
HETATM    8  O2  UNL     1      25.745   5.153  50.076  1.00  0.00    -0.273 OA
HETATM    9  N1  UNL     1      23.550   4.977  49.320  1.00  0.00    -0.317 N 
HETATM   10  C9  UNL     1      23.711   5.943  48.250  1.00  0.00     0.160 C 
HETATM   11  C10 UNL     1      22.340   4.303  49.633  1.00  0.00     0.205 A 
HETATM   12  N2  UNL     1      22.210   3.452  50.583  1.00  0.00    -0.278 NA
HETATM   13  C11 UNL     1      23.224   3.035  51.473  1.00  0.00     0.127 A 
HETATM   14  C12 UNL     1      23.285   1.491  51.457  1.00  0.00     0.067 C 
HETATM   15  C13 UNL     1      26.601   1.020  53.242  1.00  0.00     0.330 A 
ENDROOT
BRANCH  15  16
HETATM   16  N3  UNL     1      27.510   0.056  52.625  1.00  0.00     0.125 N 
HETATM   17  H15 UNL     1      27.208  -0.044  51.629  1.00  0.00     0.317 HD
HETATM   18  H16 UNL     1      28.439   0.566  52.578  1.00  0.00     0.317 HD
ENDBRANCH  15  16
BRANCH  15  19
HETATM   19  O3  UNL     1      27.207   1.860  54.108  1.00  0.00    -0.349 OA
HETATM   20  C14 UNL     1      28.424   2.307  53.641  1.00  0.00     0.205 C 
ENDBRANCH  15  19
BRANCH   1  21
HETATM   21  O1  UNL     1      26.153  -0.547  55.021  1.00  0.00    -0.355 OA
HETATM   22  C1  UNL     1      25.232  -0.942  56.045  1.00  0.00     0.209 C 
ENDBRANCH   1  21
TORSDOF 3
ENDMDL
MODEL 7
REMARK VINA RESULT:      -6.5      2.271      3.266
REMARK  3 active torsions:
REMARK  status: ('A' for Active; 'I' for Inactive)
REMARK    1  A    between atoms: O1_2  and  C2_3 
REMARK    2  A    between atoms: C13_17  and  N3_18 
REMARK    3  A    between atoms: C13_17  and  O3_19 
ROOT
HETATM    1  C2  UNL     1      18.915   0.445  50.933  1.00  0.00     0.116 A 
HETATM    2  C3  UNL     1      18.882  -0.105  52.129  1.00  0.00     0.045 A 
HETATM    3  C4  UNL     1      20.222   0.118  52.717  1.00  0.00    -0.046 A 
HETATM    4  C5  UNL     1      20.989   0.792  51.837  1.00  0.00    -0.001 A 
HETATM    5  C6  UNL     1      22.244   0.908  52.606  1.00  0.00     0.056 C 
HETATM    6  C7  UNL     1      22.804  -0.449  52.985  1.00  0.00     0.107 A 
HETATM    7  C8  UNL     1      24.156  -0.342  53.572  1.00  0.00     0.231 A 
HETATM    8  O2  UNL     1      24.968   0.192  52.777  1.00  0.00    -0.273 OA
HETATM    9  N1  UNL     1      24.572  -0.762  54.862  1.00  0.00    -0.317 N 
HETATM   10  C9  UNL     1      25.919  -0.546  55.355  1.00  0.00     0.160 C 
HETATM   11  C10 UNL     1      23.533  -1.403  55.588  1.00  0.00     0.205 A 
HETATM   12  N2  UNL     1      22.346  -1.589  55.142  1.00  0.00    -0.278 NA
HETATM   13  C11 UNL     1      21.861  -1.198  53.874  1.00  0.00     0.127 A 
HETATM   14  C12 UNL     1      20.569  -0.375  54.076  1.00  0.00     0.067 C 
HETATM   15  C13 UNL     1      20.251   1.080  50.585  1.00  0.00     0.330 A 
ENDROOT
BRANCH  15  16
HETATM   16  N3  UNL     1      19.950   2.509  50.530  1.00  0.00     0.125 N 
HETATM   17  H15 UNL     1      19.251   2.637  49.764  1.00  0.00     0.317 HD
HETATM   18  H16 UNL     1      19.411   2.695  51.425  1.00  0.00     0.317 HD
ENDBRANCH  15  16
BRANCH  15  19
HETATM   19  O3  UNL     1      20.739   0.582  49.429  1.00  0.00    -0.349 OA
HETATM   20  C14 UNL     1      21.677   1.413  48.855  1.00  0.00     0.205 C 
ENDBRANCH  15  19
BRANCH   1  21
HETATM   21  O1  UNL     1      17.996   0.581  49.887  1.00  0.00    -0.355 OA
HETATM   22  C1  UNL     1      16.869  -0.302  49.957  1.00  0.00     0.209 C 
ENDBRANCH   1  21
TORSDOF 3
ENDMDL
MODEL 8
REMARK VINA RESULT:      -6.4      3.965      5.998
REMARK  3 active torsions:
REMARK  status: ('A' for Active; 'I' for Inactive)
REMARK    1  A    between atoms: O1_2  and  C2_3 
REMARK    2  A    between atoms: C13_17  and  N3_18 
REMARK    3  A    between atoms: C13_17  and  O3_19 
ROOT
HETATM    1  C2  UNL     1      26.435   6.208  48.874  1.00  0.00     0.116 A 
HETATM    2  C3  UNL     1      27.076   5.058  48.838  1.00  0.00     0.045 A 
HETATM    3  C4  UNL     1      26.224   4.094  49.570  1.00  0.00    -0.046 A 
HETATM    4  C5  UNL     1      25.114   4.722  50.006  1.00  0.00    -0.001 A 
HETATM    5  C6  UNL     1      24.424   3.606  50.685  1.00  0.00     0.056 C 
HETATM    6  C7  UNL     1      25.264   3.012  51.798  1.00  0.00     0.107 A 
HETATM    7  C8  UNL     1      24.500   2.040  52.607  1.00  0.00     0.231 A 
HETATM    8  O2  UNL     1      23.490   2.567  53.137  1.00  0.00    -0.273 OA
HETATM    9  N1  UNL     1      24.795   0.667  52.812  1.00  0.00    -0.317 N 
HETATM   10  C9  UNL     1      23.931  -0.209  53.579  1.00  0.00     0.160 C 
HETATM   11  C10 UNL     1      26.010   0.272  52.190  1.00  0.00     0.205 A 
HETATM   12  N2  UNL     1      26.766   1.056  51.514  1.00  0.00    -0.278 NA
HETATM   13  C11 UNL     1      26.536   2.428  51.268  1.00  0.00     0.127 A 
HETATM   14  C12 UNL     1      26.628   2.674  49.745  1.00  0.00     0.067 C 
HETATM   15  C13 UNL     1      25.113   6.151  49.622  1.00  0.00     0.330 A 
ENDROOT
BRANCH  15  16
HETATM   16  N3  UNL     1      24.116   6.360  48.575  1.00  0.00     0.125 N 
HETATM   17  H15 UNL     1      24.581   6.922  47.827  1.00  0.00     0.317 HD
HETATM   18  H16 UNL     1      23.980   5.398  48.149  1.00  0.00     0.317 HD
ENDBRANCH  15  16
BRANCH  15  19
HETATM   19  O3  UNL     1      25.072   7.076  50.605  1.00  0.00    -0.349 OA
HETATM   20  C14 UNL     1      23.808   7.597  50.781  1.00  0.00     0.205 C 
ENDBRANCH  15  19
BRANCH   1  21
HETATM   21  O1  UNL     1      26.690   7.492  48.382  1.00  0.00    -0.355 OA
HETATM   22  C1  UNL     1      27.942   8.056  48.790  1.00  0.00     0.209 C 
ENDBRANCH   1  21
TORSDOF 3
ENDMDL
MODEL 9
REMARK VINA RESULT:      -6.0      2.928      4.609
REMARK  3 active torsions:
REMARK  status: ('A' for Active; 'I' for Inactive)
REMARK    1  A    between atoms: O1_2  and  C2_3 
REMARK    2  A    between atoms: C13_17  and  N3_18 
REMARK    3  A    between atoms: C13_17  and  O3_19 
ROOT
HETATM    1  C2  UNL     1      23.054   5.506  50.141  1.00  0.00     0.116 A 
HETATM    2  C3  UNL     1      22.147   4.573  50.344  1.00  0.00     0.045 A 
HETATM    3  C4  UNL     1      22.678   3.718  51.429  1.00  0.00    -0.046 A 
HETATM    4  C5  UNL     1      23.881   4.187  51.819  1.00  0.00    -0.001 A 
HETATM    5  C6  UNL     1      24.217   3.218  52.881  1.00  0.00     0.056 C 
HETATM    6  C7  UNL     1      24.260   1.796  52.358  1.00  0.00     0.107 A 
HETATM    7  C8  UNL     1      24.793   0.854  53.364  1.00  0.00     0.231 A 
HETATM    8  O2  UNL     1      25.959   1.162  53.718  1.00  0.00    -0.273 OA
HETATM    9  N1  UNL     1      24.141  -0.278  53.918  1.00  0.00    -0.317 N 
HETATM   10  C9  UNL     1      24.745  -1.096  54.952  1.00  0.00     0.160 C 
HETATM   11  C10 UNL     1      22.860  -0.502  53.347  1.00  0.00     0.205 A 
HETATM   12  N2  UNL     1      22.337   0.227  52.432  1.00  0.00    -0.278 NA
HETATM   13  C11 UNL     1      22.924   1.366  51.837  1.00  0.00     0.127 A 
HETATM   14  C12 UNL     1      21.924   2.540  51.934  1.00  0.00     0.067 C 
HETATM   15  C13 UNL     1      24.273   5.384  51.040  1.00  0.00     0.330 A 
ENDROOT
BRANCH  15  16
HETATM   16  N3  UNL     1      24.183   6.561  51.903  1.00  0.00     0.125 N 
HETATM   17  H15 UNL     1      23.362   6.409  52.531  1.00  0.00     0.317 HD
HETATM   18  H16 UNL     1      25.030   6.483  52.537  1.00  0.00     0.317 HD
ENDBRANCH  15  16
BRANCH  15  19
HETATM   19  O3  UNL     1      25.409   5.327  50.313  1.00  0.00    -0.349 OA
HETATM   20  C14 UNL     1      25.577   4.105  49.699  1.00  0.00     0.205 C 
ENDBRANCH  15  19
BRANCH   1  21
HETATM   21  O1  UNL     1      23.164   6.599  49.275  1.00  0.00    -0.355 OA
HETATM   22  C1  UNL     1      22.924   6.299  47.894  1.00  0.00     0.209 C 
ENDBRANCH   1  21
TORSDOF 3
ENDMDL
