MODEL 1
REMARK VINA RESULT:      -9.0      0.000      0.000
REMARK  4 active torsions:
REMARK  status: ('A' for Active; 'I' for Inactive)
REMARK    1  A    between atoms: C2_2  and  O1_3 
REMARK    2  A    between atoms: O1_3  and  C3_4 
REMARK    3  A    between atoms: C4_5  and  C5_6 
REMARK    4  A    between atoms: N3_17  and  C13_18 
ROOT
HETATM    1  C5  UNL     1      23.772   5.193  49.595  1.00  0.00     0.072 A 
HETATM    2  N1  UNL     1      22.520   5.651  49.545  1.00  0.00    -0.241 NA
HETATM    3  C6  UNL     1      21.651   5.222  50.472  1.00  0.00     0.235 A 
HETATM    4  N2  UNL     1      22.044   4.339  51.437  1.00  0.00    -0.224 NA
HETATM    5  C7  UNL     1      23.321   3.858  51.505  1.00  0.00     0.140 A 
HETATM    6  C8  UNL     1      24.194   4.315  50.542  1.00  0.00     0.040 A 
HETATM    7  C9  UNL     1      25.540   3.671  50.781  1.00  0.00     0.212 C 
HETATM    8  O2  UNL     1      25.369   2.312  50.922  1.00  0.00    -0.386 OA
HETATM    9  C10 UNL     1      26.586   1.713  51.209  1.00  0.00     0.169 C 
HETATM   10  C11 UNL     1      27.114   2.362  52.438  1.00  0.00     0.046 C 
HETATM   11  C12 UNL     1      28.142   1.507  53.115  1.00  0.00     0.121 C 
HETATM   12  N3  UNL     1      27.703   0.365  53.781  1.00  0.00    -0.392 N 
HETATM   13  C15 UNL     1      26.441  -0.211  53.572  1.00  0.00     0.295 C 
HETATM   14  O3  UNL     1      25.467   0.808  53.608  1.00  0.00    -0.330 OA
HETATM   15  C16 UNL     1      24.127   0.679  53.429  1.00  0.00     0.100 A 
HETATM   16  C17 UNL     1      23.628  -0.569  53.697  1.00  0.00     0.083 A 
HETATM   17  C18 UNL     1      22.307  -0.949  53.592  1.00  0.00     0.140 A 
HETATM   18  F1  UNL     1      21.875  -2.212  53.873  1.00  0.00    -0.204 F 
HETATM   19  C19 UNL     1      21.357  -0.035  53.189  1.00  0.00     0.074 A 
HETATM   20 CL1  UNL     1      19.697  -0.500  53.054  1.00  0.00    -0.081 Cl
HETATM   21  C20 UNL     1      21.881   1.242  52.917  1.00  0.00     0.059 A 
HETATM   22  C21 UNL     1      23.229   1.636  53.021  1.00  0.00     0.069 A 
HETATM   23  N4  UNL     1      23.243   3.004  52.636  1.00  0.00    -0.338 N 
HETATM   24  H26 UNL     1      23.135   3.382  53.599  1.00  0.00     0.167 HD
ENDROOT
BRANCH   1  25
HETATM   25  C4  UNL     1      24.798   5.579  48.653  1.00  0.00     0.056 C 
HETATM   26  C3  UNL     1      25.338   6.749  48.846  1.00  0.00     0.137 C 
BRANCH  26  27
HETATM   27  O1  UNL     1      26.336   7.286  48.045  1.00  0.00    -0.363 OA
BRANCH  27  28
HETATM   28  C2  UNL     1      27.687   7.366  48.461  1.00  0.00     0.170 C 
HETATM   29  C1  UNL     1      28.359   6.021  48.232  1.00  0.00     0.034 C 
ENDBRANCH  27  28
ENDBRANCH  26  27
ENDBRANCH   1  25
BRANCH  12  30
HETATM   30  C13 UNL     1      28.728  -0.403  54.359  1.00  0.00     0.114 C 
HETATM   31  C14 UNL     1      29.928  -0.605  53.472  1.00  0.00     0.026 C 
ENDBRANCH  12  30
TORSDOF 4
ENDMDL
MODEL 2
REMARK VINA RESULT:      -8.6      2.968      5.102
REMARK  4 active torsions:
REMARK  status: ('A' for Active; 'I' for Inactive)
REMARK    1  A    between atoms: C2_2  and  O1_3 
REMARK    2  A    between atoms: O1_3  and  C3_4 
REMARK    3  A    between atoms: C4_5  and  C5_6 
REMARK    4  A    between atoms: N3_17  and  C13_18 
ROOT
HETATM    1  C5  UNL     1      25.378   5.572  49.004  1.00  0.00     0.072 A 
HETATM    2  N1  UNL     1      26.637   5.743  48.599  1.00  0.00    -0.241 NA
HETATM    3  C6  UNL     1      27.523   4.769  48.852  1.00  0.00     0.235 A 
HETATM    4  N2  UNL     1      27.138   3.634  49.509  1.00  0.00    -0.224 NA
HETATM    5  C7  UNL     1      25.854   3.440  49.932  1.00  0.00     0.140 A 
HETATM    6  C8  UNL     1      24.964   4.455  49.658  1.00  0.00     0.040 A 
HETATM    7  C9  UNL     1      23.612   4.058  50.204  1.00  0.00     0.212 C 
HETATM    8  O2  UNL     1      23.758   3.646  51.509  1.00  0.00    -0.386 OA
HETATM    9  C10 UNL     1      22.536   3.214  52.005  1.00  0.00     0.169 C 
HETATM   10  C11 UNL     1      22.058   2.132  51.104  1.00  0.00     0.046 C 
HETATM   11  C12 UNL     1      21.031   1.271  51.776  1.00  0.00     0.121 C 
HETATM   12  N3  UNL     1      21.464   0.396  52.769  1.00  0.00    -0.392 N 
HETATM   13  C15 UNL     1      22.707   0.512  53.409  1.00  0.00     0.295 C 
HETATM   14  O3  UNL     1      23.703   0.708  52.430  1.00  0.00    -0.330 OA
HETATM   15  C16 UNL     1      25.034   0.887  52.629  1.00  0.00     0.100 A 
HETATM   16  C17 UNL     1      25.515   0.382  53.809  1.00  0.00     0.083 A 
HETATM   17  C18 UNL     1      26.824   0.438  54.237  1.00  0.00     0.140 A 
HETATM   18  F1  UNL     1      27.236  -0.087  55.427  1.00  0.00    -0.204 F 
HETATM   19  C19 UNL     1      27.781   1.041  53.450  1.00  0.00     0.074 A 
HETATM   20 CL1  UNL     1      29.426   1.117  53.978  1.00  0.00    -0.081 Cl
HETATM   21  C20 UNL     1      27.277   1.556  52.242  1.00  0.00     0.059 A 
HETATM   22  C21 UNL     1      25.941   1.504  51.799  1.00  0.00     0.069 A 
HETATM   23  N4  UNL     1      25.945   2.160  50.539  1.00  0.00    -0.338 N 
HETATM   24  H26 UNL     1      26.088   1.297  49.975  1.00  0.00     0.167 HD
ENDROOT
BRANCH   1  25
HETATM   25  C4  UNL     1      24.334   6.548  48.790  1.00  0.00     0.056 C 
HETATM   26  C3  UNL     1      24.241   7.490  49.686  1.00  0.00     0.137 C 
BRANCH  26  27
HETATM   27  O1  UNL     1      23.301   8.510  49.646  1.00  0.00    -0.363 OA
BRANCH  27  28
HETATM   28  C2  UNL     1      21.908   8.263  49.626  1.00  0.00     0.170 C 
HETATM   29  C1  UNL     1      21.547   7.351  50.788  1.00  0.00     0.034 C 
ENDBRANCH  27  28
ENDBRANCH  26  27
ENDBRANCH   1  25
BRANCH  12  30
HETATM   30  C13 UNL     1      20.440  -0.351  53.375  1.00  0.00     0.114 C 
HETATM   31  C14 UNL     1      20.925  -1.499  54.220  1.00  0.00     0.026 C 
ENDBRANCH  12  30
TORSDOF 4
ENDMDL
MODEL 3
REMARK VINA RESULT:      -8.2      3.855      7.091
REMARK  4 active torsions:
REMARK  status: ('A' for Active; 'I' for Inactive)
REMARK    1  A    between atoms: C2_2  and  O1_3 
REMARK    2  A    between atoms: O1_3  and  C3_4 
REMARK    3  A    between atoms: C4_5  and  C5_6 
REMARK    4  A    between atoms: N3_17  and  C13_18 
ROOT
HETATM    1  C5  UNL     1      19.702   0.744  51.266  1.00  0.00     0.072 A 
HETATM    2  N1  UNL     1      18.869   1.104  50.289  1.00  0.00    -0.241 NA
HETATM    3  C6  UNL     1      19.385   1.692  49.199  1.00  0.00     0.235 A 
HETATM    4  N2  UNL     1      20.730   1.914  49.102  1.00  0.00    -0.224 NA
HETATM    5  C7  UNL     1      21.599   1.553  50.092  1.00  0.00     0.140 A 
HETATM    6  C8  UNL     1      21.044   0.950  51.199  1.00  0.00     0.040 A 
HETATM    7  C9  UNL     1      22.155   0.634  52.173  1.00  0.00     0.212 C 
HETATM    8  O2  UNL     1      22.926   1.759  52.355  1.00  0.00    -0.386 OA
HETATM    9  C10 UNL     1      23.991   1.469  53.195  1.00  0.00     0.169 C 
HETATM   10  C11 UNL     1      24.742   0.345  52.574  1.00  0.00     0.046 C 
HETATM   11  C12 UNL     1      26.142   0.261  53.101  1.00  0.00     0.121 C 
HETATM   12  N3  UNL     1      27.051   1.233  52.692  1.00  0.00    -0.392 N 
HETATM   13  C15 UNL     1      26.667   2.451  52.111  1.00  0.00     0.295 C 
HETATM   14  O3  UNL     1      25.708   2.192  51.110  1.00  0.00    -0.330 OA
HETATM   15  C16 UNL     1      25.067   3.096  50.325  1.00  0.00     0.100 A 
HETATM   16  C17 UNL     1      25.724   4.288  50.163  1.00  0.00     0.083 A 
HETATM   17  C18 UNL     1      25.281   5.358  49.416  1.00  0.00     0.140 A 
HETATM   18  F1  UNL     1      25.986   6.520  49.296  1.00  0.00    -0.204 F 
HETATM   19  C19 UNL     1      24.077   5.281  48.748  1.00  0.00     0.074 A 
HETATM   20 CL1  UNL     1      23.512   6.618  47.809  1.00  0.00    -0.081 Cl
HETATM   21  C20 UNL     1      23.412   4.054  48.921  1.00  0.00     0.059 A 
HETATM   22  C21 UNL     1      23.859   2.957  49.684  1.00  0.00     0.069 A 
HETATM   23  N4  UNL     1      22.840   1.976  49.548  1.00  0.00    -0.338 N 
HETATM   24  H26 UNL     1      23.273   1.492  48.735  1.00  0.00     0.167 HD
ENDROOT
BRANCH   1  25
HETATM   25  C4  UNL     1      19.267   0.104  52.487  1.00  0.00     0.056 C 
HETATM   26  C3  UNL     1      18.206  -0.648  52.390  1.00  0.00     0.137 C 
BRANCH  26  27
HETATM   27  O1  UNL     1      17.645  -1.339  53.455  1.00  0.00    -0.363 OA
BRANCH  27  28
HETATM   28  C2  UNL     1      18.074  -2.633  53.834  1.00  0.00     0.170 C 
HETATM   29  C1  UNL     1      16.978  -3.636  53.508  1.00  0.00     0.034 C 
ENDBRANCH  27  28
ENDBRANCH  26  27
ENDBRANCH   1  25
BRANCH  12  30
HETATM   30  C13 UNL     1      28.332   1.108  53.255  1.00  0.00     0.114 C 
HETATM   31  C14 UNL     1      28.925   2.403  53.744  1.00  0.00     0.026 C 
ENDBRANCH  12  30
TORSDOF 4
ENDMDL
MODEL 4
REMARK VINA RESULT:      -8.1      3.155      5.286
REMARK  4 active torsions:
REMARK  status: ('A' for Active; 'I' for Inactive)
REMARK    1  A    between atoms: C2_2  and  O1_3 
REMARK    2  A    between atoms: O1_3  and  C3_4 
REMARK    3  A    between atoms: C4_5  and  C5_6 
REMARK    4  A    between atoms: N3_17  and  C13_18 
ROOT
HETATM    1  C5  UNL     1      26.011   6.414  48.460  1.00  0.00     0.072 A 
HETATM    2  N1  UNL     1      27.317   6.443  48.191  1.00  0.00    -0.241 NA
HETATM    3  C6  UNL     1      28.061   5.384  48.543  1.00  0.00     0.235 A 
HETATM    4  N2  UNL     1      27.489   4.309  49.162  1.00  0.00    -0.224 NA
HETATM    5  C7  UNL     1      26.155   4.260  49.447  1.00  0.00     0.140 A 
HETATM    6  C8  UNL     1      25.413   5.359  49.074  1.00  0.00     0.040 A 
HETATM    7  C9  UNL     1      23.976   5.118  49.474  1.00  0.00     0.212 C 
HETATM    8  O2  UNL     1      23.938   4.716  50.790  1.00  0.00    -0.386 OA
HETATM    9  C10 UNL     1      22.632   4.425  51.155  1.00  0.00     0.169 C 
HETATM   10  C11 UNL     1      22.138   3.384  50.216  1.00  0.00     0.046 C 
HETATM   11  C12 UNL     1      20.959   2.649  50.779  1.00  0.00     0.121 C 
HETATM   12  N3  UNL     1      21.188   1.751  51.818  1.00  0.00    -0.392 N 
HETATM   13  C15 UNL     1      22.362   1.745  52.586  1.00  0.00     0.295 C 
HETATM   14  O3  UNL     1      23.471   1.817  51.718  1.00  0.00    -0.330 OA
HETATM   15  C16 UNL     1      24.785   1.857  52.057  1.00  0.00     0.100 A 
HETATM   16  C17 UNL     1      25.081   1.324  53.285  1.00  0.00     0.083 A 
HETATM   17  C18 UNL     1      26.336   1.248  53.849  1.00  0.00     0.140 A 
HETATM   18  F1  UNL     1      26.562   0.704  55.080  1.00  0.00    -0.204 F 
HETATM   19  C19 UNL     1      27.430   1.732  53.166  1.00  0.00     0.074 A 
HETATM   20 CL1  UNL     1      29.009   1.642  53.865  1.00  0.00    -0.081 Cl
HETATM   21  C20 UNL     1      27.115   2.276  51.907  1.00  0.00     0.059 A 
HETATM   22  C21 UNL     1      25.835   2.359  51.325  1.00  0.00     0.069 A 
HETATM   23  N4  UNL     1      26.043   2.989  50.068  1.00  0.00    -0.338 N 
HETATM   24  H26 UNL     1      26.151   2.106  49.528  1.00  0.00     0.167 HD
ENDROOT
BRANCH   1  25
HETATM   25  C4  UNL     1      25.106   7.492  48.130  1.00  0.00     0.056 C 
HETATM   26  C3  UNL     1      25.245   8.010  46.942  1.00  0.00     0.137 C 
BRANCH  26  27
HETATM   27  O1  UNL     1      24.467   9.050  46.453  1.00  0.00    -0.363 OA
BRANCH  27  28
HETATM   28  C2  UNL     1      23.950   9.061  45.136  1.00  0.00     0.170 C 
HETATM   29  C1  UNL     1      24.678   8.015  44.306  1.00  0.00     0.034 C 
ENDBRANCH  27  28
ENDBRANCH  26  27
ENDBRANCH   1  25
BRANCH  12  30
HETATM   30  C13 UNL     1      20.031   1.128  52.316  1.00  0.00     0.114 C 
HETATM   31  C14 UNL     1      20.286   0.138  53.422  1.00  0.00     0.026 C 
ENDBRANCH  12  30
TORSDOF 4
ENDMDL
MODEL 5
REMARK VINA RESULT:      -8.0      2.729      6.774
REMARK  4 active torsions:
REMARK  status: ('A' for Active; 'I' for Inactive)
REMARK    1  A    between atoms: C2_2  and  O1_3 
REMARK    2  A    between atoms: O1_3  and  C3_4 
REMARK    3  A    between atoms: C4_5  and  C5_6 
REMARK    4  A    between atoms: N3_17  and  C13_18 
ROOT
HETATM    1  C5  UNL     1      24.548   0.407  53.422  1.00  0.00     0.072 A 
HETATM    2  N1  UNL     1      23.807  -0.623  53.831  1.00  0.00    -0.241 NA
HETATM    3  C6  UNL     1      22.624  -0.830  53.234  1.00  0.00     0.235 A 
HETATM    4  N2  UNL     1      22.197  -0.001  52.236  1.00  0.00    -0.224 NA
HETATM    5  C7  UNL     1      22.940   1.060  51.803  1.00  0.00     0.140 A 
HETATM    6  C8  UNL     1      24.151   1.249  52.432  1.00  0.00     0.040 A 
HETATM    7  C9  UNL     1      24.816   2.462  51.823  1.00  0.00     0.212 C 
HETATM    8  O2  UNL     1      23.917   3.503  51.803  1.00  0.00    -0.386 OA
HETATM    9  C10 UNL     1      24.489   4.606  51.185  1.00  0.00     0.169 C 
HETATM   10  C11 UNL     1      24.909   4.176  49.826  1.00  0.00     0.046 C 
HETATM   11  C12 UNL     1      25.085   5.347  48.907  1.00  0.00     0.121 C 
HETATM   12  N3  UNL     1      23.939   6.000  48.459  1.00  0.00    -0.392 N 
HETATM   13  C15 UNL     1      22.683   5.858  49.069  1.00  0.00     0.295 C 
HETATM   14  O3  UNL     1      22.439   4.487  49.286  1.00  0.00    -0.330 OA
HETATM   15  C16 UNL     1      21.350   3.923  49.870  1.00  0.00     0.100 A 
HETATM   16  C17 UNL     1      20.212   4.685  49.825  1.00  0.00     0.083 A 
HETATM   17  C18 UNL     1      18.985   4.333  50.345  1.00  0.00     0.140 A 
HETATM   18  F1  UNL     1      17.888   5.141  50.266  1.00  0.00    -0.204 F 
HETATM   19  C19 UNL     1      18.826   3.119  50.977  1.00  0.00     0.074 A 
HETATM   20 CL1  UNL     1      17.291   2.668  51.633  1.00  0.00    -0.081 Cl
HETATM   21  C20 UNL     1      20.001   2.346  51.017  1.00  0.00     0.059 A 
HETATM   22  C21 UNL     1      21.258   2.699  50.489  1.00  0.00     0.069 A 
HETATM   23  N4  UNL     1      22.106   1.599  50.790  1.00  0.00    -0.338 N 
HETATM   24  H26 UNL     1      21.950   1.102  49.889  1.00  0.00     0.167 HD
ENDROOT
BRANCH   1  25
HETATM   25  C4  UNL     1      25.839   0.732  53.987  1.00  0.00     0.056 C 
HETATM   26  C3  UNL     1      26.562  -0.279  54.377  1.00  0.00     0.137 C 
BRANCH  26  27
HETATM   27  O1  UNL     1      27.824  -0.159  54.942  1.00  0.00    -0.363 OA
BRANCH  27  28
HETATM   28  C2  UNL     1      28.949   0.286  54.207  1.00  0.00     0.170 C 
HETATM   29  C1  UNL     1      29.718  -0.921  53.694  1.00  0.00     0.034 C 
ENDBRANCH  27  28
ENDBRANCH  26  27
ENDBRANCH   1  25
BRANCH  12  30
HETATM   30  C13 UNL     1      24.186   7.108  47.631  1.00  0.00     0.114 C 
HETATM   31  C14 UNL     1      25.604   7.614  47.677  1.00  0.00     0.026 C 
ENDBRANCH  12  30
TORSDOF 4
ENDMDL
MODEL 6
REMARK VINA RESULT:      -8.0      4.136      7.741
REMARK  4 active torsions:
REMARK  status: ('A' for Active; 'I' for Inactive)
REMARK    1  A    between atoms: C2_2  and  O1_3 
REMARK    2  A    between atoms: O1_3  and  C3_4 
REMARK    3  A    between atoms: C4_5  and  C5_6 
REMARK    4  A    between atoms: N3_17  and  C13_18 
ROOT
HETATM    1  C5  UNL     1      18.413  -0.406  52.462  1.00  0.00     0.072 A 
HETATM    2  N1  UNL     1      17.457   0.139  51.708  1.00  0.00    -0.241 NA
HETATM    3  C6  UNL     1      17.808   1.087  50.826  1.00  0.00     0.235 A 
HETATM    4  N2  UNL     1      19.112   1.477  50.709  1.00  0.00    -0.224 NA
HETATM    5  C7  UNL     1      20.105   0.931  51.472  1.00  0.00     0.140 A 
HETATM    6  C8  UNL     1      19.718  -0.040  52.369  1.00  0.00     0.040 A 
HETATM    7  C9  UNL     1      20.945  -0.512  53.114  1.00  0.00     0.212 C 
HETATM    8  O2  UNL     1      21.632   0.583  53.586  1.00  0.00    -0.386 OA
HETATM    9  C10 UNL     1      22.798   0.171  54.215  1.00  0.00     0.169 C 
HETATM   10  C11 UNL     1      23.575  -0.617  53.222  1.00  0.00     0.046 C 
HETATM   11  C12 UNL     1      25.023  -0.701  53.596  1.00  0.00     0.121 C 
HETATM   12  N3  UNL     1      25.801   0.445  53.450  1.00  0.00    -0.392 N 
HETATM   13  C15 UNL     1      25.258   1.731  53.310  1.00  0.00     0.295 C 
HETATM   14  O3  UNL     1      24.228   1.685  52.348  1.00  0.00    -0.330 OA
HETATM   15  C16 UNL     1      23.436   2.708  51.934  1.00  0.00     0.100 A 
HETATM   16  C17 UNL     1      23.969   3.958  52.109  1.00  0.00     0.083 A 
HETATM   17  C18 UNL     1      23.363   5.148  51.770  1.00  0.00     0.140 A 
HETATM   18  F1  UNL     1      23.951   6.363  51.973  1.00  0.00    -0.204 F 
HETATM   19  C19 UNL     1      22.109   5.145  51.198  1.00  0.00     0.074 A 
HETATM   20 CL1  UNL     1      21.340   6.632  50.769  1.00  0.00    -0.081 Cl
HETATM   21  C20 UNL     1      21.572   3.857  51.023  1.00  0.00     0.059 A 
HETATM   22  C21 UNL     1      22.185   2.636  51.368  1.00  0.00     0.069 A 
HETATM   23  N4  UNL     1      21.245   1.636  51.003  1.00  0.00    -0.338 N 
HETATM   24  H26 UNL     1      21.632   1.476  50.050  1.00  0.00     0.167 HD
ENDROOT
BRANCH   1  25
HETATM   25  C4  UNL     1      18.160  -1.433  53.447  1.00  0.00     0.056 C 
HETATM   26  C3  UNL     1      17.448  -2.448  53.043  1.00  0.00     0.137 C 
BRANCH  26  27
HETATM   27  O1  UNL     1      17.106  -3.526  53.848  1.00  0.00    -0.363 OA
BRANCH  27  28
HETATM   28  C2  UNL     1      16.386  -4.642  53.361  1.00  0.00     0.170 C 
HETATM   29  C1  UNL     1      15.842  -5.437  54.538  1.00  0.00     0.034 C 
ENDBRANCH  27  28
ENDBRANCH  26  27
ENDBRANCH   1  25
BRANCH  12  30
HETATM   30  C13 UNL     1      27.138   0.298  53.854  1.00  0.00     0.114 C 
HETATM   31  C14 UNL     1      27.870  -0.832  53.179  1.00  0.00     0.026 C 
ENDBRANCH  12  30
TORSDOF 4
ENDMDL
MODEL 7
REMARK VINA RESULT:      -7.9      3.455      6.875
REMARK  4 active torsions:
REMARK  status: ('A' for Active; 'I' for Inactive)
REMARK    1  A    between atoms: C2_2  and  O1_3 
REMARK    2  A    between atoms: O1_3  and  C3_4 
REMARK    3  A    between atoms: C4_5  and  C5_6 
REMARK    4  A    between atoms: N3_17  and  C13_18 
ROOT
HETATM    1  C5  UNL     1      24.412   1.099  53.225  1.00  0.00     0.072 A 
HETATM    2  N1  UNL     1      24.282   0.116  54.116  1.00  0.00    -0.241 NA
HETATM    3  C6  UNL     1      23.277  -0.758  53.955  1.00  0.00     0.235 A 
HETATM    4  N2  UNL     1      22.413  -0.635  52.905  1.00  0.00    -0.224 NA
HETATM    5  C7  UNL     1      22.528   0.365  51.982  1.00  0.00     0.140 A 
HETATM    6  C8  UNL     1      23.568   1.248  52.169  1.00  0.00     0.040 A 
HETATM    7  C9  UNL     1      23.525   2.273  51.060  1.00  0.00     0.212 C 
HETATM    8  O2  UNL     1      22.247   2.775  50.963  1.00  0.00    -0.386 OA
HETATM    9  C10 UNL     1      22.172   3.669  49.905  1.00  0.00     0.169 C 
HETATM   10  C11 UNL     1      22.603   2.937  48.684  1.00  0.00     0.046 C 
HETATM   11  C12 UNL     1      22.116   3.612  47.437  1.00  0.00     0.121 C 
HETATM   12  N3  UNL     1      20.759   3.526  47.138  1.00  0.00    -0.392 N 
HETATM   13  C15 UNL     1      19.785   3.157  48.077  1.00  0.00     0.295 C 
HETATM   14  O3  UNL     1      20.231   2.010  48.764  1.00  0.00    -0.330 OA
HETATM   15  C16 UNL     1      19.597   1.347  49.766  1.00  0.00     0.100 A 
HETATM   16  C17 UNL     1      18.237   1.513  49.797  1.00  0.00     0.083 A 
HETATM   17  C18 UNL     1      17.376   0.946  50.712  1.00  0.00     0.140 A 
HETATM   18  F1  UNL     1      16.028   1.154  50.687  1.00  0.00    -0.204 F 
HETATM   19  C19 UNL     1      17.868   0.128  51.706  1.00  0.00     0.074 A 
HETATM   20 CL1  UNL     1      16.796  -0.589  52.859  1.00  0.00    -0.081 Cl
HETATM   21  C20 UNL     1      19.264  -0.036  51.664  1.00  0.00     0.059 A 
HETATM   22  C21 UNL     1      20.150   0.541  50.733  1.00  0.00     0.069 A 
HETATM   23  N4  UNL     1      21.439   0.082  51.117  1.00  0.00    -0.338 N 
HETATM   24  H26 UNL     1      21.440  -0.750  50.492  1.00  0.00     0.167 HD
ENDROOT
BRANCH   1  25
HETATM   25  C4  UNL     1      25.452   2.101  53.290  1.00  0.00     0.056 C 
HETATM   26  C3  UNL     1      26.585   1.713  53.805  1.00  0.00     0.137 C 
BRANCH  26  27
HETATM   27  O1  UNL     1      27.694   2.535  53.949  1.00  0.00    -0.363 OA
BRANCH  27  28
HETATM   28  C2  UNL     1      29.019   2.038  53.926  1.00  0.00     0.170 C 
HETATM   29  C1  UNL     1      28.989   0.529  54.111  1.00  0.00     0.034 C 
ENDBRANCH  27  28
ENDBRANCH  26  27
ENDBRANCH   1  25
BRANCH  12  30
HETATM   30  C13 UNL     1      20.375   4.213  45.973  1.00  0.00     0.114 C 
HETATM   31  C14 UNL     1      21.276   3.980  44.789  1.00  0.00     0.026 C 
ENDBRANCH  12  30
TORSDOF 4
ENDMDL
MODEL 8
REMARK VINA RESULT:      -7.8      3.976      7.904
REMARK  4 active torsions:
REMARK  status: ('A' for Active; 'I' for Inactive)
REMARK    1  A    between atoms: C2_2  and  O1_3 
REMARK    2  A    between atoms: O1_3  and  C3_4 
REMARK    3  A    between atoms: C4_5  and  C5_6 
REMARK    4  A    between atoms: N3_17  and  C13_18 
ROOT
HETATM    1  C5  UNL     1      18.990  -0.435  52.835  1.00  0.00     0.072 A 
HETATM    2  N1  UNL     1      19.135  -1.580  53.504  1.00  0.00    -0.241 NA
HETATM    3  C6  UNL     1      20.292  -1.797  54.146  1.00  0.00     0.235 A 
HETATM    4  N2  UNL     1      21.291  -0.867  54.110  1.00  0.00    -0.224 NA
HETATM    5  C7  UNL     1      21.163   0.311  53.430  1.00  0.00     0.140 A 
HETATM    6  C8  UNL     1      19.965   0.510  52.780  1.00  0.00     0.040 A 
HETATM    7  C9  UNL     1      20.018   1.854  52.090  1.00  0.00     0.212 C 
HETATM    8  O2  UNL     1      21.183   1.938  51.362  1.00  0.00    -0.386 OA
HETATM    9  C10 UNL     1      21.281   3.191  50.776  1.00  0.00     0.169 C 
HETATM   10  C11 UNL     1      21.209   4.193  51.872  1.00  0.00     0.046 C 
HETATM   11  C12 UNL     1      21.778   5.513  51.450  1.00  0.00     0.121 C 
HETATM   12  N3  UNL     1      23.160   5.612  51.309  1.00  0.00    -0.392 N 
HETATM   13  C15 UNL     1      24.005   4.497  51.202  1.00  0.00     0.295 C 
HETATM   14  O3  UNL     1      23.657   3.568  52.203  1.00  0.00    -0.330 OA
HETATM   15  C16 UNL     1      24.213   2.350  52.431  1.00  0.00     0.100 A 
HETATM   16  C17 UNL     1      25.495   2.206  51.968  1.00  0.00     0.083 A 
HETATM   17  C18 UNL     1      26.270   1.072  52.078  1.00  0.00     0.140 A 
HETATM   18  F1  UNL     1      27.543   0.994  51.593  1.00  0.00    -0.204 F 
HETATM   19  C19 UNL     1      25.765  -0.049  52.701  1.00  0.00     0.074 A 
HETATM   20 CL1  UNL     1      26.729  -1.478  52.845  1.00  0.00    -0.081 Cl
HETATM   21  C20 UNL     1      24.450   0.110  53.173  1.00  0.00     0.059 A 
HETATM   22  C21 UNL     1      23.652   1.266  53.063  1.00  0.00     0.069 A 
HETATM   23  N4  UNL     1      22.419   0.922  53.680  1.00  0.00    -0.338 N 
HETATM   24  H26 UNL     1      22.675   1.278  54.624  1.00  0.00     0.167 HD
ENDROOT
BRANCH   1  25
HETATM   25  C4  UNL     1      17.792  -0.087  52.104  1.00  0.00     0.056 C 
HETATM   26  C3  UNL     1      16.774  -0.885  52.263  1.00  0.00     0.137 C 
BRANCH  26  27
HETATM   27  O1  UNL     1      15.546  -0.709  51.643  1.00  0.00    -0.363 OA
BRANCH  27  28
HETATM   28  C2  UNL     1      14.332  -0.622  52.366  1.00  0.00     0.170 C 
HETATM   29  C1  UNL     1      14.280   0.712  53.094  1.00  0.00     0.034 C 
ENDBRANCH  27  28
ENDBRANCH  26  27
ENDBRANCH   1  25
BRANCH  12  30
HETATM   30  C13 UNL     1      23.613   6.870  50.877  1.00  0.00     0.114 C 
HETATM   31  C14 UNL     1      25.062   6.899  50.465  1.00  0.00     0.026 C 
ENDBRANCH  12  30
TORSDOF 4
ENDMDL
MODEL 9
REMARK VINA RESULT:      -7.4      4.195      8.888
REMARK  4 active torsions:
REMARK  status: ('A' for Active; 'I' for Inactive)
REMARK    1  A    between atoms: C2_2  and  O1_3 
REMARK    2  A    between atoms: O1_3  and  C3_4 
REMARK    3  A    between atoms: C4_5  and  C5_6 
REMARK    4  A    between atoms: N3_17  and  C13_18 
ROOT
HETATM    1  C5  UNL     1      23.514   1.723  51.437  1.00  0.00     0.072 A 
HETATM    2  N1  UNL     1      24.647   1.082  51.725  1.00  0.00    -0.241 NA
HETATM    3  C6  UNL     1      25.791   1.782  51.716  1.00  0.00     0.235 A 
HETATM    4  N2  UNL     1      25.786   3.115  51.418  1.00  0.00    -0.224 NA
HETATM    5  C7  UNL     1      24.636   3.789  51.120  1.00  0.00     0.140 A 
HETATM    6  C8  UNL     1      23.476   3.048  51.137  1.00  0.00     0.040 A 
HETATM    7  C9  UNL     1      22.325   3.961  50.782  1.00  0.00     0.212 C 
HETATM    8  O2  UNL     1      22.643   4.658  49.638  1.00  0.00    -0.386 OA
HETATM    9  C10 UNL     1      21.626   5.551  49.334  1.00  0.00     0.169 C 
HETATM   10  C11 UNL     1      21.449   6.430  50.519  1.00  0.00     0.046 C 
HETATM   11  C12 UNL     1      20.752   7.707  50.158  1.00  0.00     0.121 C 
HETATM   12  N3  UNL     1      21.466   8.655  49.430  1.00  0.00    -0.392 N 
HETATM   13  C15 UNL     1      22.647   8.361  48.732  1.00  0.00     0.295 C 
HETATM   14  O3  UNL     1      23.497   7.616  49.574  1.00  0.00    -0.330 OA
HETATM   15  C16 UNL     1      24.724   7.115  49.278  1.00  0.00     0.100 A 
HETATM   16  C17 UNL     1      25.382   7.764  48.266  1.00  0.00     0.083 A 
HETATM   17  C18 UNL     1      26.634   7.446  47.785  1.00  0.00     0.140 A 
HETATM   18  F1  UNL     1      27.234   8.135  46.771  1.00  0.00    -0.204 F 
HETATM   19  C19 UNL     1      27.336   6.393  48.331  1.00  0.00     0.074 A 
HETATM   20 CL1  UNL     1      28.907   5.986  47.735  1.00  0.00    -0.081 Cl
HETATM   21  C20 UNL     1      26.651   5.735  49.368  1.00  0.00     0.059 A 
HETATM   22  C21 UNL     1      25.371   6.054  49.864  1.00  0.00     0.069 A 
HETATM   23  N4  UNL     1      25.127   5.101  50.891  1.00  0.00    -0.338 N 
HETATM   24  H26 UNL     1      25.493   5.691  51.666  1.00  0.00     0.167 HD
ENDROOT
BRANCH   1  25
HETATM   25  C4  UNL     1      22.220   1.078  51.414  1.00  0.00     0.056 C 
HETATM   26  C3  UNL     1      21.691   0.817  52.576  1.00  0.00     0.137 C 
BRANCH  26  27
HETATM   27  O1  UNL     1      20.458   0.204  52.749  1.00  0.00    -0.363 OA
BRANCH  27  28
HETATM   28  C2  UNL     1      20.234  -0.793  53.728  1.00  0.00     0.170 C 
HETATM   29  C1  UNL     1      21.387  -0.788  54.719  1.00  0.00     0.034 C 
ENDBRANCH  27  28
ENDBRANCH  26  27
ENDBRANCH   1  25
BRANCH  12  30
HETATM   30  C13 UNL     1      20.735   9.809  49.100  1.00  0.00     0.114 C 
HETATM   31  C14 UNL     1      19.462   9.984  49.887  1.00  0.00     0.026 C 
ENDBRANCH  12  30
TORSDOF 4
ENDMDL
