MODEL 1
REMARK VINA RESULT:      -7.7      0.000      0.000
REMARK  5 active torsions:
REMARK  status: ('A' for Active; 'I' for Inactive)
REMARK    1  A    between atoms: C2_2  and  C5_6 
REMARK    2  A    between atoms: C3_3  and  C4_4 
REMARK       I    between atoms: N3_16  and  C12_17 
REMARK    3  A    between atoms: C12_17  and  C13_19 
REMARK    4  A    between atoms: C14_20  and  C15_21 
REMARK    5  A    between atoms: C15_21  and  N4_22 
ROOT
HETATM    1  C5  UNL     1      20.207   2.359  52.380  1.00  0.00     0.077 A 
HETATM    2  N1  UNL     1      18.971   2.676  52.050  1.00  0.00    -0.241 NA
HETATM    3  C6  UNL     1      18.627   3.728  51.306  1.00  0.00     0.235 A 
HETATM    4  N2  UNL     1      19.642   4.461  50.903  1.00  0.00    -0.234 NA
HETATM    5  C7  UNL     1      20.909   4.196  51.196  1.00  0.00     0.114 A 
HETATM    6  S1  UNL     1      22.538   4.994  50.791  1.00  0.00    -0.051 SA
HETATM    7  C8  UNL     1      23.569   3.711  51.735  1.00  0.00     0.082 A 
HETATM    8  C9  UNL     1      22.601   2.810  52.263  1.00  0.00     0.009 A 
HETATM    9  C10 UNL     1      21.307   3.058  51.999  1.00  0.00     0.040 A 
HETATM   10  C11 UNL     1      23.385   1.743  52.905  1.00  0.00     0.170 C 
HETATM   11  N3  UNL     1      24.726   1.578  52.360  1.00  0.00    -0.328 N 
HETATM   12  C12 UNL     1      25.300   0.277  52.453  1.00  0.00     0.244 C 
HETATM   13  O1  UNL     1      24.402  -0.385  53.032  1.00  0.00    -0.268 OA
HETATM   14  C18 UNL     1      25.609   2.528  51.717  1.00  0.00     0.250 C 
HETATM   15  N5  UNL     1      24.958   3.805  51.807  1.00  0.00    -0.367 N 
HETATM   16  H22 UNL     1      25.381   4.752  51.914  1.00  0.00     0.161 HD
ENDROOT
BRANCH  12  17
HETATM   17  C13 UNL     1      26.613  -0.097  51.966  1.00  0.00     0.072 C 
HETATM   18  C14 UNL     1      27.658  -0.288  52.735  1.00  0.00     0.008 C 
BRANCH  18  19
HETATM   19  C15 UNL     1      27.814  -0.193  54.195  1.00  0.00     0.299 C 
BRANCH  19  20
HETATM   20  N4  UNL     1      29.174   0.193  54.531  1.00  0.00     0.083 N 
HETATM   21  C16 UNL     1      29.351   1.609  54.441  1.00  0.00     0.309 C 
HETATM   22  C17 UNL     1      30.075  -0.490  53.653  1.00  0.00     0.309 C 
ENDBRANCH  19  20
ENDBRANCH  18  19
ENDBRANCH  12  17
BRANCH   1  23
HETATM   23  C2  UNL     1      20.212   1.177  53.279  1.00  0.00    -0.035 C 
HETATM   24  C1  UNL     1      20.575   0.349  54.433  1.00  0.00     0.050 C 
HETATM   25  C3  UNL     1      19.300   0.321  52.756  1.00  0.00    -0.003 C 
BRANCH  25  26
HETATM   26  C4  UNL     1      18.792  -0.989  53.132  1.00  0.00     0.142 C 
HETATM   27 CL1  UNL     1      17.017  -1.116  52.860  1.00  0.00    -0.126 Cl
ENDBRANCH  25  26
ENDBRANCH   1  23
TORSDOF 5
ENDMDL
MODEL 2
REMARK VINA RESULT:      -7.6      3.159      5.949
REMARK  5 active torsions:
REMARK  status: ('A' for Active; 'I' for Inactive)
REMARK    1  A    between atoms: C2_2  and  C5_6 
REMARK    2  A    between atoms: C3_3  and  C4_4 
REMARK       I    between atoms: N3_16  and  C12_17 
REMARK    3  A    between atoms: C12_17  and  C13_19 
REMARK    4  A    between atoms: C14_20  and  C15_21 
REMARK    5  A    between atoms: C15_21  and  N4_22 
ROOT
HETATM    1  C5  UNL     1      23.007  -0.382  53.673  1.00  0.00     0.077 A 
HETATM    2  N1  UNL     1      22.597  -1.083  54.710  1.00  0.00    -0.241 NA
HETATM    3  C6  UNL     1      23.387  -1.546  55.680  1.00  0.00     0.235 A 
HETATM    4  N2  UNL     1      24.659  -1.245  55.529  1.00  0.00    -0.234 NA
HETATM    5  C7  UNL     1      25.138  -0.541  54.512  1.00  0.00     0.114 A 
HETATM    6  S1  UNL     1      26.827   0.054  54.016  1.00  0.00    -0.051 SA
HETATM    7  C8  UNL     1      26.220   0.932  52.448  1.00  0.00     0.082 A 
HETATM    8  C9  UNL     1      24.815   0.698  52.443  1.00  0.00     0.009 A 
HETATM    9  C10 UNL     1      24.298  -0.026  53.450  1.00  0.00     0.040 A 
HETATM   10  C11 UNL     1      24.306   1.465  51.295  1.00  0.00     0.170 C 
HETATM   11  N3  UNL     1      25.141   2.597  50.916  1.00  0.00    -0.328 N 
HETATM   12  C12 UNL     1      24.487   3.695  50.287  1.00  0.00     0.244 C 
HETATM   13  O1  UNL     1      23.289   3.319  50.241  1.00  0.00    -0.268 OA
HETATM   14  C18 UNL     1      26.565   2.815  51.070  1.00  0.00     0.250 C 
HETATM   15  N5  UNL     1      27.103   1.592  51.595  1.00  0.00    -0.367 N 
HETATM   16  H22 UNL     1      28.035   1.156  51.422  1.00  0.00     0.161 HD
ENDROOT
BRANCH  12  17
HETATM   17  C13 UNL     1      25.134   4.914  49.843  1.00  0.00     0.072 C 
HETATM   18  C14 UNL     1      24.885   6.103  50.336  1.00  0.00     0.008 C 
BRANCH  18  19
HETATM   19  C15 UNL     1      23.960   6.536  51.395  1.00  0.00     0.299 C 
BRANCH  19  20
HETATM   20  N4  UNL     1      22.975   7.459  50.856  1.00  0.00     0.083 N 
HETATM   21  C16 UNL     1      21.872   6.761  50.272  1.00  0.00     0.309 C 
HETATM   22  C17 UNL     1      23.615   8.300  49.890  1.00  0.00     0.309 C 
ENDBRANCH  19  20
ENDBRANCH  18  19
ENDBRANCH  12  17
BRANCH   1  23
HETATM   23  C2  UNL     1      21.872  -0.104  52.758  1.00  0.00    -0.035 C 
HETATM   24  C1  UNL     1      21.187   0.287  51.522  1.00  0.00     0.050 C 
HETATM   25  C3  UNL     1      20.757  -0.442  53.451  1.00  0.00    -0.003 C 
BRANCH  25  26
HETATM   26  C4  UNL     1      19.332  -0.445  53.160  1.00  0.00     0.142 C 
HETATM   27 CL1  UNL     1      18.564  -2.007  53.619  1.00  0.00    -0.126 Cl
ENDBRANCH  25  26
ENDBRANCH   1  23
TORSDOF 5
ENDMDL
MODEL 3
REMARK VINA RESULT:      -7.6      3.837      6.199
REMARK  5 active torsions:
REMARK  status: ('A' for Active; 'I' for Inactive)
REMARK    1  A    between atoms: C2_2  and  C5_6 
REMARK    2  A    between atoms: C3_3  and  C4_4 
REMARK       I    between atoms: N3_16  and  C12_17 
REMARK    3  A    between atoms: C12_17  and  C13_19 
REMARK    4  A    between atoms: C14_20  and  C15_21 
REMARK    5  A    between atoms: C15_21  and  N4_22 
ROOT
HETATM    1  C5  UNL     1      23.476   0.390  53.389  1.00  0.00     0.077 A 
HETATM    2  N1  UNL     1      23.146  -0.787  53.881  1.00  0.00    -0.241 NA
HETATM    3  C6  UNL     1      21.899  -1.250  53.981  1.00  0.00     0.235 A 
HETATM    4  N2  UNL     1      20.979  -0.422  53.537  1.00  0.00    -0.234 NA
HETATM    5  C7  UNL     1      21.242   0.775  53.027  1.00  0.00     0.114 A 
HETATM    6  S1  UNL     1      20.211   2.149  52.319  1.00  0.00    -0.051 SA
HETATM    7  C8  UNL     1      21.696   3.264  51.933  1.00  0.00     0.082 A 
HETATM    8  C9  UNL     1      22.821   2.506  52.369  1.00  0.00     0.009 A 
HETATM    9  C10 UNL     1      22.589   1.296  52.906  1.00  0.00     0.040 A 
HETATM   10  C11 UNL     1      23.992   3.304  51.976  1.00  0.00     0.170 C 
HETATM   11  N3  UNL     1      23.755   4.200  50.853  1.00  0.00    -0.328 N 
HETATM   12  C12 UNL     1      24.881   4.525  50.043  1.00  0.00     0.244 C 
HETATM   13  O1  UNL     1      25.816   3.892  50.594  1.00  0.00    -0.268 OA
HETATM   14  C18 UNL     1      22.539   4.841  50.395  1.00  0.00     0.250 C 
HETATM   15  N5  UNL     1      21.530   4.526  51.367  1.00  0.00    -0.367 N 
HETATM   16  H22 UNL     1      20.723   5.105  51.687  1.00  0.00     0.161 HD
ENDROOT
BRANCH  12  17
HETATM   17  C13 UNL     1      24.854   5.390  48.879  1.00  0.00     0.072 C 
HETATM   18  C14 UNL     1      25.385   6.588  48.837  1.00  0.00     0.008 C 
BRANCH  18  19
HETATM   19  C15 UNL     1      26.107   7.361  49.860  1.00  0.00     0.299 C 
BRANCH  19  20
HETATM   20  N4  UNL     1      26.966   8.349  49.230  1.00  0.00     0.083 N 
HETATM   21  C16 UNL     1      28.091   7.734  48.598  1.00  0.00     0.309 C 
HETATM   22  C17 UNL     1      27.391   9.288  50.224  1.00  0.00     0.309 C 
ENDBRANCH  19  20
ENDBRANCH  18  19
ENDBRANCH  12  17
BRANCH   1  23
HETATM   23  C2  UNL     1      24.941   0.604  53.506  1.00  0.00    -0.035 C 
HETATM   24  C1  UNL     1      26.194   1.175  54.007  1.00  0.00     0.050 C 
HETATM   25  C3  UNL     1      25.506  -0.293  52.661  1.00  0.00    -0.003 C 
BRANCH  25  26
HETATM   26  C4  UNL     1      26.872  -0.641  52.302  1.00  0.00     0.142 C 
HETATM   27 CL1  UNL     1      27.199  -2.393  52.551  1.00  0.00    -0.126 Cl
ENDBRANCH  25  26
ENDBRANCH   1  23
TORSDOF 5
ENDMDL
MODEL 4
REMARK VINA RESULT:      -7.5      3.721      8.477
REMARK  5 active torsions:
REMARK  status: ('A' for Active; 'I' for Inactive)
REMARK    1  A    between atoms: C2_2  and  C5_6 
REMARK    2  A    between atoms: C3_3  and  C4_4 
REMARK       I    between atoms: N3_16  and  C12_17 
REMARK    3  A    between atoms: C12_17  and  C13_19 
REMARK    4  A    between atoms: C14_20  and  C15_21 
REMARK    5  A    between atoms: C15_21  and  N4_22 
ROOT
HETATM    1  C5  UNL     1      24.582   0.895  52.278  1.00  0.00     0.077 A 
HETATM    2  N1  UNL     1      25.890   0.735  52.291  1.00  0.00    -0.241 NA
HETATM    3  C6  UNL     1      26.557  -0.025  53.161  1.00  0.00     0.235 A 
HETATM    4  N2  UNL     1      25.793  -0.633  54.042  1.00  0.00    -0.234 NA
HETATM    5  C7  UNL     1      24.472  -0.518  54.083  1.00  0.00     0.114 A 
HETATM    6  S1  UNL     1      23.131  -1.226  55.157  1.00  0.00    -0.051 SA
HETATM    7  C8  UNL     1      21.724  -0.356  54.230  1.00  0.00     0.082 A 
HETATM    8  C9  UNL     1      22.387   0.381  53.207  1.00  0.00     0.009 A 
HETATM    9  C10 UNL     1      23.727   0.300  53.147  1.00  0.00     0.040 A 
HETATM   10  C11 UNL     1      21.306   0.974  52.405  1.00  0.00     0.170 C 
HETATM   11  N3  UNL     1      20.047   0.246  52.468  1.00  0.00    -0.328 N 
HETATM   12  C12 UNL     1      19.189   0.349  51.335  1.00  0.00     0.244 C 
HETATM   13  O1  UNL     1      19.831   1.106  50.564  1.00  0.00    -0.268 OA
HETATM   14  C18 UNL     1      19.491  -0.595  53.508  1.00  0.00     0.250 C 
HETATM   15  N5  UNL     1      20.394  -0.505  54.621  1.00  0.00    -0.367 N 
HETATM   16  H22 UNL     1      20.184  -0.535  55.642  1.00  0.00     0.161 HD
ENDROOT
BRANCH  12  17
HETATM   17  C13 UNL     1      17.902  -0.303  51.195  1.00  0.00     0.072 C 
HETATM   18  C14 UNL     1      16.749   0.316  51.276  1.00  0.00     0.008 C 
BRANCH  18  19
HETATM   19  C15 UNL     1      16.427   1.732  51.511  1.00  0.00     0.299 C 
BRANCH  19  20
HETATM   20  N4  UNL     1      15.083   1.860  52.050  1.00  0.00     0.083 N 
HETATM   21  C16 UNL     1      14.929   3.080  52.779  1.00  0.00     0.309 C 
HETATM   22  C17 UNL     1      14.815   0.729  52.886  1.00  0.00     0.309 C 
ENDBRANCH  19  20
ENDBRANCH  18  19
ENDBRANCH  12  17
BRANCH   1  23
HETATM   23  C2  UNL     1      24.194   1.870  51.227  1.00  0.00    -0.035 C 
HETATM   24  C1  UNL     1      23.367   2.489  50.186  1.00  0.00     0.050 C 
HETATM   25  C3  UNL     1      25.179   2.802  51.216  1.00  0.00    -0.003 C 
BRANCH  25  26
HETATM   26  C4  UNL     1      25.424   4.023  50.466  1.00  0.00     0.142 C 
HETATM   27 CL1  UNL     1      26.843   3.857  49.371  1.00  0.00    -0.126 Cl
ENDBRANCH  25  26
ENDBRANCH   1  23
TORSDOF 5
ENDMDL
MODEL 5
REMARK VINA RESULT:      -7.3      4.187      6.086
REMARK  5 active torsions:
REMARK  status: ('A' for Active; 'I' for Inactive)
REMARK    1  A    between atoms: C2_2  and  C5_6 
REMARK    2  A    between atoms: C3_3  and  C4_4 
REMARK       I    between atoms: N3_16  and  C12_17 
REMARK    3  A    between atoms: C12_17  and  C13_19 
REMARK    4  A    between atoms: C14_20  and  C15_21 
REMARK    5  A    between atoms: C15_21  and  N4_22 
ROOT
HETATM    1  C5  UNL     1      23.884   0.477  52.733  1.00  0.00     0.077 A 
HETATM    2  N1  UNL     1      23.249  -0.616  53.105  1.00  0.00    -0.241 NA
HETATM    3  C6  UNL     1      21.937  -0.697  53.330  1.00  0.00     0.235 A 
HETATM    4  N2  UNL     1      21.288   0.432  53.148  1.00  0.00    -0.234 NA
HETATM    5  C7  UNL     1      21.864   1.567  52.773  1.00  0.00     0.114 A 
HETATM    6  S1  UNL     1      21.257   3.288  52.425  1.00  0.00    -0.051 SA
HETATM    7  C8  UNL     1      22.972   3.961  51.973  1.00  0.00     0.082 A 
HETATM    8  C9  UNL     1      23.835   2.838  52.125  1.00  0.00     0.009 A 
HETATM    9  C10 UNL     1      23.287   1.677  52.520  1.00  0.00     0.040 A 
HETATM   10  C11 UNL     1      25.153   3.308  51.671  1.00  0.00     0.170 C 
HETATM   11  N3  UNL     1      25.100   4.419  50.730  1.00  0.00    -0.328 N 
HETATM   12  C12 UNL     1      26.181   4.533  49.810  1.00  0.00     0.244 C 
HETATM   13  O1  UNL     1      26.918   3.563  50.120  1.00  0.00    -0.268 OA
HETATM   14  C18 UNL     1      24.111   5.462  50.555  1.00  0.00     0.250 C 
HETATM   15  N5  UNL     1      23.160   5.295  51.617  1.00  0.00    -0.367 N 
HETATM   16  H22 UNL     1      22.616   6.021  52.132  1.00  0.00     0.161 HD
ENDROOT
BRANCH  12  17
HETATM   17  C13 UNL     1      26.312   5.558  48.793  1.00  0.00     0.072 C 
HETATM   18  C14 UNL     1      27.447   5.899  48.231  1.00  0.00     0.008 C 
BRANCH  18  19
HETATM   19  C15 UNL     1      28.815   5.398  48.435  1.00  0.00     0.299 C 
BRANCH  19  20
HETATM   20  N4  UNL     1      29.765   6.218  47.703  1.00  0.00     0.083 N 
HETATM   21  C16 UNL     1      30.839   6.647  48.544  1.00  0.00     0.309 C 
HETATM   22  C17 UNL     1      29.071   7.343  47.151  1.00  0.00     0.309 C 
ENDBRANCH  19  20
ENDBRANCH  18  19
ENDBRANCH  12  17
BRANCH   1  23
HETATM   23  C2  UNL     1      25.345   0.221  52.654  1.00  0.00    -0.035 C 
HETATM   24  C1  UNL     1      26.626  -0.160  52.053  1.00  0.00     0.050 C 
HETATM   25  C3  UNL     1      25.842   0.587  53.861  1.00  0.00    -0.003 C 
BRANCH  25  26
HETATM   26  C4  UNL     1      27.170   0.621  54.452  1.00  0.00     0.142 C 
HETATM   27 CL1  UNL     1      28.128   2.023  53.853  1.00  0.00    -0.126 Cl
ENDBRANCH  25  26
ENDBRANCH   1  23
TORSDOF 5
ENDMDL
MODEL 6
REMARK VINA RESULT:      -7.1      3.336      7.850
REMARK  5 active torsions:
REMARK  status: ('A' for Active; 'I' for Inactive)
REMARK    1  A    between atoms: C2_2  and  C5_6 
REMARK    2  A    between atoms: C3_3  and  C4_4 
REMARK       I    between atoms: N3_16  and  C12_17 
REMARK    3  A    between atoms: C12_17  and  C13_19 
REMARK    4  A    between atoms: C14_20  and  C15_21 
REMARK    5  A    between atoms: C15_21  and  N4_22 
ROOT
HETATM    1  C5  UNL     1      24.456   2.042  51.675  1.00  0.00     0.077 A 
HETATM    2  N1  UNL     1      25.605   2.344  51.105  1.00  0.00    -0.241 NA
HETATM    3  C6  UNL     1      26.769   1.750  51.373  1.00  0.00     0.235 A 
HETATM    4  N2  UNL     1      26.695   0.801  52.280  1.00  0.00    -0.234 NA
HETATM    5  C7  UNL     1      25.571   0.445  52.890  1.00  0.00     0.114 A 
HETATM    6  S1  UNL     1      25.127  -0.824  54.173  1.00  0.00    -0.051 SA
HETATM    7  C8  UNL     1      23.283  -0.377  54.190  1.00  0.00     0.082 A 
HETATM    8  C9  UNL     1      23.174   0.677  53.237  1.00  0.00     0.009 A 
HETATM    9  C10 UNL     1      24.296   1.074  52.613  1.00  0.00     0.040 A 
HETATM   10  C11 UNL     1      21.734   0.963  53.152  1.00  0.00     0.170 C 
HETATM   11  N3  UNL     1      20.879  -0.158  53.518  1.00  0.00    -0.328 N 
HETATM   12  C12 UNL     1      19.589  -0.204  52.915  1.00  0.00     0.244 C 
HETATM   13  O1  UNL     1      19.577   0.827  52.196  1.00  0.00    -0.268 OA
HETATM   14  C18 UNL     1      21.113  -1.273  54.412  1.00  0.00     0.250 C 
HETATM   15  N5  UNL     1      22.384  -1.028  55.032  1.00  0.00    -0.367 N 
HETATM   16  H22 UNL     1      22.702  -1.270  55.996  1.00  0.00     0.161 HD
ENDROOT
BRANCH  12  17
HETATM   17  C13 UNL     1      18.595  -1.236  53.139  1.00  0.00     0.072 C 
HETATM   18  C14 UNL     1      17.414  -1.259  52.570  1.00  0.00     0.008 C 
BRANCH  18  19
HETATM   19  C15 UNL     1      16.783  -0.334  51.615  1.00  0.00     0.299 C 
BRANCH  19  20
HETATM   20  N4  UNL     1      16.038   0.691  52.326  1.00  0.00     0.083 N 
HETATM   21  C16 UNL     1      14.741   0.222  52.705  1.00  0.00     0.309 C 
HETATM   22  C17 UNL     1      15.937   1.848  51.489  1.00  0.00     0.309 C 
ENDBRANCH  19  20
ENDBRANCH  18  19
ENDBRANCH  12  17
BRANCH   1  23
HETATM   23  C2  UNL     1      23.388   2.956  51.197  1.00  0.00    -0.035 C 
HETATM   24  C1  UNL     1      22.302   3.936  51.279  1.00  0.00     0.050 C 
HETATM   25  C3  UNL     1      23.445   2.901  49.843  1.00  0.00    -0.003 C 
BRANCH  25  26
HETATM   26  C4  UNL     1      22.718   3.547  48.762  1.00  0.00     0.142 C 
HETATM   27 CL1  UNL     1      22.302   2.383  47.454  1.00  0.00    -0.126 Cl
ENDBRANCH  25  26
ENDBRANCH   1  23
TORSDOF 5
ENDMDL
MODEL 7
REMARK VINA RESULT:      -7.0      3.641      7.975
REMARK  5 active torsions:
REMARK  status: ('A' for Active; 'I' for Inactive)
REMARK    1  A    between atoms: C2_2  and  C5_6 
REMARK    2  A    between atoms: C3_3  and  C4_4 
REMARK       I    between atoms: N3_16  and  C12_17 
REMARK    3  A    between atoms: C12_17  and  C13_19 
REMARK    4  A    between atoms: C14_20  and  C15_21 
REMARK    5  A    between atoms: C15_21  and  N4_22 
ROOT
HETATM    1  C5  UNL     1      24.360   2.153  51.634  1.00  0.00     0.077 A 
HETATM    2  N1  UNL     1      25.473   2.488  51.014  1.00  0.00    -0.241 NA
HETATM    3  C6  UNL     1      26.653   1.891  51.188  1.00  0.00     0.235 A 
HETATM    4  N2  UNL     1      26.634   0.901  52.054  1.00  0.00    -0.234 NA
HETATM    5  C7  UNL     1      25.548   0.510  52.710  1.00  0.00     0.114 A 
HETATM    6  S1  UNL     1      25.183  -0.818  53.957  1.00  0.00    -0.051 SA
HETATM    7  C8  UNL     1      23.341  -0.384  54.099  1.00  0.00     0.082 A 
HETATM    8  C9  UNL     1      23.174   0.711  53.202  1.00  0.00     0.009 A 
HETATM    9  C10 UNL     1      24.257   1.143  52.534  1.00  0.00     0.040 A 
HETATM   10  C11 UNL     1      21.730   0.991  53.212  1.00  0.00     0.170 C 
HETATM   11  N3  UNL     1      20.902  -0.151  53.574  1.00  0.00    -0.328 N 
HETATM   12  C12 UNL     1      19.580  -0.178  53.045  1.00  0.00     0.244 C 
HETATM   13  O1  UNL     1      19.523   0.884  52.375  1.00  0.00    -0.268 OA
HETATM   14  C18 UNL     1      21.191  -1.303  54.402  1.00  0.00     0.250 C 
HETATM   15  N5  UNL     1      22.495  -1.079  54.960  1.00  0.00    -0.367 N 
HETATM   16  H22 UNL     1      22.868  -1.361  55.893  1.00  0.00     0.161 HD
ENDROOT
BRANCH  12  17
HETATM   17  C13 UNL     1      18.605  -1.226  53.278  1.00  0.00     0.072 C 
HETATM   18  C14 UNL     1      17.473  -1.339  52.625  1.00  0.00     0.008 C 
BRANCH  18  19
HETATM   19  C15 UNL     1      16.891  -0.519  51.551  1.00  0.00     0.299 C 
BRANCH  19  20
HETATM   20  N4  UNL     1      16.088   0.553  52.117  1.00  0.00     0.083 N 
HETATM   21  C16 UNL     1      14.984   0.037  52.865  1.00  0.00     0.309 C 
HETATM   22  C17 UNL     1      15.632   1.396  51.053  1.00  0.00     0.309 C 
ENDBRANCH  19  20
ENDBRANCH  18  19
ENDBRANCH  12  17
BRANCH   1  23
HETATM   23  C2  UNL     1      23.263   3.081  51.258  1.00  0.00    -0.035 C 
HETATM   24  C1  UNL     1      21.957   3.502  50.741  1.00  0.00     0.050 C 
HETATM   25  C3  UNL     1      23.677   4.310  51.653  1.00  0.00    -0.003 C 
BRANCH  25  26
HETATM   26  C4  UNL     1      23.102   5.644  51.615  1.00  0.00     0.142 C 
HETATM   27 CL1  UNL     1      24.340   6.890  51.222  1.00  0.00    -0.126 Cl
ENDBRANCH  25  26
ENDBRANCH   1  23
TORSDOF 5
ENDMDL
MODEL 8
REMARK VINA RESULT:      -6.9      2.873      4.172
REMARK  5 active torsions:
REMARK  status: ('A' for Active; 'I' for Inactive)
REMARK    1  A    between atoms: C2_2  and  C5_6 
REMARK    2  A    between atoms: C3_3  and  C4_4 
REMARK       I    between atoms: N3_16  and  C12_17 
REMARK    3  A    between atoms: C12_17  and  C13_19 
REMARK    4  A    between atoms: C14_20  and  C15_21 
REMARK    5  A    between atoms: C15_21  and  N4_22 
ROOT
HETATM    1  C5  UNL     1      20.893   3.293  51.012  1.00  0.00     0.077 A 
HETATM    2  N1  UNL     1      19.835   4.028  50.733  1.00  0.00    -0.241 NA
HETATM    3  C6  UNL     1      18.576   3.694  51.022  1.00  0.00     0.235 A 
HETATM    4  N2  UNL     1      18.452   2.535  51.631  1.00  0.00    -0.234 NA
HETATM    5  C7  UNL     1      19.473   1.748  51.944  1.00  0.00     0.114 A 
HETATM    6  S1  UNL     1      19.644   0.102  52.789  1.00  0.00    -0.051 SA
HETATM    7  C8  UNL     1      21.535   0.061  52.652  1.00  0.00     0.082 A 
HETATM    8  C9  UNL     1      21.860   1.279  51.988  1.00  0.00     0.009 A 
HETATM    9  C10 UNL     1      20.848   2.092  51.642  1.00  0.00     0.040 A 
HETATM   10  C11 UNL     1      23.331   1.321  51.971  1.00  0.00     0.170 C 
HETATM   11  N3  UNL     1      23.963   0.552  53.035  1.00  0.00    -0.328 N 
HETATM   12  C12 UNL     1      25.245   0.994  53.470  1.00  0.00     0.244 C 
HETATM   13  O1  UNL     1      25.462   1.992  52.738  1.00  0.00    -0.268 OA
HETATM   14  C18 UNL     1      23.506  -0.619  53.755  1.00  0.00     0.250 C 
HETATM   15  N5  UNL     1      22.276  -1.018  53.131  1.00  0.00    -0.367 N 
HETATM   16  H22 UNL     1      21.887  -1.977  52.999  1.00  0.00     0.161 HD
ENDROOT
BRANCH  12  17
HETATM   17  C13 UNL     1      26.034   0.375  54.518  1.00  0.00     0.072 C 
HETATM   18  C14 UNL     1      27.188  -0.216  54.321  1.00  0.00     0.008 C 
BRANCH  18  19
HETATM   19  C15 UNL     1      27.973  -0.418  53.093  1.00  0.00     0.299 C 
BRANCH  19  20
HETATM   20  N4  UNL     1      29.355  -0.027  53.310  1.00  0.00     0.083 N 
HETATM   21  C16 UNL     1      30.130  -1.116  53.818  1.00  0.00     0.309 C 
HETATM   22  C17 UNL     1      29.382   1.083  54.213  1.00  0.00     0.309 C 
ENDBRANCH  19  20
ENDBRANCH  18  19
ENDBRANCH  12  17
BRANCH   1  23
HETATM   23  C2  UNL     1      22.120   3.934  50.476  1.00  0.00    -0.035 C 
HETATM   24  C1  UNL     1      23.266   4.142  49.585  1.00  0.00     0.050 C 
HETATM   25  C3  UNL     1      22.318   5.034  51.243  1.00  0.00    -0.003 C 
BRANCH  25  26
HETATM   26  C4  UNL     1      23.301   6.106  51.260  1.00  0.00     0.142 C 
HETATM   27 CL1  UNL     1      22.626   7.635  50.592  1.00  0.00    -0.126 Cl
ENDBRANCH  25  26
ENDBRANCH   1  23
TORSDOF 5
ENDMDL
MODEL 9
REMARK VINA RESULT:      -6.9      3.189      6.801
REMARK  5 active torsions:
REMARK  status: ('A' for Active; 'I' for Inactive)
REMARK    1  A    between atoms: C2_2  and  C5_6 
REMARK    2  A    between atoms: C3_3  and  C4_4 
REMARK       I    between atoms: N3_16  and  C12_17 
REMARK    3  A    between atoms: C12_17  and  C13_19 
REMARK    4  A    between atoms: C14_20  and  C15_21 
REMARK    5  A    between atoms: C15_21  and  N4_22 
ROOT
HETATM    1  C5  UNL     1      23.965   0.298  53.133  1.00  0.00     0.077 A 
HETATM    2  N1  UNL     1      24.052  -0.552  54.136  1.00  0.00    -0.241 NA
HETATM    3  C6  UNL     1      25.157  -0.784  54.847  1.00  0.00     0.235 A 
HETATM    4  N2  UNL     1      26.200  -0.078  54.468  1.00  0.00    -0.234 NA
HETATM    5  C7  UNL     1      26.181   0.796  53.469  1.00  0.00     0.114 A 
HETATM    6  S1  UNL     1      27.436   1.932  52.704  1.00  0.00    -0.051 SA
HETATM    7  C8  UNL     1      26.229   2.646  51.427  1.00  0.00     0.082 A 
HETATM    8  C9  UNL     1      25.004   1.969  51.692  1.00  0.00     0.009 A 
HETATM    9  C10 UNL     1      24.992   1.065  52.686  1.00  0.00     0.040 A 
HETATM   10  C11 UNL     1      24.023   2.589  50.787  1.00  0.00     0.170 C 
HETATM   11  N3  UNL     1      24.357   3.948  50.385  1.00  0.00    -0.328 N 
HETATM   12  C12 UNL     1      23.268   4.805  50.056  1.00  0.00     0.244 C 
HETATM   13  O1  UNL     1      22.267   4.064  50.220  1.00  0.00    -0.268 OA
HETATM   14  C18 UNL     1      25.640   4.609  50.258  1.00  0.00     0.250 C 
HETATM   15  N5  UNL     1      26.635   3.601  50.496  1.00  0.00    -0.367 N 
HETATM   16  H22 UNL     1      27.583   3.501  50.074  1.00  0.00     0.161 HD
ENDROOT
BRANCH  12  17
HETATM   17  C13 UNL     1      23.386   6.191  49.643  1.00  0.00     0.072 C 
HETATM   18  C14 UNL     1      23.097   6.629  48.442  1.00  0.00     0.008 C 
BRANCH  18  19
HETATM   19  C15 UNL     1      22.608   5.923  47.247  1.00  0.00     0.299 C 
BRANCH  19  20
HETATM   20  N4  UNL     1      21.255   6.348  46.931  1.00  0.00     0.083 N 
HETATM   21  C16 UNL     1      20.285   5.550  47.616  1.00  0.00     0.309 C 
HETATM   22  C17 UNL     1      21.068   6.271  45.514  1.00  0.00     0.309 C 
ENDBRANCH  19  20
ENDBRANCH  18  19
ENDBRANCH  12  17
BRANCH   1  23
HETATM   23  C2  UNL     1      22.612   0.239  52.524  1.00  0.00    -0.035 C 
HETATM   24  C1  UNL     1      21.601   0.172  51.465  1.00  0.00     0.050 C 
HETATM   25  C3  UNL     1      21.749   0.171  53.567  1.00  0.00    -0.003 C 
BRANCH  25  26
HETATM   26  C4  UNL     1      20.304   0.070  53.695  1.00  0.00     0.142 C 
HETATM   27 CL1  UNL     1      19.778  -1.630  53.966  1.00  0.00    -0.126 Cl
ENDBRANCH  25  26
ENDBRANCH   1  23
TORSDOF 5
ENDMDL
