MODEL 1
REMARK VINA RESULT:      -8.6      0.000      0.000
REMARK  2 active torsions:
REMARK  status: ('A' for Active; 'I' for Inactive)
REMARK    1  A    between atoms: C3_4  and  N2_5 
REMARK    2  A    between atoms: N2_5  and  C4_6 
ROOT
HETATM    1  N1  UNL     1      22.230  -1.621  55.350  1.00  0.00    -0.192 NA
HETATM    2  C1  UNL     1      22.088  -0.867  54.431  1.00  0.00     0.099 C 
HETATM    3  C2  UNL     1      21.896   0.045  53.287  1.00  0.00     0.073 C 
HETATM    4  C3  UNL     1      23.053   0.622  52.893  1.00  0.00     0.144 C 
HETATM    5  N3  UNL     1      23.858   1.473  52.088  1.00  0.00    -0.246 NA
HETATM    6  C10 UNL     1      23.760   2.728  51.994  1.00  0.00     0.093 C 
HETATM    7  C11 UNL     1      24.484   3.747  51.234  1.00  0.00     0.066 C 
HETATM    8  C12 UNL     1      23.695   4.095  49.963  1.00  0.00     0.119 C 
HETATM    9  N4  UNL     1      22.396   4.544  50.323  1.00  0.00    -0.419 N 
HETATM   10  C13 UNL     1      21.499   4.860  49.263  1.00  0.00     0.140 C 
HETATM   11  C14 UNL     1      20.137   5.102  49.994  1.00  0.00     0.195 C 
HETATM   12  O1  UNL     1      19.931   3.869  50.651  1.00  0.00    -0.347 OA
HETATM   13  C15 UNL     1      18.789   3.242  50.964  1.00  0.00     0.093 C 
HETATM   14  C16 UNL     1      19.414   2.720  52.039  1.00  0.00     0.051 C 
HETATM   15  P1  UNL     1      19.887   1.019  51.558  1.00  0.00    -0.044 P 
HETATM   16  C17 UNL     1      18.456   0.217  50.699  1.00  0.00     0.125 C 
HETATM   17  N5  UNL     1      17.286   0.705  50.965  1.00  0.00    -0.268 NA
HETATM   18  P2  UNL     1      17.150   2.483  51.211  1.00  0.00     0.056 P 
HETATM   19  C18 UNL     1      20.472   0.009  52.950  1.00  0.00     0.098 C 
HETATM   20  H11 UNL     1      21.952   4.082  51.132  1.00  0.00     0.153 HD
HETATM   21  H18 UNL     1      16.267   2.955  50.153  1.00  0.00     0.089 HD
ENDROOT
BRANCH   4  22
HETATM   22  N2  UNL     1      24.218   0.266  53.617  1.00  0.00    -0.340 N 
HETATM   23  H1  UNL     1      23.850   0.265  54.622  1.00  0.00     0.167 HD
BRANCH  22  24
HETATM   24  C4  UNL     1      25.568  -0.040  53.465  1.00  0.00     0.035 A 
HETATM   25  C5  UNL     1      25.967  -1.229  52.899  1.00  0.00     0.029 A 
HETATM   26  C6  UNL     1      27.290  -1.548  52.747  1.00  0.00     0.004 A 
HETATM   27  C7  UNL     1      28.240  -0.637  53.180  1.00  0.00     0.019 A 
HETATM   28  C8  UNL     1      27.880   0.560  53.750  1.00  0.00     0.013 A 
HETATM   29 BR1  UNL     1      29.288   1.719  54.298  1.00  0.00    -0.051 Br
HETATM   30  C9  UNL     1      26.541   0.864  53.896  1.00  0.00     0.048 A 
ENDBRANCH  22  24
ENDBRANCH   4  22
TORSDOF 2
ENDMDL
MODEL 2
REMARK VINA RESULT:      -8.6      3.274      6.373
REMARK  2 active torsions:
REMARK  status: ('A' for Active; 'I' for Inactive)
REMARK    1  A    between atoms: C3_4  and  N2_5 
REMARK    2  A    between atoms: N2_5  and  C4_6 
ROOT
HETATM    1  N1  UNL     1      22.520   3.108  47.813  1.00  0.00    -0.192 NA
HETATM    2  C1  UNL     1      22.888   2.800  48.911  1.00  0.00     0.099 C 
HETATM    3  C2  UNL     1      23.318   2.428  50.273  1.00  0.00     0.073 C 
HETATM    4  C3  UNL     1      24.601   2.775  50.516  1.00  0.00     0.144 C 
HETATM    5  N3  UNL     1      25.781   2.874  51.304  1.00  0.00    -0.246 NA
HETATM    6  C10 UNL     1      26.458   1.911  51.761  1.00  0.00     0.093 C 
HETATM    7  C11 UNL     1      27.673   1.822  52.571  1.00  0.00     0.066 C 
HETATM    8  C12 UNL     1      27.290   1.592  54.041  1.00  0.00     0.119 C 
HETATM    9  N4  UNL     1      26.510   0.409  54.146  1.00  0.00    -0.419 N 
HETATM   10  C13 UNL     1      26.018   0.067  55.437  1.00  0.00     0.140 C 
HETATM   11  C14 UNL     1      25.051  -1.131  55.155  1.00  0.00     0.195 C 
HETATM   12  O1  UNL     1      24.126  -0.559  54.255  1.00  0.00    -0.347 OA
HETATM   13  C15 UNL     1      22.826  -0.831  54.069  1.00  0.00     0.093 C 
HETATM   14  C16 UNL     1      22.979  -0.488  52.773  1.00  0.00     0.051 C 
HETATM   15  P1  UNL     1      22.351   1.225  52.638  1.00  0.00    -0.044 P 
HETATM   16  C17 UNL     1      20.753   1.355  53.563  1.00  0.00     0.125 C 
HETATM   17  N5  UNL     1      20.102   0.248  53.735  1.00  0.00    -0.268 NA
HETATM   18  P2  UNL     1      21.054  -1.252  54.028  1.00  0.00     0.056 P 
HETATM   19  C18 UNL     1      22.169   1.796  50.922  1.00  0.00     0.098 C 
HETATM   20  H11 UNL     1      25.854   0.216  53.374  1.00  0.00     0.153 HD
HETATM   21  H18 UNL     1      20.664  -1.705  55.357  1.00  0.00     0.089 HD
ENDROOT
BRANCH   4  22
HETATM   22  N2  UNL     1      25.296   3.418  49.462  1.00  0.00    -0.340 N 
HETATM   23  H1  UNL     1      25.282   2.659  48.707  1.00  0.00     0.167 HD
BRANCH  22  24
HETATM   24  C4  UNL     1      25.947   4.600  49.121  1.00  0.00     0.035 A 
HETATM   25  C5  UNL     1      25.270   5.797  49.079  1.00  0.00     0.029 A 
HETATM   26  C6  UNL     1      25.894   6.969  48.741  1.00  0.00     0.004 A 
HETATM   27  C7  UNL     1      27.244   6.930  48.436  1.00  0.00     0.019 A 
HETATM   28  C8  UNL     1      27.954   5.754  48.467  1.00  0.00     0.013 A 
HETATM   29 BR1  UNL     1      29.805   5.845  48.028  1.00  0.00    -0.051 Br
HETATM   30  C9  UNL     1      27.308   4.583  48.809  1.00  0.00     0.048 A 
ENDBRANCH  22  24
ENDBRANCH   4  22
TORSDOF 2
ENDMDL
MODEL 3
REMARK VINA RESULT:      -8.3      3.824      6.057
REMARK  2 active torsions:
REMARK  status: ('A' for Active; 'I' for Inactive)
REMARK    1  A    between atoms: C3_4  and  N2_5 
REMARK    2  A    between atoms: N2_5  and  C4_6 
ROOT
HETATM    1  N1  UNL     1      18.606   3.593  51.965  1.00  0.00    -0.192 NA
HETATM    2  C1  UNL     1      19.690   3.614  51.456  1.00  0.00     0.099 C 
HETATM    3  C2  UNL     1      21.014   3.638  50.805  1.00  0.00     0.073 C 
HETATM    4  C3  UNL     1      21.917   2.871  51.454  1.00  0.00     0.144 C 
HETATM    5  N3  UNL     1      23.199   2.296  51.669  1.00  0.00    -0.246 NA
HETATM    6  C10 UNL     1      24.269   2.920  51.914  1.00  0.00     0.093 C 
HETATM    7  C11 UNL     1      25.651   2.506  52.159  1.00  0.00     0.066 C 
HETATM    8  C12 UNL     1      26.462   2.640  50.862  1.00  0.00     0.119 C 
HETATM    9  N4  UNL     1      26.398   3.984  50.403  1.00  0.00    -0.419 N 
HETATM   10  C13 UNL     1      27.052   4.284  49.174  1.00  0.00     0.140 C 
HETATM   11  C14 UNL     1      26.609   5.753  48.872  1.00  0.00     0.195 C 
HETATM   12  O1  UNL     1      25.202   5.635  48.828  1.00  0.00    -0.347 OA
HETATM   13  C15 UNL     1      24.302   6.328  48.117  1.00  0.00     0.093 C 
HETATM   14  C16 UNL     1      23.419   6.137  49.118  1.00  0.00     0.051 C 
HETATM   15  P1  UNL     1      22.356   4.748  48.581  1.00  0.00    -0.044 P 
HETATM   16  C17 UNL     1      21.877   5.006  46.812  1.00  0.00     0.125 C 
HETATM   17  N5  UNL     1      21.919   6.228  46.382  1.00  0.00    -0.268 NA
HETATM   18  P2  UNL     1      23.235   7.293  46.998  1.00  0.00     0.056 P 
HETATM   19  C18 UNL     1      20.894   4.507  49.633  1.00  0.00     0.098 C 
HETATM   20  H11 UNL     1      25.504   4.480  50.542  1.00  0.00     0.153 HD
HETATM   21  H18 UNL     1      24.018   7.658  45.826  1.00  0.00     0.089 HD
ENDROOT
BRANCH   4  22
HETATM   22  N2  UNL     1      21.460   2.193  52.611  1.00  0.00    -0.340 N 
HETATM   23  H1  UNL     1      21.249   3.013  53.266  1.00  0.00     0.167 HD
BRANCH  22  24
HETATM   24  C4  UNL     1      21.229   0.924  53.134  1.00  0.00     0.035 A 
HETATM   25  C5  UNL     1      22.231   0.222  53.764  1.00  0.00     0.029 A 
HETATM   26  C6  UNL     1      22.021  -1.030  54.279  1.00  0.00     0.004 A 
HETATM   27  C7  UNL     1      20.760  -1.589  54.156  1.00  0.00     0.019 A 
HETATM   28  C8  UNL     1      19.735  -0.919  53.533  1.00  0.00     0.013 A 
HETATM   29 BR1  UNL     1      18.052  -1.805  53.435  1.00  0.00    -0.051 Br
HETATM   30  C9  UNL     1      19.965   0.341  53.019  1.00  0.00     0.048 A 
ENDBRANCH  22  24
ENDBRANCH   4  22
TORSDOF 2
ENDMDL
MODEL 4
REMARK VINA RESULT:      -8.3      2.142      4.549
REMARK  2 active torsions:
REMARK  status: ('A' for Active; 'I' for Inactive)
REMARK    1  A    between atoms: C3_4  and  N2_5 
REMARK    2  A    between atoms: N2_5  and  C4_6 
ROOT
HETATM    1  N1  UNL     1      26.884   4.154  49.278  1.00  0.00    -0.192 NA
HETATM    2  C1  UNL     1      25.932   3.770  49.895  1.00  0.00     0.099 C 
HETATM    3  C2  UNL     1      24.751   3.321  50.657  1.00  0.00     0.073 C 
HETATM    4  C3  UNL     1      25.060   2.370  51.565  1.00  0.00     0.144 C 
HETATM    5  N3  UNL     1      24.774   1.435  52.599  1.00  0.00    -0.246 NA
HETATM    6  C10 UNL     1      24.023   0.425  52.507  1.00  0.00     0.093 C 
HETATM    7  C11 UNL     1      23.621  -0.627  53.442  1.00  0.00     0.066 C 
HETATM    8  C12 UNL     1      22.245  -0.284  54.034  1.00  0.00     0.119 C 
HETATM    9  N4  UNL     1      21.302  -0.139  52.981  1.00  0.00    -0.419 N 
HETATM   10  C13 UNL     1      19.976   0.234  53.342  1.00  0.00     0.140 C 
HETATM   11  C14 UNL     1      19.284   0.507  51.965  1.00  0.00     0.195 C 
HETATM   12  O1  UNL     1      20.102   1.521  51.419  1.00  0.00    -0.347 OA
HETATM   13  C15 UNL     1      19.787   2.526  50.590  1.00  0.00     0.093 C 
HETATM   14  C16 UNL     1      21.037   2.453  50.087  1.00  0.00     0.051 C 
HETATM   15  P1  UNL     1      21.977   3.794  50.903  1.00  0.00    -0.044 P 
HETATM   16  C17 UNL     1      20.950   5.333  50.906  1.00  0.00     0.125 C 
HETATM   17  N5  UNL     1      20.028   5.405  49.999  1.00  0.00    -0.268 NA
HETATM   18  P2  UNL     1      19.161   3.890  49.556  1.00  0.00     0.056 P 
HETATM   19  C18 UNL     1      23.609   4.089  50.160  1.00  0.00     0.098 C 
HETATM   20  H11 UNL     1      21.643   0.291  52.107  1.00  0.00     0.153 HD
HETATM   21  H18 UNL     1      17.767   4.124  49.907  1.00  0.00     0.089 HD
ENDROOT
BRANCH   4  22
HETATM   22  N2  UNL     1      26.419   1.976  51.636  1.00  0.00    -0.340 N 
HETATM   23  H1  UNL     1      26.739   2.141  50.627  1.00  0.00     0.167 HD
BRANCH  22  24
HETATM   24  C4  UNL     1      27.385   1.475  52.504  1.00  0.00     0.035 A 
HETATM   25  C5  UNL     1      28.029   2.295  53.400  1.00  0.00     0.029 A 
HETATM   26  C6  UNL     1      28.985   1.819  54.258  1.00  0.00     0.004 A 
HETATM   27  C7  UNL     1      29.300   0.471  54.208  1.00  0.00     0.019 A 
HETATM   28  C8  UNL     1      28.679  -0.380  53.326  1.00  0.00     0.013 A 
HETATM   29 BR1  UNL     1      29.207  -2.209  53.366  1.00  0.00    -0.051 Br
HETATM   30  C9  UNL     1      27.718   0.119  52.468  1.00  0.00     0.048 A 
ENDBRANCH  22  24
ENDBRANCH   4  22
TORSDOF 2
ENDMDL
MODEL 5
REMARK VINA RESULT:      -8.1      2.676      4.968
REMARK  2 active torsions:
REMARK  status: ('A' for Active; 'I' for Inactive)
REMARK    1  A    between atoms: C3_4  and  N2_5 
REMARK    2  A    between atoms: N2_5  and  C4_6 
ROOT
HETATM    1  N1  UNL     1      27.525   4.371  49.037  1.00  0.00    -0.192 NA
HETATM    2  C1  UNL     1      26.431   4.309  49.520  1.00  0.00     0.099 C 
HETATM    3  C2  UNL     1      25.084   4.258  50.121  1.00  0.00     0.073 C 
HETATM    4  C3  UNL     1      24.907   3.158  50.886  1.00  0.00     0.144 C 
HETATM    5  N3  UNL     1      24.173   2.287  51.736  1.00  0.00    -0.246 NA
HETATM    6  C10 UNL     1      23.119   1.660  51.436  1.00  0.00     0.093 C 
HETATM    7  C11 UNL     1      22.246   0.738  52.163  1.00  0.00     0.066 C 
HETATM    8  C12 UNL     1      21.033   1.507  52.708  1.00  0.00     0.119 C 
HETATM    9  N4  UNL     1      20.346   2.129  51.631  1.00  0.00    -0.419 N 
HETATM   10  C13 UNL     1      19.218   2.935  51.957  1.00  0.00     0.140 C 
HETATM   11  C14 UNL     1      18.850   3.617  50.598  1.00  0.00     0.195 C 
HETATM   12  O1  UNL     1      20.044   4.299  50.275  1.00  0.00    -0.347 OA
HETATM   13  C15 UNL     1      20.227   5.440  49.597  1.00  0.00     0.093 C 
HETATM   14  C16 UNL     1      21.411   4.955  49.173  1.00  0.00     0.051 C 
HETATM   15  P1  UNL     1      22.674   5.724  50.252  1.00  0.00    -0.044 P 
HETATM   16  C17 UNL     1      22.296   7.527  50.430  1.00  0.00     0.125 C 
HETATM   17  N5  UNL     1      21.583   8.056  49.486  1.00  0.00    -0.268 NA
HETATM   18  P2  UNL     1      20.280   7.054  48.752  1.00  0.00     0.056 P 
HETATM   19  C18 UNL     1      24.377   5.459  49.676  1.00  0.00     0.098 C 
HETATM   20  H11 UNL     1      20.925   2.499  50.862  1.00  0.00     0.153 HD
HETATM   21  H18 UNL     1      19.039   7.759  49.042  1.00  0.00     0.089 HD
ENDROOT
BRANCH   4  22
HETATM   22  N2  UNL     1      26.005   2.268  50.983  1.00  0.00    -0.340 N 
HETATM   23  H1  UNL     1      26.239   2.108  49.951  1.00  0.00     0.167 HD
BRANCH  22  24
HETATM   24  C4  UNL     1      26.800   1.583  51.898  1.00  0.00     0.035 A 
HETATM   25  C5  UNL     1      27.607   2.259  52.784  1.00  0.00     0.029 A 
HETATM   26  C6  UNL     1      28.398   1.600  53.687  1.00  0.00     0.004 A 
HETATM   27  C7  UNL     1      28.373   0.215  53.696  1.00  0.00     0.019 A 
HETATM   28  C8  UNL     1      27.580  -0.494  52.827  1.00  0.00     0.013 A 
HETATM   29 BR1  UNL     1      27.640  -2.394  52.950  1.00  0.00    -0.051 Br
HETATM   30  C9  UNL     1      26.790   0.187  51.923  1.00  0.00     0.048 A 
ENDBRANCH  22  24
ENDBRANCH   4  22
TORSDOF 2
ENDMDL
MODEL 6
REMARK VINA RESULT:      -7.6      8.541     10.369
REMARK  2 active torsions:
REMARK  status: ('A' for Active; 'I' for Inactive)
REMARK    1  A    between atoms: C3_4  and  N2_5 
REMARK    2  A    between atoms: N2_5  and  C4_6 
ROOT
HETATM    1  N1  UNL     1      27.532   4.519  48.856  1.00  0.00    -0.192 NA
HETATM    2  C1  UNL     1      27.612   5.676  48.558  1.00  0.00     0.099 C 
HETATM    3  C2  UNL     1      27.697   7.097  48.168  1.00  0.00     0.073 C 
HETATM    4  C3  UNL     1      28.925   7.615  48.388  1.00  0.00     0.144 C 
HETATM    5  N3  UNL     1      29.907   8.644  48.389  1.00  0.00    -0.246 NA
HETATM    6  C10 UNL     1      29.862   9.721  49.045  1.00  0.00     0.093 C 
HETATM    7  C11 UNL     1      30.759  10.870  49.170  1.00  0.00     0.066 C 
HETATM    8  C12 UNL     1      30.274  11.999  48.248  1.00  0.00     0.119 C 
HETATM    9  N4  UNL     1      28.939  12.346  48.590  1.00  0.00    -0.419 N 
HETATM   10  C13 UNL     1      28.303  13.345  47.799  1.00  0.00     0.140 C 
HETATM   11  C14 UNL     1      26.821  13.320  48.299  1.00  0.00     0.195 C 
HETATM   12  O1  UNL     1      26.447  11.981  48.050  1.00  0.00    -0.347 OA
HETATM   13  C15 UNL     1      25.248  11.467  47.740  1.00  0.00     0.093 C 
HETATM   14  C16 UNL     1      25.612  10.335  48.377  1.00  0.00     0.051 C 
HETATM   15  P1  UNL     1      26.136   9.175  47.062  1.00  0.00    -0.044 P 
HETATM   16  C17 UNL     1      24.908   9.238  45.679  1.00  0.00     0.125 C 
HETATM   17  N5  UNL     1      23.720   9.651  45.990  1.00  0.00    -0.268 NA
HETATM   18  P2  UNL     1      23.577  10.958  47.220  1.00  0.00     0.056 P 
HETATM   19  C18 UNL     1      26.380   7.474  47.652  1.00  0.00     0.098 C 
HETATM   20  H11 UNL     1      28.319  11.574  48.881  1.00  0.00     0.153 HD
HETATM   21  H18 UNL     1      22.958  12.078  46.525  1.00  0.00     0.089 HD
ENDROOT
BRANCH   4  22
HETATM   22  N2  UNL     1      29.896   6.739  48.934  1.00  0.00    -0.340 N 
HETATM   23  H1  UNL     1      29.471   6.526  49.893  1.00  0.00     0.167 HD
BRANCH  22  24
HETATM   24  C4  UNL     1      31.118   6.131  48.663  1.00  0.00     0.035 A 
HETATM   25  C5  UNL     1      32.293   6.640  49.167  1.00  0.00     0.029 A 
HETATM   26  C6  UNL     1      33.504   6.056  48.906  1.00  0.00     0.004 A 
HETATM   27  C7  UNL     1      33.529   4.922  48.111  1.00  0.00     0.019 A 
HETATM   28  C8  UNL     1      32.378   4.384  47.590  1.00  0.00     0.013 A 
HETATM   29 BR1  UNL     1      32.557   2.822  46.516  1.00  0.00    -0.051 Br
HETATM   30  C9  UNL     1      31.166   4.987  47.863  1.00  0.00     0.048 A 
ENDBRANCH  22  24
ENDBRANCH   4  22
TORSDOF 2
ENDMDL
MODEL 7
REMARK VINA RESULT:      -7.6      4.283      7.590
REMARK  2 active torsions:
REMARK  status: ('A' for Active; 'I' for Inactive)
REMARK    1  A    between atoms: C3_4  and  N2_5 
REMARK    2  A    between atoms: N2_5  and  C4_6 
ROOT
HETATM    1  N1  UNL     1      16.342   1.378  50.515  1.00  0.00    -0.192 NA
HETATM    2  C1  UNL     1      17.513   1.205  50.701  1.00  0.00     0.099 C 
HETATM    3  C2  UNL     1      18.958   0.990  50.905  1.00  0.00     0.073 C 
HETATM    4  C3  UNL     1      19.210   0.131  51.917  1.00  0.00     0.144 C 
HETATM    5  N3  UNL     1      20.043  -0.622  52.789  1.00  0.00    -0.246 NA
HETATM    6  C10 UNL     1      20.875  -0.156  53.617  1.00  0.00     0.093 C 
HETATM    7  C11 UNL     1      21.798  -0.762  54.577  1.00  0.00     0.066 C 
HETATM    8  C12 UNL     1      23.205  -0.825  53.963  1.00  0.00     0.119 C 
HETATM    9  N4  UNL     1      23.620   0.485  53.603  1.00  0.00    -0.419 N 
HETATM   10  C13 UNL     1      24.887   0.614  52.965  1.00  0.00     0.140 C 
HETATM   11  C14 UNL     1      24.926   2.115  52.527  1.00  0.00     0.195 C 
HETATM   12  O1  UNL     1      23.787   2.211  51.698  1.00  0.00    -0.347 OA
HETATM   13  C15 UNL     1      23.561   2.994  50.634  1.00  0.00     0.093 C 
HETATM   14  C16 UNL     1      22.252   2.996  50.960  1.00  0.00     0.051 C 
HETATM   15  P1  UNL     1      21.468   1.759  49.863  1.00  0.00    -0.044 P 
HETATM   16  C17 UNL     1      22.108   1.990  48.142  1.00  0.00     0.125 C 
HETATM   17  N5  UNL     1      22.575   3.165  47.860  1.00  0.00    -0.268 NA
HETATM   18  P2  UNL     1      23.469   4.048  49.150  1.00  0.00     0.056 P 
HETATM   19  C18 UNL     1      19.653   1.802  49.904  1.00  0.00     0.098 C 
HETATM   20  H11 UNL     1      22.893   1.120  53.238  1.00  0.00     0.153 HD
HETATM   21  H18 UNL     1      24.820   4.224  48.634  1.00  0.00     0.089 HD
ENDROOT
BRANCH   4  22
HETATM   22  N2  UNL     1      18.085  -0.405  52.590  1.00  0.00    -0.340 N 
HETATM   23  H1  UNL     1      17.704   0.462  53.089  1.00  0.00     0.167 HD
BRANCH  22  24
HETATM   24  C4  UNL     1      17.381  -1.587  52.808  1.00  0.00     0.035 A 
HETATM   25  C5  UNL     1      17.926  -2.612  53.545  1.00  0.00     0.029 A 
HETATM   26  C6  UNL     1      17.250  -3.783  53.764  1.00  0.00     0.004 A 
HETATM   27  C7  UNL     1      15.982  -3.921  53.223  1.00  0.00     0.019 A 
HETATM   28  C8  UNL     1      15.405  -2.919  52.481  1.00  0.00     0.013 A 
HETATM   29 BR1  UNL     1      13.657  -3.241  51.799  1.00  0.00    -0.051 Br
HETATM   30  C9  UNL     1      16.103  -1.746  52.270  1.00  0.00     0.048 A 
ENDBRANCH  22  24
ENDBRANCH   4  22
TORSDOF 2
ENDMDL
MODEL 8
REMARK VINA RESULT:      -7.3      2.728      4.820
REMARK  2 active torsions:
REMARK  status: ('A' for Active; 'I' for Inactive)
REMARK    1  A    between atoms: C3_4  and  N2_5 
REMARK    2  A    between atoms: N2_5  and  C4_6 
ROOT
HETATM    1  N1  UNL     1      27.035   3.353  50.437  1.00  0.00    -0.192 NA
HETATM    2  C1  UNL     1      25.857   3.543  50.327  1.00  0.00     0.099 C 
HETATM    3  C2  UNL     1      24.412   3.800  50.180  1.00  0.00     0.073 C 
HETATM    4  C3  UNL     1      23.719   3.472  51.292  1.00  0.00     0.144 C 
HETATM    5  N3  UNL     1      22.544   3.330  52.082  1.00  0.00    -0.246 NA
HETATM    6  C10 UNL     1      21.558   2.583  51.828  1.00  0.00     0.093 C 
HETATM    7  C11 UNL     1      20.292   2.310  52.510  1.00  0.00     0.066 C 
HETATM    8  C12 UNL     1      19.177   3.151  51.870  1.00  0.00     0.119 C 
HETATM    9  N4  UNL     1      19.095   2.849  50.484  1.00  0.00    -0.419 N 
HETATM   10  C13 UNL     1      18.145   3.579  49.714  1.00  0.00     0.140 C 
HETATM   11  C14 UNL     1      18.467   3.160  48.241  1.00  0.00     0.195 C 
HETATM   12  O1  UNL     1      19.819   3.546  48.112  1.00  0.00    -0.347 OA
HETATM   13  C15 UNL     1      20.496   3.961  47.032  1.00  0.00     0.093 C 
HETATM   14  C16 UNL     1      21.606   3.410  47.562  1.00  0.00     0.051 C 
HETATM   15  P1  UNL     1      22.529   4.795  48.325  1.00  0.00    -0.044 P 
HETATM   16  C17 UNL     1      22.540   6.228  47.154  1.00  0.00     0.125 C 
HETATM   17  N5  UNL     1      22.365   5.943  45.902  1.00  0.00    -0.268 NA
HETATM   18  P2  UNL     1      21.225   4.610  45.493  1.00  0.00     0.056 P 
HETATM   19  C18 UNL     1      24.214   4.347  48.837  1.00  0.00     0.098 C 
HETATM   20  H11 UNL     1      19.984   2.660  49.996  1.00  0.00     0.153 HD
HETATM   21  H18 UNL     1      20.163   5.232  44.714  1.00  0.00     0.089 HD
ENDROOT
BRANCH   4  22
HETATM   22  N2  UNL     1      24.467   2.958  52.379  1.00  0.00    -0.340 N 
HETATM   23  H1  UNL     1      24.740   3.857  52.892  1.00  0.00     0.167 HD
BRANCH  22  24
HETATM   24  C4  UNL     1      24.935   1.773  52.942  1.00  0.00     0.035 A 
HETATM   25  C5  UNL     1      24.141   0.651  52.999  1.00  0.00     0.029 A 
HETATM   26  C6  UNL     1      24.585  -0.520  53.553  1.00  0.00     0.004 A 
HETATM   27  C7  UNL     1      25.871  -0.559  54.065  1.00  0.00     0.019 A 
HETATM   28  C8  UNL     1      26.694   0.540  54.026  1.00  0.00     0.013 A 
HETATM   29 BR1  UNL     1      28.438   0.346  54.763  1.00  0.00    -0.051 Br
HETATM   30  C9  UNL     1      26.229   1.713  53.464  1.00  0.00     0.048 A 
ENDBRANCH  22  24
ENDBRANCH   4  22
TORSDOF 2
ENDMDL
MODEL 9
REMARK VINA RESULT:      -7.2      2.898      3.908
REMARK  2 active torsions:
REMARK  status: ('A' for Active; 'I' for Inactive)
REMARK    1  A    between atoms: C3_4  and  N2_5 
REMARK    2  A    between atoms: N2_5  and  C4_6 
ROOT
HETATM    1  N1  UNL     1      21.245   0.936  53.426  1.00  0.00    -0.192 NA
HETATM    2  C1  UNL     1      21.727   1.687  52.626  1.00  0.00     0.099 C 
HETATM    3  C2  UNL     1      22.298   2.611  51.628  1.00  0.00     0.073 C 
HETATM    4  C3  UNL     1      23.572   2.294  51.308  1.00  0.00     0.144 C 
HETATM    5  N3  UNL     1      24.807   2.462  50.624  1.00  0.00    -0.246 NA
HETATM    6  C10 UNL     1      25.583   3.454  50.713  1.00  0.00     0.093 C 
HETATM    7  C11 UNL     1      26.868   3.793  50.100  1.00  0.00     0.066 C 
HETATM    8  C12 UNL     1      26.631   4.725  48.902  1.00  0.00     0.119 C 
HETATM    9  N4  UNL     1      25.942   5.889  49.339  1.00  0.00    -0.419 N 
HETATM   10  C13 UNL     1      25.588   6.846  48.346  1.00  0.00     0.140 C 
HETATM   11  C14 UNL     1      24.681   7.859  49.120  1.00  0.00     0.195 C 
HETATM   12  O1  UNL     1      23.645   7.025  49.595  1.00  0.00    -0.347 OA
HETATM   13  C15 UNL     1      22.355   7.304  49.828  1.00  0.00     0.093 C 
HETATM   14  C16 UNL     1      22.370   6.379  50.809  1.00  0.00     0.051 C 
HETATM   15  P1  UNL     1      21.622   4.875  50.082  1.00  0.00    -0.044 P 
HETATM   16  C17 UNL     1      20.107   5.356  49.134  1.00  0.00     0.125 C 
HETATM   17  N5  UNL     1      19.547   6.472  49.481  1.00  0.00    -0.268 NA
HETATM   18  P2  UNL     1      20.617   7.831  49.983  1.00  0.00     0.056 P 
HETATM   19  C18 UNL     1      21.254   3.585  51.307  1.00  0.00     0.098 C 
HETATM   20  H11 UNL     1      25.234   5.760  50.078  1.00  0.00     0.153 HD
HETATM   21  H18 UNL     1      20.376   8.892  49.015  1.00  0.00     0.089 HD
ENDROOT
BRANCH   4  22
HETATM   22  N2  UNL     1      24.128   1.166  51.959  1.00  0.00    -0.340 N 
HETATM   23  H1  UNL     1      23.398   0.414  51.740  1.00  0.00     0.167 HD
BRANCH  22  24
HETATM   24  C4  UNL     1      25.209   0.753  52.734  1.00  0.00     0.035 A 
HETATM   25  C5  UNL     1      25.614   1.475  53.832  1.00  0.00     0.029 A 
HETATM   26  C6  UNL     1      26.678   1.085  54.602  1.00  0.00     0.004 A 
HETATM   27  C7  UNL     1      27.354  -0.071  54.250  1.00  0.00     0.019 A 
HETATM   28  C8  UNL     1      26.980  -0.819  53.160  1.00  0.00     0.013 A 
HETATM   29 BR1  UNL     1      27.996  -2.387  52.793  1.00  0.00    -0.051 Br
HETATM   30  C9  UNL     1      25.906  -0.410  52.396  1.00  0.00     0.048 A 
ENDBRANCH  22  24
ENDBRANCH   4  22
TORSDOF 2
ENDMDL
