MODEL 1
REMARK VINA RESULT:      -8.6      0.000      0.000
REMARK  4 active torsions:
REMARK  status: ('A' for Active; 'I' for Inactive)
REMARK    1  A    between atoms: C1_2  and  C2_3 
REMARK    2  A    between atoms: C7_8  and  C8_9 
REMARK    3  A    between atoms: C12_15  and  N4_16 
REMARK    4  A    between atoms: C15_19  and  N5_20 
ROOT
HETATM    1  C8  UNL     1      26.026   0.409  53.600  1.00  0.00     0.086 A 
HETATM    2  C9  UNL     1      24.924  -0.466  54.149  1.00  0.00     0.125 A 
HETATM    3  N2  UNL     1      23.730  -0.438  53.661  1.00  0.00    -0.184 NA
HETATM    4  N3  UNL     1      23.436   0.426  52.600  1.00  0.00    -0.248 N 
HETATM    5  C10 UNL     1      22.157   0.542  51.987  1.00  0.00     0.117 A 
HETATM    6  C11 UNL     1      22.298   1.465  51.049  1.00  0.00     0.034 A 
HETATM    7  C12 UNL     1      23.645   2.077  50.907  1.00  0.00     0.298 A 
HETATM    8  C18 UNL     1      24.373   1.331  51.978  1.00  0.00     0.070 A 
HETATM    9  C19 UNL     1      25.577   1.273  52.524  1.00  0.00     0.018 A 
ENDROOT
BRANCH   1  10
HETATM   10  C7  UNL     1      27.264  -0.331  53.463  1.00  0.00    -0.034 A 
HETATM   11  C2  UNL     1      28.565  -0.120  53.749  1.00  0.00    -0.012 A 
HETATM   12  C3  UNL     1      29.575  -1.012  53.594  1.00  0.00     0.013 A 
HETATM   13  C4  UNL     1      29.288  -2.284  53.089  1.00  0.00     0.001 A 
HETATM   14  C5  UNL     1      27.999  -2.575  52.773  1.00  0.00     0.001 A 
HETATM   15  C6  UNL     1      27.012  -1.620  52.956  1.00  0.00     0.009 A 
BRANCH  11  16
HETATM   16  C1  UNL     1      28.863   1.222  54.216  1.00  0.00     0.119 C 
HETATM   17  N1  UNL     1      29.228   2.008  53.279  1.00  0.00    -0.311 NA
HETATM   18  H1  UNL     1      29.496   2.990  53.307  1.00  0.00     0.186 HD
ENDBRANCH  11  16
ENDBRANCH   1  10
BRANCH   7  19
HETATM   19  N4  UNL     1      23.637   3.495  51.099  1.00  0.00     0.102 N 
HETATM   20  C13 UNL     1      24.905   4.030  50.686  1.00  0.00     0.276 C 
HETATM   21  C14 UNL     1      24.761   5.325  49.912  1.00  0.00     0.065 C 
HETATM   22  C15 UNL     1      23.970   5.139  48.643  1.00  0.00     0.221 C 
HETATM   23  C16 UNL     1      22.853   4.151  48.871  1.00  0.00     0.065 C 
HETATM   24  C17 UNL     1      22.593   4.139  50.381  1.00  0.00     0.276 C 
BRANCH  22  25
HETATM   25  N5  UNL     1      23.505   6.432  48.196  1.00  0.00     0.083 N 
HETATM   26  H17 UNL     1      22.597   6.374  47.654  1.00  0.00     0.313 HD
HETATM   27  H18 UNL     1      23.393   7.134  48.960  1.00  0.00     0.313 HD
ENDBRANCH  22  25
ENDBRANCH   7  19
TORSDOF 4
ENDMDL
MODEL 2
REMARK VINA RESULT:      -8.6      1.081      1.365
REMARK  4 active torsions:
REMARK  status: ('A' for Active; 'I' for Inactive)
REMARK    1  A    between atoms: C1_2  and  C2_3 
REMARK    2  A    between atoms: C7_8  and  C8_9 
REMARK    3  A    between atoms: C12_15  and  N4_16 
REMARK    4  A    between atoms: C15_19  and  N5_20 
ROOT
HETATM    1  C8  UNL     1      25.977   0.650  53.848  1.00  0.00     0.086 A 
HETATM    2  C9  UNL     1      25.220  -0.385  54.649  1.00  0.00     0.125 A 
HETATM    3  N2  UNL     1      24.022  -0.742  54.334  1.00  0.00    -0.184 NA
HETATM    4  N3  UNL     1      23.394  -0.158  53.228  1.00  0.00    -0.248 N 
HETATM    5  C10 UNL     1      22.077  -0.471  52.791  1.00  0.00     0.117 A 
HETATM    6  C11 UNL     1      21.861   0.301  51.737  1.00  0.00     0.034 A 
HETATM    7  C12 UNL     1      22.965   1.210  51.335  1.00  0.00     0.298 A 
HETATM    8  C18 UNL     1      23.977   0.852  52.376  1.00  0.00     0.070 A 
HETATM    9  C19 UNL     1      25.200   1.192  52.750  1.00  0.00     0.018 A 
ENDROOT
BRANCH   1  10
HETATM   10  C7  UNL     1      27.350   0.242  53.630  1.00  0.00    -0.034 A 
HETATM   11  C2  UNL     1      28.565   0.824  53.700  1.00  0.00    -0.012 A 
HETATM   12  C3  UNL     1      29.760   0.210  53.514  1.00  0.00     0.013 A 
HETATM   13  C4  UNL     1      29.784  -1.156  53.216  1.00  0.00     0.001 A 
HETATM   14  C5  UNL     1      28.600  -1.816  53.125  1.00  0.00     0.001 A 
HETATM   15  C6  UNL     1      27.412  -1.131  53.327  1.00  0.00     0.009 A 
BRANCH  11  16
HETATM   16  C1  UNL     1      28.528   2.254  53.950  1.00  0.00     0.119 C 
HETATM   17  N1  UNL     1      28.939   2.945  52.960  1.00  0.00    -0.311 NA
HETATM   18  H1  UNL     1      29.025   3.955  52.849  1.00  0.00     0.186 HD
ENDBRANCH  11  16
ENDBRANCH   1  10
BRANCH   7  19
HETATM   19  N4  UNL     1      22.588   2.590  51.353  1.00  0.00     0.102 N 
HETATM   20  C13 UNL     1      23.336   3.268  52.375  1.00  0.00     0.276 C 
HETATM   21  C14 UNL     1      23.824   4.631  51.927  1.00  0.00     0.065 C 
HETATM   22  C15 UNL     1      24.752   4.537  50.744  1.00  0.00     0.221 C 
HETATM   23  C16 UNL     1      24.291   3.445  49.811  1.00  0.00     0.065 C 
HETATM   24  C17 UNL     1      22.802   3.232  50.103  1.00  0.00     0.276 C 
BRANCH  22  25
HETATM   25  N5  UNL     1      24.826   5.834  50.111  1.00  0.00     0.083 N 
HETATM   26  H17 UNL     1      24.261   6.570  50.623  1.00  0.00     0.313 HD
HETATM   27  H18 UNL     1      25.797   6.192  49.979  1.00  0.00     0.313 HD
ENDBRANCH  22  25
ENDBRANCH   7  19
TORSDOF 4
ENDMDL
MODEL 3
REMARK VINA RESULT:      -8.3      1.846      6.505
REMARK  4 active torsions:
REMARK  status: ('A' for Active; 'I' for Inactive)
REMARK    1  A    between atoms: C1_2  and  C2_3 
REMARK    2  A    between atoms: C7_8  and  C8_9 
REMARK    3  A    between atoms: C12_15  and  N4_16 
REMARK    4  A    between atoms: C15_19  and  N5_20 
ROOT
HETATM    1  C8  UNL     1      24.760   3.155  50.063  1.00  0.00     0.086 A 
HETATM    2  C9  UNL     1      23.400   2.934  49.444  1.00  0.00     0.125 A 
HETATM    3  N2  UNL     1      22.536   2.136  49.973  1.00  0.00    -0.184 NA
HETATM    4  N3  UNL     1      22.859   1.446  51.147  1.00  0.00    -0.248 N 
HETATM    5  C10 UNL     1      21.989   0.540  51.814  1.00  0.00     0.117 A 
HETATM    6  C11 UNL     1      22.671   0.098  52.858  1.00  0.00     0.034 A 
HETATM    7  C12 UNL     1      24.049   0.627  53.030  1.00  0.00     0.298 A 
HETATM    8  C18 UNL     1      24.118   1.538  51.847  1.00  0.00     0.070 A 
HETATM    9  C19 UNL     1      24.972   2.358  51.256  1.00  0.00     0.018 A 
ENDROOT
BRANCH   1  10
HETATM   10  C7  UNL     1      25.117   4.559  50.059  1.00  0.00    -0.034 A 
HETATM   11  C2  UNL     1      26.104   5.315  49.535  1.00  0.00    -0.012 A 
HETATM   12  C3  UNL     1      26.201   6.666  49.603  1.00  0.00     0.013 A 
HETATM   13  C4  UNL     1      25.207   7.386  50.273  1.00  0.00     0.001 A 
HETATM   14  C5  UNL     1      24.178   6.697  50.831  1.00  0.00     0.001 A 
HETATM   15  C6  UNL     1      24.136   5.317  50.726  1.00  0.00     0.009 A 
BRANCH  11  16
HETATM   16  C1  UNL     1      27.161   4.554  48.894  1.00  0.00     0.119 C 
HETATM   17  N1  UNL     1      28.316   5.072  49.053  1.00  0.00    -0.311 NA
HETATM   18  H1  UNL     1      29.230   4.765  48.722  1.00  0.00     0.186 HD
ENDBRANCH  11  16
ENDBRANCH   1  10
BRANCH   7  19
HETATM   19  N4  UNL     1      25.047  -0.398  53.024  1.00  0.00     0.102 N 
HETATM   20  C13 UNL     1      26.146   0.022  52.200  1.00  0.00     0.276 C 
HETATM   21  C14 UNL     1      27.490  -0.321  52.811  1.00  0.00     0.065 C 
HETATM   22  C15 UNL     1      27.698   0.362  54.138  1.00  0.00     0.221 C 
HETATM   23  C16 UNL     1      26.399   0.410  54.903  1.00  0.00     0.065 C 
HETATM   24  C17 UNL     1      25.522  -0.707  54.328  1.00  0.00     0.276 C 
BRANCH  22  25
HETATM   25  N5  UNL     1      28.754  -0.323  54.848  1.00  0.00     0.083 N 
HETATM   26  H17 UNL     1      28.848  -1.338  54.560  1.00  0.00     0.313 HD
HETATM   27  H18 UNL     1      29.689   0.134  54.770  1.00  0.00     0.313 HD
ENDBRANCH  22  25
ENDBRANCH   7  19
TORSDOF 4
ENDMDL
MODEL 4
REMARK VINA RESULT:      -8.2      2.067      4.597
REMARK  4 active torsions:
REMARK  status: ('A' for Active; 'I' for Inactive)
REMARK    1  A    between atoms: C1_2  and  C2_3 
REMARK    2  A    between atoms: C7_8  and  C8_9 
REMARK    3  A    between atoms: C12_15  and  N4_16 
REMARK    4  A    between atoms: C15_19  and  N5_20 
ROOT
HETATM    1  C8  UNL     1      26.060   1.098  51.777  1.00  0.00     0.086 A 
HETATM    2  C9  UNL     1      26.476   2.300  50.960  1.00  0.00     0.125 A 
HETATM    3  N2  UNL     1      25.695   3.314  50.801  1.00  0.00    -0.184 NA
HETATM    4  N3  UNL     1      24.424   3.308  51.390  1.00  0.00    -0.248 N 
HETATM    5  C10 UNL     1      23.481   4.367  51.278  1.00  0.00     0.117 A 
HETATM    6  C11 UNL     1      22.418   3.965  51.957  1.00  0.00     0.034 A 
HETATM    7  C12 UNL     1      22.497   2.626  52.596  1.00  0.00     0.298 A 
HETATM    8  C18 UNL     1      23.879   2.232  52.182  1.00  0.00     0.070 A 
HETATM    9  C19 UNL     1      24.714   1.212  52.303  1.00  0.00     0.018 A 
ENDROOT
BRANCH   1  10
HETATM   10  C7  UNL     1      27.137   0.651  52.637  1.00  0.00    -0.034 A 
HETATM   11  C2  UNL     1      27.639  -0.535  53.037  1.00  0.00    -0.012 A 
HETATM   12  C3  UNL     1      28.733  -0.721  53.817  1.00  0.00     0.013 A 
HETATM   13  C4  UNL     1      29.438   0.396  54.277  1.00  0.00     0.001 A 
HETATM   14  C5  UNL     1      28.993   1.630  53.920  1.00  0.00     0.001 A 
HETATM   15  C6  UNL     1      27.869   1.752  53.119  1.00  0.00     0.009 A 
BRANCH  11  16
HETATM   16  C1  UNL     1      26.868  -1.686  52.604  1.00  0.00     0.119 C 
HETATM   17  N1  UNL     1      27.530  -2.776  52.647  1.00  0.00    -0.311 NA
HETATM   18  H1  UNL     1      27.253  -3.727  52.407  1.00  0.00     0.186 HD
ENDBRANCH  11  16
ENDBRANCH   1  10
BRANCH   7  19
HETATM   19  N4  UNL     1      21.483   1.727  52.137  1.00  0.00     0.102 N 
HETATM   20  C13 UNL     1      22.084   0.459  51.831  1.00  0.00     0.276 C 
HETATM   21  C14 UNL     1      21.241  -0.709  52.302  1.00  0.00     0.065 C 
HETATM   22  C15 UNL     1      21.054  -0.704  53.797  1.00  0.00     0.221 C 
HETATM   23  C16 UNL     1      20.905   0.713  54.293  1.00  0.00     0.065 C 
HETATM   24  C17 UNL     1      20.444   1.542  53.090  1.00  0.00     0.276 C 
BRANCH  22  25
HETATM   25  N5  UNL     1      19.925  -1.544  54.124  1.00  0.00     0.083 N 
HETATM   26  H17 UNL     1      20.206  -2.415  54.657  1.00  0.00     0.313 HD
HETATM   27  H18 UNL     1      19.168  -1.058  54.653  1.00  0.00     0.313 HD
ENDBRANCH  22  25
ENDBRANCH   7  19
TORSDOF 4
ENDMDL
MODEL 5
REMARK VINA RESULT:      -8.1      1.806      6.660
REMARK  4 active torsions:
REMARK  status: ('A' for Active; 'I' for Inactive)
REMARK    1  A    between atoms: C1_2  and  C2_3 
REMARK    2  A    between atoms: C7_8  and  C8_9 
REMARK    3  A    between atoms: C12_15  and  N4_16 
REMARK    4  A    between atoms: C15_19  and  N5_20 
ROOT
HETATM    1  C8  UNL     1      25.072   3.564  49.650  1.00  0.00     0.086 A 
HETATM    2  C9  UNL     1      23.696   3.387  49.050  1.00  0.00     0.125 A 
HETATM    3  N2  UNL     1      22.811   2.624  49.596  1.00  0.00    -0.184 NA
HETATM    4  N3  UNL     1      23.124   1.933  50.773  1.00  0.00    -0.248 N 
HETATM    5  C10 UNL     1      22.230   1.065  51.458  1.00  0.00     0.117 A 
HETATM    6  C11 UNL     1      22.910   0.608  52.498  1.00  0.00     0.034 A 
HETATM    7  C12 UNL     1      24.308   1.089  52.649  1.00  0.00     0.298 A 
HETATM    8  C18 UNL     1      24.394   1.986  51.457  1.00  0.00     0.070 A 
HETATM    9  C19 UNL     1      25.270   2.770  50.848  1.00  0.00     0.018 A 
ENDROOT
BRANCH   1  10
HETATM   10  C7  UNL     1      25.478   4.954  49.629  1.00  0.00    -0.034 A 
HETATM   11  C2  UNL     1      25.096   6.093  50.243  1.00  0.00    -0.012 A 
HETATM   12  C3  UNL     1      25.686   7.308  50.118  1.00  0.00     0.013 A 
HETATM   13  C4  UNL     1      26.798   7.441  49.281  1.00  0.00     0.001 A 
HETATM   14  C5  UNL     1      27.245   6.339  48.623  1.00  0.00     0.001 A 
HETATM   15  C6  UNL     1      26.599   5.126  48.794  1.00  0.00     0.009 A 
BRANCH  11  16
HETATM   16  C1  UNL     1      23.906   5.958  51.063  1.00  0.00     0.119 C 
HETATM   17  N1  UNL     1      24.145   6.062  52.312  1.00  0.00    -0.311 NA
HETATM   18  H1  UNL     1      23.516   6.010  53.112  1.00  0.00     0.186 HD
ENDBRANCH  11  16
ENDBRANCH   1  10
BRANCH   7  19
HETATM   19  N4  UNL     1      25.268   0.028  52.640  1.00  0.00     0.102 N 
HETATM   20  C13 UNL     1      26.495   0.511  52.070  1.00  0.00     0.276 C 
HETATM   21  C14 UNL     1      27.715   0.017  52.821  1.00  0.00     0.065 C 
HETATM   22  C15 UNL     1      27.725   0.487  54.253  1.00  0.00     0.221 C 
HETATM   23  C16 UNL     1      26.321   0.484  54.806  1.00  0.00     0.065 C 
HETATM   24  C17 UNL     1      25.520  -0.492  53.939  1.00  0.00     0.276 C 
BRANCH  22  25
HETATM   25  N5  UNL     1      28.636  -0.345  55.005  1.00  0.00     0.083 N 
HETATM   26  H17 UNL     1      29.477  -0.647  54.436  1.00  0.00     0.313 HD
HETATM   27  H18 UNL     1      28.972   0.083  55.895  1.00  0.00     0.313 HD
ENDBRANCH  22  25
ENDBRANCH   7  19
TORSDOF 4
ENDMDL
MODEL 6
REMARK VINA RESULT:      -7.5      2.749      7.244
REMARK  4 active torsions:
REMARK  status: ('A' for Active; 'I' for Inactive)
REMARK    1  A    between atoms: C1_2  and  C2_3 
REMARK    2  A    between atoms: C7_8  and  C8_9 
REMARK    3  A    between atoms: C12_15  and  N4_16 
REMARK    4  A    between atoms: C15_19  and  N5_20 
ROOT
HETATM    1  C8  UNL     1      25.737   5.757  49.050  1.00  0.00     0.086 A 
HETATM    2  C9  UNL     1      24.331   6.218  48.740  1.00  0.00     0.125 A 
HETATM    3  N2  UNL     1      23.306   5.720  49.344  1.00  0.00    -0.184 NA
HETATM    4  N3  UNL     1      23.489   4.721  50.308  1.00  0.00    -0.248 N 
HETATM    5  C10 UNL     1      22.434   4.100  51.033  1.00  0.00     0.117 A 
HETATM    6  C11 UNL     1      23.022   3.214  51.822  1.00  0.00     0.034 A 
HETATM    7  C12 UNL     1      24.503   3.120  51.738  1.00  0.00     0.298 A 
HETATM    8  C18 UNL     1      24.762   4.167  50.703  1.00  0.00     0.070 A 
HETATM    9  C19 UNL     1      25.778   4.702  50.044  1.00  0.00     0.018 A 
ENDROOT
BRANCH   1  10
HETATM   10  C7  UNL     1      26.647   6.880  49.150  1.00  0.00    -0.034 A 
HETATM   11  C2  UNL     1      27.887   7.175  48.708  1.00  0.00    -0.012 A 
HETATM   12  C3  UNL     1      28.535   8.355  48.868  1.00  0.00     0.013 A 
HETATM   13  C4  UNL     1      27.897   9.394  49.554  1.00  0.00     0.001 A 
HETATM   14  C5  UNL     1      26.645   9.175  50.033  1.00  0.00     0.001 A 
HETATM   15  C6  UNL     1      26.036   7.947  49.836  1.00  0.00     0.009 A 
BRANCH  11  16
HETATM   16  C1  UNL     1      28.564   6.072  48.050  1.00  0.00     0.119 C 
HETATM   17  N1  UNL     1      29.399   5.475  48.808  1.00  0.00    -0.311 NA
HETATM   18  H1  UNL     1      30.009   4.680  48.622  1.00  0.00     0.186 HD
ENDBRANCH  11  16
ENDBRANCH   1  10
BRANCH   7  19
HETATM   19  N4  UNL     1      24.960   1.817  51.364  1.00  0.00     0.102 N 
HETATM   20  C13 UNL     1      26.381   1.745  51.561  1.00  0.00     0.276 C 
HETATM   21  C14 UNL     1      26.813   0.426  52.170  1.00  0.00     0.065 C 
HETATM   22  C15 UNL     1      26.207   0.207  53.531  1.00  0.00     0.221 C 
HETATM   23  C16 UNL     1      24.795   0.739  53.559  1.00  0.00     0.065 C 
HETATM   24  C17 UNL     1      24.324   0.782  52.102  1.00  0.00     0.276 C 
BRANCH  22  25
HETATM   25  N5  UNL     1      26.292  -1.200  53.853  1.00  0.00     0.083 N 
HETATM   26  H17 UNL     1      25.394  -1.579  54.266  1.00  0.00     0.313 HD
HETATM   27  H18 UNL     1      26.573  -1.806  53.051  1.00  0.00     0.313 HD
ENDBRANCH  22  25
ENDBRANCH   7  19
TORSDOF 4
ENDMDL
MODEL 7
REMARK VINA RESULT:      -7.5      2.897      4.446
REMARK  4 active torsions:
REMARK  status: ('A' for Active; 'I' for Inactive)
REMARK    1  A    between atoms: C1_2  and  C2_3 
REMARK    2  A    between atoms: C7_8  and  C8_9 
REMARK    3  A    between atoms: C12_15  and  N4_16 
REMARK    4  A    between atoms: C15_19  and  N5_20 
ROOT
HETATM    1  C8  UNL     1      22.224   1.280  52.241  1.00  0.00     0.086 A 
HETATM    2  C9  UNL     1      21.493   0.443  51.216  1.00  0.00     0.125 A 
HETATM    3  N2  UNL     1      21.539   0.720  49.957  1.00  0.00    -0.184 NA
HETATM    4  N3  UNL     1      22.278   1.825  49.518  1.00  0.00    -0.248 N 
HETATM    5  C10 UNL     1      22.396   2.225  48.159  1.00  0.00     0.117 A 
HETATM    6  C11 UNL     1      23.157   3.309  48.174  1.00  0.00     0.034 A 
HETATM    7  C12 UNL     1      23.636   3.771  49.503  1.00  0.00     0.298 A 
HETATM    8  C18 UNL     1      23.015   2.726  50.372  1.00  0.00     0.070 A 
HETATM    9  C19 UNL     1      22.923   2.406  51.653  1.00  0.00     0.018 A 
ENDROOT
BRANCH   1  10
HETATM   10  C7  UNL     1      22.891   0.445  53.219  1.00  0.00    -0.034 A 
HETATM   11  C2  UNL     1      22.518  -0.438  54.167  1.00  0.00    -0.012 A 
HETATM   12  C3  UNL     1      23.347  -1.179  54.944  1.00  0.00     0.013 A 
HETATM   13  C4  UNL     1      24.729  -1.045  54.785  1.00  0.00     0.001 A 
HETATM   14  C5  UNL     1      25.188  -0.171  53.850  1.00  0.00     0.001 A 
HETATM   15  C6  UNL     1      24.289   0.556  53.087  1.00  0.00     0.009 A 
BRANCH  11  16
HETATM   16  C1  UNL     1      21.083  -0.528  54.367  1.00  0.00     0.119 C 
HETATM   17  N1  UNL     1      20.702  -1.685  54.746  1.00  0.00    -0.311 NA
HETATM   18  H1  UNL     1      19.770  -2.037  54.960  1.00  0.00     0.186 HD
ENDBRANCH  11  16
ENDBRANCH   1  10
BRANCH   7  19
HETATM   19  N4  UNL     1      23.216   5.103  49.816  1.00  0.00     0.102 N 
HETATM   20  C13 UNL     1      23.630   5.422  51.154  1.00  0.00     0.276 C 
HETATM   21  C14 UNL     1      24.170   6.833  51.272  1.00  0.00     0.065 C 
HETATM   22  C15 UNL     1      25.390   7.044  50.413  1.00  0.00     0.221 C 
HETATM   23  C16 UNL     1      25.243   6.289  49.115  1.00  0.00     0.065 C 
HETATM   24  C17 UNL     1      23.740   6.068  48.914  1.00  0.00     0.276 C 
BRANCH  22  25
HETATM   25  N5  UNL     1      25.584   8.464  50.229  1.00  0.00     0.083 N 
HETATM   26  H17 UNL     1      24.889   8.886  49.550  1.00  0.00     0.313 HD
HETATM   27  H18 UNL     1      25.564   9.017  51.114  1.00  0.00     0.313 HD
ENDBRANCH  22  25
ENDBRANCH   7  19
TORSDOF 4
ENDMDL
MODEL 8
REMARK VINA RESULT:      -7.4      3.273      5.402
REMARK  4 active torsions:
REMARK  status: ('A' for Active; 'I' for Inactive)
REMARK    1  A    between atoms: C1_2  and  C2_3 
REMARK    2  A    between atoms: C7_8  and  C8_9 
REMARK    3  A    between atoms: C12_15  and  N4_16 
REMARK    4  A    between atoms: C15_19  and  N5_20 
ROOT
HETATM    1  C8  UNL     1      24.053   3.302  52.024  1.00  0.00     0.086 A 
HETATM    2  C9  UNL     1      24.946   2.676  53.070  1.00  0.00     0.125 A 
HETATM    3  N2  UNL     1      24.714   1.499  53.544  1.00  0.00    -0.184 NA
HETATM    4  N3  UNL     1      23.605   0.776  53.088  1.00  0.00    -0.248 N 
HETATM    5  C10 UNL     1      23.251  -0.525  53.541  1.00  0.00     0.117 A 
HETATM    6  C11 UNL     1      22.147  -0.840  52.882  1.00  0.00     0.034 A 
HETATM    7  C12 UNL     1      21.623   0.174  51.929  1.00  0.00     0.298 A 
HETATM    8  C18 UNL     1      22.654   1.242  52.107  1.00  0.00     0.070 A 
HETATM    9  C19 UNL     1      22.930   2.458  51.665  1.00  0.00     0.018 A 
ENDROOT
BRANCH   1  10
HETATM   10  C7  UNL     1      24.833   3.947  50.988  1.00  0.00    -0.034 A 
HETATM   11  C2  UNL     1      24.936   5.190  50.474  1.00  0.00    -0.012 A 
HETATM   12  C3  UNL     1      25.813   5.594  49.522  1.00  0.00     0.013 A 
HETATM   13  C4  UNL     1      26.715   4.667  48.991  1.00  0.00     0.001 A 
HETATM   14  C5  UNL     1      26.674   3.390  49.455  1.00  0.00     0.001 A 
HETATM   15  C6  UNL     1      25.754   3.041  50.429  1.00  0.00     0.009 A 
BRANCH  11  16
HETATM   16  C1  UNL     1      23.957   6.131  50.987  1.00  0.00     0.119 C 
HETATM   17  N1  UNL     1      24.435   6.916  51.873  1.00  0.00    -0.311 NA
HETATM   18  H1  UNL     1      23.990   7.665  52.401  1.00  0.00     0.186 HD
ENDBRANCH  11  16
ENDBRANCH   1  10
BRANCH   7  19
HETATM   19  N4  UNL     1      20.294   0.601  52.242  1.00  0.00     0.102 N 
HETATM   20  C13 UNL     1      20.301   2.017  52.482  1.00  0.00     0.276 C 
HETATM   21  C14 UNL     1      19.108   2.715  51.860  1.00  0.00     0.065 C 
HETATM   22  C15 UNL     1      19.084   2.562  50.361  1.00  0.00     0.221 C 
HETATM   23  C16 UNL     1      19.566   1.185  49.975  1.00  0.00     0.065 C 
HETATM   24  C17 UNL     1      19.365   0.299  51.209  1.00  0.00     0.276 C 
BRANCH  22  25
HETATM   25  N5  UNL     1      17.748   2.851  49.890  1.00  0.00     0.083 N 
HETATM   26  H17 UNL     1      17.746   3.409  48.989  1.00  0.00     0.313 HD
HETATM   27  H18 UNL     1      17.147   2.008  49.763  1.00  0.00     0.313 HD
ENDBRANCH  22  25
ENDBRANCH   7  19
TORSDOF 4
ENDMDL
MODEL 9
REMARK VINA RESULT:      -7.4      3.386      7.666
REMARK  4 active torsions:
REMARK  status: ('A' for Active; 'I' for Inactive)
REMARK    1  A    between atoms: C1_2  and  C2_3 
REMARK    2  A    between atoms: C7_8  and  C8_9 
REMARK    3  A    between atoms: C12_15  and  N4_16 
REMARK    4  A    between atoms: C15_19  and  N5_20 
ROOT
HETATM    1  C8  UNL     1      26.659   6.520  48.234  1.00  0.00     0.086 A 
HETATM    2  C9  UNL     1      25.385   7.230  47.840  1.00  0.00     0.125 A 
HETATM    3  N2  UNL     1      24.258   6.967  48.410  1.00  0.00    -0.184 NA
HETATM    4  N3  UNL     1      24.202   5.995  49.415  1.00  0.00    -0.248 N 
HETATM    5  C10 UNL     1      23.017   5.621  50.108  1.00  0.00     0.117 A 
HETATM    6  C11 UNL     1      23.387   4.673  50.955  1.00  0.00     0.034 A 
HETATM    7  C12 UNL     1      24.823   4.291  50.947  1.00  0.00     0.298 A 
HETATM    8  C18 UNL     1      25.325   5.222  49.891  1.00  0.00     0.070 A 
HETATM    9  C19 UNL     1      26.452   5.521  49.265  1.00  0.00     0.018 A 
ENDROOT
BRANCH   1  10
HETATM   10  C7  UNL     1      27.766   7.449  48.340  1.00  0.00    -0.034 A 
HETATM   11  C2  UNL     1      28.107   8.473  49.149  1.00  0.00    -0.012 A 
HETATM   12  C3  UNL     1      29.264   9.179  49.103  1.00  0.00     0.013 A 
HETATM   13  C4  UNL     1      30.224   8.852  48.140  1.00  0.00     0.001 A 
HETATM   14  C5  UNL     1      29.954   7.832  47.284  1.00  0.00     0.001 A 
HETATM   15  C6  UNL     1      28.753   7.148  47.383  1.00  0.00     0.009 A 
BRANCH  11  16
HETATM   16  C1  UNL     1      27.082   8.845  50.107  1.00  0.00     0.119 C 
HETATM   17  N1  UNL     1      27.540   9.504  51.099  1.00  0.00    -0.311 NA
HETATM   18  H1  UNL     1      27.062   9.890  51.912  1.00  0.00     0.186 HD
ENDBRANCH  11  16
ENDBRANCH   1  10
BRANCH   7  19
HETATM   19  N4  UNL     1      25.032   2.909  50.641  1.00  0.00     0.102 N 
HETATM   20  C13 UNL     1      26.373   2.546  51.008  1.00  0.00     0.276 C 
HETATM   21  C14 UNL     1      26.442   1.187  51.675  1.00  0.00     0.065 C 
HETATM   22  C15 UNL     1      25.649   1.146  52.956  1.00  0.00     0.221 C 
HETATM   23  C16 UNL     1      24.390   1.964  52.810  1.00  0.00     0.065 C 
HETATM   24  C17 UNL     1      24.110   2.056  51.306  1.00  0.00     0.276 C 
BRANCH  22  25
HETATM   25  N5  UNL     1      25.396  -0.235  53.297  1.00  0.00     0.083 N 
HETATM   26  H17 UNL     1      24.365  -0.442  53.422  1.00  0.00     0.313 HD
HETATM   27  H18 UNL     1      25.795  -0.923  52.621  1.00  0.00     0.313 HD
ENDBRANCH  22  25
ENDBRANCH   7  19
TORSDOF 4
ENDMDL
