MODEL 1
REMARK VINA RESULT:     -10.2      0.000      0.000
REMARK  2 active torsions:
REMARK  status: ('A' for Active; 'I' for Inactive)
REMARK    1  A    between atoms: C6_8  and  N3_9 
REMARK    2  A    between atoms: N3_9  and  C7_10 
ROOT
HETATM    1  N1  UNL     1      24.943  -1.582  56.277  1.00  0.00    -0.191 NA
HETATM    2  C1  UNL     1      24.208  -1.211  55.477  1.00  0.00     0.103 C 
HETATM    3  C2  UNL     1      23.287  -0.735  54.489  1.00  0.00     0.089 A 
HETATM    4  C3  UNL     1      21.984  -1.156  54.371  1.00  0.00     0.142 A 
HETATM    5  N2  UNL     1      21.152  -0.682  53.427  1.00  0.00    -0.259 NA
HETATM    6  C4  UNL     1      21.499   0.237  52.514  1.00  0.00     0.072 A 
HETATM    7  C5  UNL     1      22.788   0.712  52.564  1.00  0.00     0.023 A 
HETATM    8  C6  UNL     1      23.625   0.225  53.524  1.00  0.00     0.067 A 
HETATM    9  C13 UNL     1      23.440   1.720  51.742  1.00  0.00     0.044 C 
HETATM   10  P1  UNL     1      23.927   3.252  51.440  1.00  0.00     0.028 P 
HETATM   11  N4  UNL     1      23.751   4.741  52.376  1.00  0.00    -0.288 NA
HETATM   12  C14 UNL     1      23.792   5.935  51.565  1.00  0.00     0.119 C 
HETATM   13  C15 UNL     1      22.529   6.119  50.844  1.00  0.00    -0.007 C 
HETATM   14  C16 UNL     1      21.334   5.640  50.685  1.00  0.00     0.073 C 
HETATM   15  C17 UNL     1      20.446   4.584  51.129  1.00  0.00     0.264 C 
HETATM   16  O1  UNL     1      19.320   4.040  51.034  1.00  0.00    -0.266 OA
HETATM   17  N5  UNL     1      20.464   3.500  52.047  1.00  0.00    -0.224 N 
HETATM   18  O2  UNL     1      19.463   2.592  52.312  1.00  0.00    -0.223 OA
HETATM   19  C18 UNL     1      19.454   1.435  51.537  1.00  0.00     0.170 C 
HETATM   20 CL1  UNL     1      18.188   1.286  50.343  1.00  0.00    -0.054 Cl
HETATM   21  C19 UNL     1      20.343   0.471  51.668  1.00  0.00     0.084 C 
HETATM   22  H8  UNL     1      24.489   4.719  53.106  1.00  0.00     0.127 HD
HETATM   23  H13 UNL     1      21.083   3.039  52.748  1.00  0.00     0.198 HD
ENDROOT
BRANCH   8  24
HETATM   24  N3  UNL     1      24.958   0.724  53.507  1.00  0.00    -0.354 N 
HETATM   25  H2  UNL     1      24.753   1.767  53.517  1.00  0.00     0.166 HD
BRANCH  24  26
HETATM   26  C7  UNL     1      26.254   0.140  53.484  1.00  0.00     0.032 A 
HETATM   27  C8  UNL     1      26.511  -0.938  52.650  1.00  0.00     0.032 A 
HETATM   28  C9  UNL     1      27.808  -1.398  52.732  1.00  0.00     0.044 A 
HETATM   29  C10 UNL     1      28.803  -0.901  53.528  1.00  0.00     0.116 A 
HETATM   30  F1  UNL     1      30.051  -1.432  53.532  1.00  0.00    -0.206 F 
HETATM   31  C11 UNL     1      28.458   0.179  54.330  1.00  0.00     0.044 A 
HETATM   32  C12 UNL     1      27.177   0.726  54.328  1.00  0.00     0.032 A 
ENDBRANCH  24  26
ENDBRANCH   8  24
TORSDOF 2
ENDMDL
MODEL 2
REMARK VINA RESULT:      -9.5      1.222      1.414
REMARK  2 active torsions:
REMARK  status: ('A' for Active; 'I' for Inactive)
REMARK    1  A    between atoms: C6_8  and  N3_9 
REMARK    2  A    between atoms: N3_9  and  C7_10 
ROOT
HETATM    1  N1  UNL     1      23.127  -1.439  55.707  1.00  0.00    -0.191 NA
HETATM    2  C1  UNL     1      22.737  -0.915  54.761  1.00  0.00     0.103 C 
HETATM    3  C2  UNL     1      22.247  -0.251  53.592  1.00  0.00     0.089 A 
HETATM    4  C3  UNL     1      21.038  -0.517  52.994  1.00  0.00     0.142 A 
HETATM    5  N2  UNL     1      20.614   0.133  51.895  1.00  0.00    -0.259 NA
HETATM    6  C4  UNL     1      21.314   1.093  51.275  1.00  0.00     0.072 A 
HETATM    7  C5  UNL     1      22.537   1.421  51.812  1.00  0.00     0.023 A 
HETATM    8  C6  UNL     1      22.959   0.756  52.925  1.00  0.00     0.067 A 
HETATM    9  C13 UNL     1      23.497   2.429  51.390  1.00  0.00     0.044 C 
HETATM   10  P1  UNL     1      24.160   3.923  51.466  1.00  0.00     0.028 P 
HETATM   11  N4  UNL     1      23.774   5.323  52.471  1.00  0.00    -0.288 NA
HETATM   12  C14 UNL     1      24.171   6.580  51.880  1.00  0.00     0.119 C 
HETATM   13  C15 UNL     1      23.247   6.967  50.808  1.00  0.00    -0.007 C 
HETATM   14  C16 UNL     1      22.151   6.635  50.201  1.00  0.00     0.073 C 
HETATM   15  C17 UNL     1      21.095   5.642  50.185  1.00  0.00     0.264 C 
HETATM   16  O1  UNL     1      20.037   5.233  49.652  1.00  0.00    -0.266 OA
HETATM   17  N5  UNL     1      20.724   4.478  50.910  1.00  0.00    -0.224 N 
HETATM   18  O2  UNL     1      19.634   3.660  50.708  1.00  0.00    -0.223 OA
HETATM   19  C18 UNL     1      19.815   2.591  49.834  1.00  0.00     0.170 C 
HETATM   20 CL1  UNL     1      19.028   2.695  48.277  1.00  0.00    -0.054 Cl
HETATM   21  C19 UNL     1      20.538   1.530  50.129  1.00  0.00     0.084 C 
HETATM   22  H8  UNL     1      24.213   5.153  53.397  1.00  0.00     0.127 HD
HETATM   23  H13 UNL     1      21.033   3.887  51.712  1.00  0.00     0.198 HD
ENDROOT
BRANCH   8  24
HETATM   24  N3  UNL     1      24.247   1.110  53.418  1.00  0.00    -0.354 N 
HETATM   25  H2  UNL     1      24.020   2.064  53.829  1.00  0.00     0.166 HD
BRANCH  24  26
HETATM   26  C7  UNL     1      25.527   0.491  53.432  1.00  0.00     0.032 A 
HETATM   27  C8  UNL     1      25.923  -0.300  52.363  1.00  0.00     0.032 A 
HETATM   28  C9  UNL     1      27.185  -0.832  52.514  1.00  0.00     0.044 A 
HETATM   29  C10 UNL     1      28.028  -0.651  53.576  1.00  0.00     0.116 A 
HETATM   30  F1  UNL     1      29.256  -1.224  53.624  1.00  0.00    -0.206 F 
HETATM   31  C11 UNL     1      27.551   0.157  54.601  1.00  0.00     0.044 A 
HETATM   32  C12 UNL     1      26.290   0.747  54.554  1.00  0.00     0.032 A 
ENDBRANCH  24  26
ENDBRANCH   8  24
TORSDOF 2
ENDMDL
MODEL 3
REMARK VINA RESULT:      -9.3      3.020      3.858
REMARK  2 active torsions:
REMARK  status: ('A' for Active; 'I' for Inactive)
REMARK    1  A    between atoms: C6_8  and  N3_9 
REMARK    2  A    between atoms: N3_9  and  C7_10 
ROOT
HETATM    1  N1  UNL     1      22.285   0.068  54.033  1.00  0.00    -0.191 NA
HETATM    2  C1  UNL     1      22.340   0.499  52.969  1.00  0.00     0.103 C 
HETATM    3  C2  UNL     1      22.400   1.051  51.650  1.00  0.00     0.089 A 
HETATM    4  C3  UNL     1      21.461   0.834  50.670  1.00  0.00     0.142 A 
HETATM    5  N2  UNL     1      21.556   1.372  49.441  1.00  0.00    -0.259 NA
HETATM    6  C4  UNL     1      22.562   2.166  49.047  1.00  0.00     0.072 A 
HETATM    7  C5  UNL     1      23.545   2.435  49.970  1.00  0.00     0.023 A 
HETATM    8  C6  UNL     1      23.441   1.883  51.213  1.00  0.00     0.067 A 
HETATM    9  C13 UNL     1      24.727   3.275  49.851  1.00  0.00     0.044 C 
HETATM   10  P1  UNL     1      25.527   4.690  50.041  1.00  0.00     0.028 P 
HETATM   11  N4  UNL     1      25.011   6.243  50.707  1.00  0.00    -0.288 NA
HETATM   12  C14 UNL     1      25.770   7.363  50.201  1.00  0.00     0.119 C 
HETATM   13  C15 UNL     1      25.357   7.698  48.835  1.00  0.00    -0.007 C 
HETATM   14  C16 UNL     1      24.515   7.403  47.894  1.00  0.00     0.073 C 
HETATM   15  C17 UNL     1      23.403   6.530  47.571  1.00  0.00     0.264 C 
HETATM   16  O1  UNL     1      22.559   6.165  46.720  1.00  0.00    -0.266 OA
HETATM   17  N5  UNL     1      22.634   5.515  48.202  1.00  0.00    -0.224 N 
HETATM   18  O2  UNL     1      21.583   4.795  47.680  1.00  0.00    -0.223 OA
HETATM   19  C18 UNL     1      21.909   3.607  47.030  1.00  0.00     0.170 C 
HETATM   20 CL1  UNL     1      21.755   3.585  45.290  1.00  0.00    -0.054 Cl
HETATM   21  C19 UNL     1      22.318   2.526  47.662  1.00  0.00     0.084 C 
HETATM   22  H8  UNL     1      25.061   6.151  51.741  1.00  0.00     0.127 HD
HETATM   23  H13 UNL     1      22.547   5.007  49.109  1.00  0.00     0.198 HD
ENDROOT
BRANCH   8  24
HETATM   24  N3  UNL     1      24.504   2.165  52.116  1.00  0.00    -0.354 N 
HETATM   25  H2  UNL     1      24.296   3.188  52.315  1.00  0.00     0.166 HD
BRANCH  24  26
HETATM   26  C7  UNL     1      25.579   1.420  52.673  1.00  0.00     0.032 A 
HETATM   27  C8  UNL     1      26.109   1.785  53.902  1.00  0.00     0.032 A 
HETATM   28  C9  UNL     1      27.144   0.973  54.315  1.00  0.00     0.044 A 
HETATM   29  C10 UNL     1      27.658  -0.103  53.645  1.00  0.00     0.116 A 
HETATM   30  F1  UNL     1      28.682  -0.837  54.145  1.00  0.00    -0.206 F 
HETATM   31  C11 UNL     1      27.066  -0.398  52.424  1.00  0.00     0.044 A 
HETATM   32  C12 UNL     1      26.014   0.355  51.908  1.00  0.00     0.032 A 
ENDBRANCH  24  26
ENDBRANCH   8  24
TORSDOF 2
ENDMDL
MODEL 4
REMARK VINA RESULT:      -9.1      1.954      2.611
REMARK  2 active torsions:
REMARK  status: ('A' for Active; 'I' for Inactive)
REMARK    1  A    between atoms: C6_8  and  N3_9 
REMARK    2  A    between atoms: N3_9  and  C7_10 
ROOT
HETATM    1  N1  UNL     1      22.763  -1.497  55.370  1.00  0.00    -0.191 NA
HETATM    2  C1  UNL     1      22.375  -0.723  54.613  1.00  0.00     0.103 C 
HETATM    3  C2  UNL     1      21.901   0.252  53.680  1.00  0.00     0.089 A 
HETATM    4  C3  UNL     1      20.682   0.883  53.763  1.00  0.00     0.142 A 
HETATM    5  N2  UNL     1      20.275   1.796  52.863  1.00  0.00    -0.259 NA
HETATM    6  C4  UNL     1      21.003   2.182  51.805  1.00  0.00     0.072 A 
HETATM    7  C5  UNL     1      22.238   1.599  51.649  1.00  0.00     0.023 A 
HETATM    8  C6  UNL     1      22.642   0.673  52.566  1.00  0.00     0.067 A 
HETATM    9  C13 UNL     1      23.255   1.831  50.635  1.00  0.00     0.044 C 
HETATM   10  P1  UNL     1      24.613   2.556  50.083  1.00  0.00     0.028 P 
HETATM   11  N4  UNL     1      25.692   3.740  50.829  1.00  0.00    -0.288 NA
HETATM   12  C14 UNL     1      26.418   4.539  49.869  1.00  0.00     0.119 C 
HETATM   13  C15 UNL     1      25.547   5.558  49.275  1.00  0.00    -0.007 C 
HETATM   14  C16 UNL     1      24.356   6.069  49.313  1.00  0.00     0.073 C 
HETATM   15  C17 UNL     1      23.077   5.966  49.988  1.00  0.00     0.264 C 
HETATM   16  O1  UNL     1      21.900   6.384  50.090  1.00  0.00    -0.266 OA
HETATM   17  N5  UNL     1      22.487   5.204  51.032  1.00  0.00    -0.224 N 
HETATM   18  O2  UNL     1      21.203   5.282  51.523  1.00  0.00    -0.223 OA
HETATM   19  C18 UNL     1      20.255   4.465  50.912  1.00  0.00     0.170 C 
HETATM   20 CL1  UNL     1      19.069   5.246  49.895  1.00  0.00    -0.054 Cl
HETATM   21  C19 UNL     1      20.220   3.158  51.069  1.00  0.00     0.084 C 
HETATM   22  H8  UNL     1      26.314   3.209  51.470  1.00  0.00     0.127 HD
HETATM   23  H13 UNL     1      22.714   4.448  51.714  1.00  0.00     0.198 HD
ENDROOT
BRANCH   8  24
HETATM   24  N3  UNL     1      23.912   0.075  52.336  1.00  0.00    -0.354 N 
HETATM   25  H2  UNL     1      23.666  -0.545  51.509  1.00  0.00     0.166 HD
BRANCH  24  26
HETATM   26  C7  UNL     1      25.198   0.173  52.937  1.00  0.00     0.032 A 
HETATM   27  C8  UNL     1      25.525   1.292  53.689  1.00  0.00     0.032 A 
HETATM   28  C9  UNL     1      26.800   1.249  54.209  1.00  0.00     0.044 A 
HETATM   29  C10 UNL     1      27.716   0.245  54.049  1.00  0.00     0.116 A 
HETATM   30  F1  UNL     1      28.950   0.304  54.607  1.00  0.00    -0.206 F 
HETATM   31  C11 UNL     1      27.303  -0.837  53.282  1.00  0.00     0.044 A 
HETATM   32  C12 UNL     1      26.036  -0.900  52.708  1.00  0.00     0.032 A 
ENDBRANCH  24  26
ENDBRANCH   8  24
TORSDOF 2
ENDMDL
MODEL 5
REMARK VINA RESULT:      -8.9      3.220      6.421
REMARK  2 active torsions:
REMARK  status: ('A' for Active; 'I' for Inactive)
REMARK    1  A    between atoms: C6_8  and  N3_9 
REMARK    2  A    between atoms: N3_9  and  C7_10 
ROOT
HETATM    1  N1  UNL     1      22.740   6.554  47.876  1.00  0.00    -0.191 NA
HETATM    2  C1  UNL     1      22.451   5.790  48.685  1.00  0.00     0.103 C 
HETATM    3  C2  UNL     1      22.100   4.827  49.684  1.00  0.00     0.089 A 
HETATM    4  C3  UNL     1      20.926   4.113  49.700  1.00  0.00     0.142 A 
HETATM    5  N2  UNL     1      20.635   3.216  50.659  1.00  0.00    -0.259 NA
HETATM    6  C4  UNL     1      21.448   2.927  51.686  1.00  0.00     0.072 A 
HETATM    7  C5  UNL     1      22.646   3.597  51.743  1.00  0.00     0.023 A 
HETATM    8  C6  UNL     1      22.932   4.506  50.767  1.00  0.00     0.067 A 
HETATM    9  C13 UNL     1      23.734   3.478  52.702  1.00  0.00     0.044 C 
HETATM   10  P1  UNL     1      25.169   2.870  53.200  1.00  0.00     0.028 P 
HETATM   11  N4  UNL     1      26.282   1.729  52.437  1.00  0.00    -0.288 NA
HETATM   12  C14 UNL     1      27.116   1.024  53.382  1.00  0.00     0.119 C 
HETATM   13  C15 UNL     1      26.354  -0.024  54.069  1.00  0.00    -0.007 C 
HETATM   14  C16 UNL     1      25.201  -0.614  54.124  1.00  0.00     0.073 C 
HETATM   15  C17 UNL     1      23.881  -0.627  53.524  1.00  0.00     0.264 C 
HETATM   16  O1  UNL     1      22.731  -1.126  53.510  1.00  0.00    -0.266 OA
HETATM   17  N5  UNL     1      23.180   0.047  52.488  1.00  0.00    -0.224 N 
HETATM   18  O2  UNL     1      21.879  -0.138  52.079  1.00  0.00    -0.223 OA
HETATM   19  C18 UNL     1      20.913   0.640  52.713  1.00  0.00     0.170 C 
HETATM   20 CL1  UNL     1      19.844  -0.173  53.831  1.00  0.00    -0.054 Cl
HETATM   21  C19 UNL     1      20.778   1.934  52.507  1.00  0.00     0.084 C 
HETATM   22  H8  UNL     1      26.828   2.271  51.739  1.00  0.00     0.127 HD
HETATM   23  H13 UNL     1      23.315   0.786  51.764  1.00  0.00     0.198 HD
ENDROOT
BRANCH   8  24
HETATM   24  N3  UNL     1      24.169   5.197  50.895  1.00  0.00    -0.354 N 
HETATM   25  H2  UNL     1      24.021   5.644  51.848  1.00  0.00     0.166 HD
BRANCH  24  26
HETATM   26  C7  UNL     1      25.332   5.342  50.090  1.00  0.00     0.032 A 
HETATM   27  C8  UNL     1      25.765   6.607  49.722  1.00  0.00     0.032 A 
HETATM   28  C9  UNL     1      26.903   6.593  48.945  1.00  0.00     0.044 A 
HETATM   29  C10 UNL     1      27.598   5.489  48.532  1.00  0.00     0.116 A 
HETATM   30  F1  UNL     1      28.712   5.589  47.765  1.00  0.00    -0.206 F 
HETATM   31  C11 UNL     1      27.095   4.263  48.948  1.00  0.00     0.044 A 
HETATM   32  C12 UNL     1      25.951   4.159  49.736  1.00  0.00     0.032 A 
ENDBRANCH  24  26
ENDBRANCH   8  24
TORSDOF 2
ENDMDL
MODEL 6
REMARK VINA RESULT:      -8.8      3.176      4.935
REMARK  2 active torsions:
REMARK  status: ('A' for Active; 'I' for Inactive)
REMARK    1  A    between atoms: C6_8  and  N3_9 
REMARK    2  A    between atoms: N3_9  and  C7_10 
ROOT
HETATM    1  N1  UNL     1      27.935   2.473  52.205  1.00  0.00    -0.191 NA
HETATM    2  C1  UNL     1      26.824   2.184  52.146  1.00  0.00     0.103 C 
HETATM    3  C2  UNL     1      25.438   1.837  52.080  1.00  0.00     0.089 A 
HETATM    4  C3  UNL     1      24.784   1.058  53.004  1.00  0.00     0.142 A 
HETATM    5  N2  UNL     1      23.477   0.756  52.904  1.00  0.00    -0.259 NA
HETATM    6  C4  UNL     1      22.685   1.177  51.907  1.00  0.00     0.072 A 
HETATM    7  C5  UNL     1      23.262   1.965  50.940  1.00  0.00     0.023 A 
HETATM    8  C6  UNL     1      24.588   2.265  51.049  1.00  0.00     0.067 A 
HETATM    9  C13 UNL     1      22.663   2.592  49.771  1.00  0.00     0.044 C 
HETATM   10  P1  UNL     1      21.967   3.855  48.999  1.00  0.00     0.028 P 
HETATM   11  N4  UNL     1      21.572   5.487  49.549  1.00  0.00    -0.288 NA
HETATM   12  C14 UNL     1      20.496   6.098  48.804  1.00  0.00     0.119 C 
HETATM   13  C15 UNL     1      19.201   5.540  49.208  1.00  0.00    -0.007 C 
HETATM   14  C16 UNL     1      18.625   4.723  50.033  1.00  0.00     0.073 C 
HETATM   15  C17 UNL     1      18.890   3.807  51.126  1.00  0.00     0.264 C 
HETATM   16  O1  UNL     1      18.428   2.988  51.954  1.00  0.00    -0.266 OA
HETATM   17  N5  UNL     1      20.004   3.356  51.884  1.00  0.00    -0.224 N 
HETATM   18  O2  UNL     1      20.018   2.445  52.916  1.00  0.00    -0.223 OA
HETATM   19  C18 UNL     1      20.207   1.111  52.562  1.00  0.00     0.170 C 
HETATM   20 CL1  UNL     1      18.826   0.049  52.695  1.00  0.00    -0.054 Cl
HETATM   21  C19 UNL     1      21.360   0.631  52.141  1.00  0.00     0.084 C 
HETATM   22  H8  UNL     1      22.455   6.033  49.510  1.00  0.00     0.127 HD
HETATM   23  H13 UNL     1      21.034   3.490  51.972  1.00  0.00     0.198 HD
ENDROOT
BRANCH   8  24
HETATM   24  N3  UNL     1      25.142   3.053  50.002  1.00  0.00    -0.354 N 
HETATM   25  H2  UNL     1      25.206   2.312  49.242  1.00  0.00     0.166 HD
BRANCH  24  26
HETATM   26  C7  UNL     1      25.538   4.411  49.862  1.00  0.00     0.032 A 
HETATM   27  C8  UNL     1      24.871   5.401  50.569  1.00  0.00     0.032 A 
HETATM   28  C9  UNL     1      25.363   6.667  50.336  1.00  0.00     0.044 A 
HETATM   29  C10 UNL     1      26.399   7.003  49.508  1.00  0.00     0.116 A 
HETATM   30  F1  UNL     1      26.805   8.287  49.351  1.00  0.00    -0.206 F 
HETATM   31  C11 UNL     1      27.011   5.949  48.842  1.00  0.00     0.044 A 
HETATM   32  C12 UNL     1      26.596   4.629  49.001  1.00  0.00     0.032 A 
ENDBRANCH  24  26
ENDBRANCH   8  24
TORSDOF 2
ENDMDL
MODEL 7
REMARK VINA RESULT:      -8.7      4.291      6.554
REMARK  2 active torsions:
REMARK  status: ('A' for Active; 'I' for Inactive)
REMARK    1  A    between atoms: C6_8  and  N3_9 
REMARK    2  A    between atoms: N3_9  and  C7_10 
ROOT
HETATM    1  N1  UNL     1      19.843  -1.452  53.743  1.00  0.00    -0.191 NA
HETATM    2  C1  UNL     1      20.834  -0.873  53.677  1.00  0.00     0.103 C 
HETATM    3  C2  UNL     1      22.069  -0.157  53.578  1.00  0.00     0.089 A 
HETATM    4  C3  UNL     1      23.300  -0.677  53.902  1.00  0.00     0.142 A 
HETATM    5  N2  UNL     1      24.438   0.032  53.794  1.00  0.00    -0.259 NA
HETATM    6  C4  UNL     1      24.492   1.301  53.366  1.00  0.00     0.072 A 
HETATM    7  C5  UNL     1      23.303   1.896  53.019  1.00  0.00     0.023 A 
HETATM    8  C6  UNL     1      22.154   1.170  53.134  1.00  0.00     0.067 A 
HETATM    9  C13 UNL     1      23.047   3.230  52.498  1.00  0.00     0.044 C 
HETATM   10  P1  UNL     1      22.805   4.286  51.272  1.00  0.00     0.028 P 
HETATM   11  N4  UNL     1      22.756   4.054  49.521  1.00  0.00    -0.288 NA
HETATM   12  C14 UNL     1      23.082   5.247  48.776  1.00  0.00     0.119 C 
HETATM   13  C15 UNL     1      24.526   5.501  48.803  1.00  0.00    -0.007 C 
HETATM   14  C16 UNL     1      25.665   5.029  49.206  1.00  0.00     0.073 C 
HETATM   15  C17 UNL     1      26.268   3.912  49.908  1.00  0.00     0.264 C 
HETATM   16  O1  UNL     1      27.315   3.383  50.349  1.00  0.00    -0.266 OA
HETATM   17  N5  UNL     1      25.858   2.695  50.514  1.00  0.00    -0.224 N 
HETATM   18  O2  UNL     1      26.639   1.753  51.146  1.00  0.00    -0.223 OA
HETATM   19  C18 UNL     1      26.829   1.924  52.515  1.00  0.00     0.170 C 
HETATM   20 CL1  UNL     1      28.415   2.437  53.040  1.00  0.00    -0.054 Cl
HETATM   21  C19 UNL     1      25.883   1.717  53.408  1.00  0.00     0.084 C 
HETATM   22  H8  UNL     1      21.813   3.681  49.300  1.00  0.00     0.127 HD
HETATM   23  H13 UNL     1      25.004   2.124  50.694  1.00  0.00     0.198 HD
ENDROOT
BRANCH   8  24
HETATM   24  N3  UNL     1      20.948   1.846  52.797  1.00  0.00    -0.354 N 
HETATM   25  H2  UNL     1      20.750   2.323  53.726  1.00  0.00     0.166 HD
BRANCH  24  26
HETATM   26  C7  UNL     1      20.140   1.950  51.631  1.00  0.00     0.032 A 
HETATM   27  C8  UNL     1      20.412   1.151  50.530  1.00  0.00     0.032 A 
HETATM   28  C9  UNL     1      19.549   1.359  49.476  1.00  0.00     0.044 A 
HETATM   29  C10 UNL     1      18.505   2.242  49.435  1.00  0.00     0.116 A 
HETATM   30  F1  UNL     1      17.714   2.368  48.340  1.00  0.00    -0.206 F 
HETATM   31  C11 UNL     1      18.305   3.001  50.581  1.00  0.00     0.044 A 
HETATM   32  C12 UNL     1      19.117   2.874  51.706  1.00  0.00     0.032 A 
ENDBRANCH  24  26
ENDBRANCH   8  24
TORSDOF 2
ENDMDL
MODEL 8
REMARK VINA RESULT:      -8.4      2.405      4.749
REMARK  2 active torsions:
REMARK  status: ('A' for Active; 'I' for Inactive)
REMARK    1  A    between atoms: C6_8  and  N3_9 
REMARK    2  A    between atoms: N3_9  and  C7_10 
ROOT
HETATM    1  N1  UNL     1      27.163   3.613  49.717  1.00  0.00    -0.191 NA
HETATM    2  C1  UNL     1      26.017   3.581  49.794  1.00  0.00     0.103 C 
HETATM    3  C2  UNL     1      24.590   3.525  49.884  1.00  0.00     0.089 A 
HETATM    4  C3  UNL     1      23.729   3.909  48.883  1.00  0.00     0.142 A 
HETATM    5  N2  UNL     1      22.392   3.839  49.011  1.00  0.00    -0.259 NA
HETATM    6  C4  UNL     1      21.766   3.395  50.110  1.00  0.00     0.072 A 
HETATM    7  C5  UNL     1      22.555   2.989  51.159  1.00  0.00     0.023 A 
HETATM    8  C6  UNL     1      23.910   3.065  51.022  1.00  0.00     0.067 A 
HETATM    9  C13 UNL     1      22.175   2.437  52.450  1.00  0.00     0.044 C 
HETATM   10  P1  UNL     1      21.883   1.187  53.464  1.00  0.00     0.028 P 
HETATM   11  N4  UNL     1      21.975  -0.561  53.221  1.00  0.00    -0.288 NA
HETATM   12  C14 UNL     1      21.129  -1.309  54.121  1.00  0.00     0.119 C 
HETATM   13  C15 UNL     1      19.724  -1.223  53.709  1.00  0.00    -0.007 C 
HETATM   14  C16 UNL     1      18.927  -0.765  52.794  1.00  0.00     0.073 C 
HETATM   15  C17 UNL     1      18.905  -0.021  51.549  1.00  0.00     0.264 C 
HETATM   16  O1  UNL     1      18.217   0.472  50.625  1.00  0.00    -0.266 OA
HETATM   17  N5  UNL     1      19.833   0.585  50.660  1.00  0.00    -0.224 N 
HETATM   18  O2  UNL     1      19.573   1.264  49.491  1.00  0.00    -0.223 OA
HETATM   19  C18 UNL     1      19.370   2.637  49.604  1.00  0.00     0.170 C 
HETATM   20 CL1  UNL     1      17.739   3.222  49.378  1.00  0.00    -0.054 Cl
HETATM   21  C19 UNL     1      20.337   3.491  49.867  1.00  0.00     0.084 C 
HETATM   22  H8  UNL     1      22.978  -0.817  53.298  1.00  0.00     0.127 HD
HETATM   23  H13 UNL     1      20.857   0.736  50.533  1.00  0.00     0.198 HD
ENDROOT
BRANCH   8  24
HETATM   24  N3  UNL     1      24.679   2.666  52.151  1.00  0.00    -0.354 N 
HETATM   25  H2  UNL     1      24.313   3.363  52.865  1.00  0.00     0.166 HD
BRANCH  24  26
HETATM   26  C7  UNL     1      25.663   1.671  52.402  1.00  0.00     0.032 A 
HETATM   27  C8  UNL     1      25.426   0.356  52.030  1.00  0.00     0.032 A 
HETATM   28  C9  UNL     1      26.466  -0.495  52.334  1.00  0.00     0.044 A 
HETATM   29  C10 UNL     1      27.646  -0.162  52.940  1.00  0.00     0.116 A 
HETATM   30  F1  UNL     1      28.608  -1.084  53.193  1.00  0.00    -0.206 F 
HETATM   31  C11 UNL     1      27.800   1.177  53.276  1.00  0.00     0.044 A 
HETATM   32  C12 UNL     1      26.814   2.125  53.016  1.00  0.00     0.032 A 
ENDBRANCH  24  26
ENDBRANCH   8  24
TORSDOF 2
ENDMDL
MODEL 9
REMARK VINA RESULT:      -8.4      4.432      7.836
REMARK  2 active torsions:
REMARK  status: ('A' for Active; 'I' for Inactive)
REMARK    1  A    between atoms: C6_8  and  N3_9 
REMARK    2  A    between atoms: N3_9  and  C7_10 
ROOT
HETATM    1  N1  UNL     1      24.464   6.643  49.445  1.00  0.00    -0.191 NA
HETATM    2  C1  UNL     1      24.766   5.593  49.801  1.00  0.00     0.103 C 
HETATM    3  C2  UNL     1      25.142   4.290  50.259  1.00  0.00     0.089 A 
HETATM    4  C3  UNL     1      26.437   3.877  50.458  1.00  0.00     0.142 A 
HETATM    5  N2  UNL     1      26.746   2.641  50.891  1.00  0.00    -0.259 NA
HETATM    6  C4  UNL     1      25.837   1.696  51.170  1.00  0.00     0.072 A 
HETATM    7  C5  UNL     1      24.515   2.030  50.999  1.00  0.00     0.023 A 
HETATM    8  C6  UNL     1      24.211   3.284  50.558  1.00  0.00     0.067 A 
HETATM    9  C13 UNL     1      23.317   1.242  51.247  1.00  0.00     0.044 C 
HETATM   10  P1  UNL     1      22.062   0.765  52.181  1.00  0.00     0.028 P 
HETATM   11  N4  UNL     1      21.573   1.239  53.812  1.00  0.00    -0.288 NA
HETATM   12  C14 UNL     1      20.792   0.232  54.491  1.00  0.00     0.119 C 
HETATM   13  C15 UNL     1      21.647  -0.864  54.958  1.00  0.00    -0.007 C 
HETATM   14  C16 UNL     1      22.876  -1.269  55.044  1.00  0.00     0.073 C 
HETATM   15  C17 UNL     1      24.241  -0.891  54.732  1.00  0.00     0.264 C 
HETATM   16  O1  UNL     1      25.455  -1.201  54.757  1.00  0.00    -0.266 OA
HETATM   17  N5  UNL     1      24.930   0.208  54.153  1.00  0.00    -0.224 N 
HETATM   18  O2  UNL     1      26.285   0.352  53.950  1.00  0.00    -0.223 OA
HETATM   19  C18 UNL     1      26.780  -0.105  52.731  1.00  0.00     0.170 C 
HETATM   20 CL1  UNL     1      27.741  -1.564  52.760  1.00  0.00    -0.054 Cl
HETATM   21  C19 UNL     1      26.558   0.506  51.586  1.00  0.00     0.084 C 
HETATM   22  H8  UNL     1      21.074   2.146  53.718  1.00  0.00     0.127 HD
HETATM   23  H13 UNL     1      24.757   1.150  53.741  1.00  0.00     0.198 HD
ENDROOT
BRANCH   8  24
HETATM   24  N3  UNL     1      22.829   3.565  50.364  1.00  0.00    -0.354 N 
HETATM   25  H2  UNL     1      22.588   3.927  51.334  1.00  0.00     0.166 HD
BRANCH  24  26
HETATM   26  C7  UNL     1      21.919   3.450  49.277  1.00  0.00     0.032 A 
HETATM   27  C8  UNL     1      22.402   3.341  47.981  1.00  0.00     0.032 A 
HETATM   28  C9  UNL     1      21.407   3.236  47.034  1.00  0.00     0.044 A 
HETATM   29  C10 UNL     1      20.058   3.233  47.260  1.00  0.00     0.116 A 
HETATM   30  F1  UNL     1      19.160   3.124  46.249  1.00  0.00    -0.206 F 
HETATM   31  C11 UNL     1      19.664   3.345  48.588  1.00  0.00     0.044 A 
HETATM   32  C12 UNL     1      20.583   3.456  49.627  1.00  0.00     0.032 A 
ENDBRANCH  24  26
ENDBRANCH   8  24
TORSDOF 2
ENDMDL
