MODEL 1
REMARK VINA RESULT:      -8.7      0.000      0.000
REMARK  2 active torsions:
REMARK  status: ('A' for Active; 'I' for Inactive)
REMARK    1  A    between atoms: N1_1  and  C1_2 
REMARK    2  A    between atoms: C10_15  and  C11_16 
ROOT
HETATM    1  C1  UNL     1      21.430   2.515  52.185  1.00  0.00     0.385 C 
HETATM    2  C2  UNL     1      20.342   1.559  52.372  1.00  0.00     0.051 C 
HETATM    3  C3  UNL     1      20.374   0.276  52.748  1.00  0.00    -0.006 C 
HETATM    4 BR1  UNL     1      18.585  -0.506  52.823  1.00  0.00    -0.056 Br
HETATM    5  C4  UNL     1      21.825  -0.007  52.968  1.00  0.00     0.041 C 
HETATM    6  C5  UNL     1      22.677  -0.991  53.329  1.00  0.00     0.019 C 
HETATM    7  C6  UNL     1      24.120  -0.705  53.390  1.00  0.00     0.126 C 
HETATM    8  N2  UNL     1      24.550   0.615  53.079  1.00  0.00    -0.384 N 
HETATM    9  C7  UNL     1      24.663   1.530  52.029  1.00  0.00     0.111 A 
HETATM   10  C8  UNL     1      23.705   2.134  51.254  1.00  0.00     0.197 A 
HETATM   11  N3  UNL     1      24.074   2.977  50.276  1.00  0.00    -0.216 NA
HETATM   12  C9  UNL     1      25.343   3.298  49.973  1.00  0.00     0.236 A 
HETATM   13  N4  UNL     1      26.331   2.741  50.697  1.00  0.00    -0.239 NA
HETATM   14  C10 UNL     1      25.984   1.874  51.705  1.00  0.00     0.099 A 
HETATM   15  O1  UNL     1      22.327   2.142  51.166  1.00  0.00    -0.292 OA
HETATM   16  H9  UNL     1      24.935   1.170  53.888  1.00  0.00     0.159 HD
ENDROOT
BRANCH  14  17
HETATM   17  C11 UNL     1      27.116   1.362  52.465  1.00  0.00    -0.004 A 
HETATM   18  C12 UNL     1      27.771   2.359  53.213  1.00  0.00     0.014 A 
HETATM   19  C13 UNL     1      28.881   2.147  54.013  1.00  0.00     0.002 A 
HETATM   20  C14 UNL     1      29.380   0.876  54.083  1.00  0.00     0.019 A 
HETATM   21  C15 UNL     1      28.780  -0.135  53.373  1.00  0.00     0.011 A 
HETATM   22 BR2  UNL     1      29.395  -1.936  53.403  1.00  0.00    -0.051 Br
HETATM   23  C16 UNL     1      27.690   0.144  52.605  1.00  0.00     0.033 A 
ENDBRANCH  14  17
BRANCH   1  24
HETATM   24  N1  UNL     1      20.864   3.837  51.941  1.00  0.00     0.111 N 
HETATM   25  H1  UNL     1      20.944   3.960  50.887  1.00  0.00     0.316 HD
HETATM   26  H2  UNL     1      19.826   3.716  52.092  1.00  0.00     0.316 HD
ENDBRANCH   1  24
TORSDOF 2
ENDMDL
MODEL 2
REMARK VINA RESULT:      -8.3      1.661      6.698
REMARK  2 active torsions:
REMARK  status: ('A' for Active; 'I' for Inactive)
REMARK    1  A    between atoms: N1_1  and  C1_2 
REMARK    2  A    between atoms: C10_15  and  C11_16 
ROOT
HETATM    1  C1  UNL     1      26.128   2.330  51.781  1.00  0.00     0.385 C 
HETATM    2  C2  UNL     1      27.141   1.552  52.489  1.00  0.00     0.051 C 
HETATM    3  C3  UNL     1      27.023   0.431  53.208  1.00  0.00    -0.006 C 
HETATM    4 BR1  UNL     1      28.741  -0.157  53.930  1.00  0.00    -0.056 Br
HETATM    5  C4  UNL     1      25.568   0.097  53.133  1.00  0.00     0.041 C 
HETATM    6  C5  UNL     1      24.659  -0.809  53.554  1.00  0.00     0.019 C 
HETATM    7  C6  UNL     1      23.250  -0.652  53.153  1.00  0.00     0.126 C 
HETATM    8  N2  UNL     1      22.915   0.450  52.317  1.00  0.00    -0.384 N 
HETATM    9  C7  UNL     1      22.820   1.843  52.298  1.00  0.00     0.111 A 
HETATM   10  C8  UNL     1      23.780   2.814  52.443  1.00  0.00     0.197 A 
HETATM   11  N3  UNL     1      23.427   4.109  52.406  1.00  0.00    -0.216 NA
HETATM   12  C9  UNL     1      22.175   4.562  52.233  1.00  0.00     0.236 A 
HETATM   13  N4  UNL     1      21.186   3.662  52.083  1.00  0.00    -0.239 NA
HETATM   14  C10 UNL     1      21.516   2.328  52.116  1.00  0.00     0.099 A 
HETATM   15  O1  UNL     1      25.146   2.869  52.633  1.00  0.00    -0.292 OA
HETATM   16  H9  UNL     1      22.626   0.203  51.334  1.00  0.00     0.159 HD
ENDROOT
BRANCH  14  17
HETATM   17  C11 UNL     1      20.390   1.431  51.895  1.00  0.00    -0.004 A 
HETATM   18  C12 UNL     1      19.789   1.608  50.634  1.00  0.00     0.014 A 
HETATM   19  C13 UNL     1      18.695   0.894  50.172  1.00  0.00     0.002 A 
HETATM   20  C14 UNL     1      18.159  -0.052  51.001  1.00  0.00     0.019 A 
HETATM   21  C15 UNL     1      18.707  -0.264  52.242  1.00  0.00     0.011 A 
HETATM   22 BR2  UNL     1      18.035  -1.556  53.468  1.00  0.00    -0.051 Br
HETATM   23  C16 UNL     1      19.782   0.473  52.632  1.00  0.00     0.033 A 
ENDBRANCH  14  17
BRANCH   1  24
HETATM   24  N1  UNL     1      26.788   3.370  51.000  1.00  0.00     0.111 N 
HETATM   25  H1  UNL     1      26.764   2.996  50.004  1.00  0.00     0.316 HD
HETATM   26  H2  UNL     1      26.096   4.167  50.977  1.00  0.00     0.316 HD
ENDBRANCH   1  24
TORSDOF 2
ENDMDL
MODEL 3
REMARK VINA RESULT:      -7.7      2.648      6.865
REMARK  2 active torsions:
REMARK  status: ('A' for Active; 'I' for Inactive)
REMARK    1  A    between atoms: N1_1  and  C1_2 
REMARK    2  A    between atoms: C10_15  and  C11_16 
ROOT
HETATM    1  C1  UNL     1      25.881  -0.168  54.733  1.00  0.00     0.385 C 
HETATM    2  C2  UNL     1      27.310  -0.266  54.451  1.00  0.00     0.051 C 
HETATM    3  C3  UNL     1      28.031   0.256  53.454  1.00  0.00    -0.006 C 
HETATM    4 BR1  UNL     1      29.920  -0.221  53.594  1.00  0.00    -0.056 Br
HETATM    5  C4  UNL     1      27.036   1.019  52.639  1.00  0.00     0.041 C 
HETATM    6  C5  UNL     1      26.928   1.785  51.533  1.00  0.00     0.019 C 
HETATM    7  C6  UNL     1      25.609   2.326  51.160  1.00  0.00     0.126 C 
HETATM    8  N2  UNL     1      24.504   2.026  52.005  1.00  0.00    -0.384 N 
HETATM    9  C7  UNL     1      23.682   0.981  52.432  1.00  0.00     0.111 A 
HETATM   10  C8  UNL     1      23.968  -0.158  53.143  1.00  0.00     0.197 A 
HETATM   11  N3  UNL     1      22.988  -1.035  53.416  1.00  0.00    -0.216 NA
HETATM   12  C9  UNL     1      21.705  -0.897  53.045  1.00  0.00     0.236 A 
HETATM   13  N4  UNL     1      21.357   0.199  52.347  1.00  0.00    -0.239 NA
HETATM   14  C10 UNL     1      22.338   1.115  52.052  1.00  0.00     0.099 A 
HETATM   15  O1  UNL     1      25.076  -0.737  53.729  1.00  0.00    -0.292 OA
HETATM   16  H9  UNL     1      24.109   2.842  52.543  1.00  0.00     0.159 HD
ENDROOT
BRANCH  14  17
HETATM   17  C11 UNL     1      21.858   2.290  51.338  1.00  0.00    -0.004 A 
HETATM   18  C12 UNL     1      20.942   3.052  52.089  1.00  0.00     0.014 A 
HETATM   19  C13 UNL     1      20.325   4.210  51.646  1.00  0.00     0.002 A 
HETATM   20  C14 UNL     1      20.627   4.647  50.387  1.00  0.00     0.019 A 
HETATM   21  C15 UNL     1      21.514   3.943  49.611  1.00  0.00     0.011 A 
HETATM   22 BR2  UNL     1      22.001   4.468  47.847  1.00  0.00    -0.051 Br
HETATM   23  C16 UNL     1      22.085   2.811  50.110  1.00  0.00     0.033 A 
ENDBRANCH  14  17
BRANCH   1  24
HETATM   24  N1  UNL     1      25.611  -0.765  56.037  1.00  0.00     0.111 N 
HETATM   25  H1  UNL     1      25.043  -0.023  56.546  1.00  0.00     0.316 HD
HETATM   26  H2  UNL     1      24.902  -1.522  55.843  1.00  0.00     0.316 HD
ENDBRANCH   1  24
TORSDOF 2
ENDMDL
MODEL 4
REMARK VINA RESULT:      -7.7      3.427      4.954
REMARK  2 active torsions:
REMARK  status: ('A' for Active; 'I' for Inactive)
REMARK    1  A    between atoms: N1_1  and  C1_2 
REMARK    2  A    between atoms: C10_15  and  C11_16 
ROOT
HETATM    1  C1  UNL     1      24.080   7.098  50.786  1.00  0.00     0.385 C 
HETATM    2  C2  UNL     1      22.804   7.732  50.466  1.00  0.00     0.051 C 
HETATM    3  C3  UNL     1      21.557   7.260  50.558  1.00  0.00    -0.006 C 
HETATM    4 BR1  UNL     1      20.234   8.575  49.978  1.00  0.00    -0.056 Br
HETATM    5  C4  UNL     1      21.726   5.877  51.100  1.00  0.00     0.041 C 
HETATM    6  C5  UNL     1      21.025   4.782  51.465  1.00  0.00     0.019 C 
HETATM    7  C6  UNL     1      21.748   3.604  51.975  1.00  0.00     0.126 C 
HETATM    8  N2  UNL     1      23.165   3.685  52.076  1.00  0.00    -0.384 N 
HETATM    9  C7  UNL     1      24.332   3.765  51.314  1.00  0.00     0.111 A 
HETATM   10  C8  UNL     1      24.780   4.735  50.452  1.00  0.00     0.197 A 
HETATM   11  N3  UNL     1      25.948   4.567  49.810  1.00  0.00    -0.216 NA
HETATM   12  C9  UNL     1      26.751   3.497  49.939  1.00  0.00     0.236 A 
HETATM   13  N4  UNL     1      26.370   2.511  50.771  1.00  0.00    -0.239 NA
HETATM   14  C10 UNL     1      25.180   2.654  51.441  1.00  0.00     0.099 A 
HETATM   15  O1  UNL     1      24.350   5.965  49.996  1.00  0.00    -0.292 OA
HETATM   16  H9  UNL     1      23.550   3.699  53.058  1.00  0.00     0.159 HD
ENDROOT
BRANCH  14  17
HETATM   17  C11 UNL     1      24.876   1.562  52.355  1.00  0.00    -0.004 A 
HETATM   18  C12 UNL     1      25.952   1.245  53.207  1.00  0.00     0.014 A 
HETATM   19  C13 UNL     1      25.936   0.243  54.162  1.00  0.00     0.002 A 
HETATM   20  C14 UNL     1      24.792  -0.496  54.288  1.00  0.00     0.019 A 
HETATM   21  C15 UNL     1      23.713  -0.230  53.482  1.00  0.00     0.011 A 
HETATM   22 BR2  UNL     1      22.078  -1.198  53.578  1.00  0.00    -0.051 Br
HETATM   23  C16 UNL     1      23.797   0.772  52.563  1.00  0.00     0.033 A 
ENDBRANCH  14  17
BRANCH   1  24
HETATM   24  N1  UNL     1      25.144   8.090  50.681  1.00  0.00     0.111 N 
HETATM   25  H1  UNL     1      25.785   7.698  49.927  1.00  0.00     0.316 HD
HETATM   26  H2  UNL     1      24.692   8.918  50.207  1.00  0.00     0.316 HD
ENDBRANCH   1  24
TORSDOF 2
ENDMDL
MODEL 5
REMARK VINA RESULT:      -7.6      3.197      5.927
REMARK  2 active torsions:
REMARK  status: ('A' for Active; 'I' for Inactive)
REMARK    1  A    between atoms: N1_1  and  C1_2 
REMARK    2  A    between atoms: C10_15  and  C11_16 
ROOT
HETATM    1  C1  UNL     1      23.356   6.098  51.559  1.00  0.00     0.385 C 
HETATM    2  C2  UNL     1      22.477   6.983  50.801  1.00  0.00     0.051 C 
HETATM    3  C3  UNL     1      21.229   6.791  50.361  1.00  0.00    -0.006 C 
HETATM    4 BR1  UNL     1      20.551   8.345  49.390  1.00  0.00    -0.056 Br
HETATM    5  C4  UNL     1      20.879   5.417  50.834  1.00  0.00     0.041 C 
HETATM    6  C5  UNL     1      19.882   4.506  50.819  1.00  0.00     0.019 C 
HETATM    7  C6  UNL     1      20.080   3.213  51.497  1.00  0.00     0.126 C 
HETATM    8  N2  UNL     1      21.321   2.992  52.156  1.00  0.00    -0.384 N 
HETATM    9  C7  UNL     1      22.686   2.802  51.926  1.00  0.00     0.111 A 
HETATM   10  C8  UNL     1      23.631   3.632  51.377  1.00  0.00     0.197 A 
HETATM   11  N3  UNL     1      24.896   3.203  51.242  1.00  0.00    -0.216 NA
HETATM   12  C9  UNL     1      25.341   1.990  51.608  1.00  0.00     0.236 A 
HETATM   13  N4  UNL     1      24.465   1.128  52.155  1.00  0.00    -0.239 NA
HETATM   14  C10 UNL     1      23.163   1.539  52.306  1.00  0.00     0.099 A 
HETATM   15  O1  UNL     1      23.682   4.915  50.869  1.00  0.00    -0.292 OA
HETATM   16  H9  UNL     1      21.274   2.945  53.208  1.00  0.00     0.159 HD
ENDROOT
BRANCH  14  17
HETATM   17  C11 UNL     1      22.301   0.558  52.952  1.00  0.00    -0.004 A 
HETATM   18  C12 UNL     1      22.974  -0.207  53.924  1.00  0.00     0.014 A 
HETATM   19  C13 UNL     1      22.395  -1.214  54.679  1.00  0.00     0.002 A 
HETATM   20  C14 UNL     1      21.073  -1.487  54.464  1.00  0.00     0.019 A 
HETATM   21  C15 UNL     1      20.369  -0.771  53.527  1.00  0.00     0.011 A 
HETATM   22 BR2  UNL     1      18.527  -1.073  53.154  1.00  0.00    -0.051 Br
HETATM   23  C16 UNL     1      21.001   0.206  52.820  1.00  0.00     0.033 A 
ENDBRANCH  14  17
BRANCH   1  24
HETATM   24  N1  UNL     1      24.552   6.837  51.949  1.00  0.00     0.111 N 
HETATM   25  H1  UNL     1      25.085   6.153  52.567  1.00  0.00     0.316 HD
HETATM   26  H2  UNL     1      25.138   6.879  51.072  1.00  0.00     0.316 HD
ENDBRANCH   1  24
TORSDOF 2
ENDMDL
MODEL 6
REMARK VINA RESULT:      -7.6      3.640      5.297
REMARK  2 active torsions:
REMARK  status: ('A' for Active; 'I' for Inactive)
REMARK    1  A    between atoms: N1_1  and  C1_2 
REMARK    2  A    between atoms: C10_15  and  C11_16 
ROOT
HETATM    1  C1  UNL     1      22.560   3.257  51.982  1.00  0.00     0.385 C 
HETATM    2  C2  UNL     1      22.734   1.931  52.567  1.00  0.00     0.051 C 
HETATM    3  C3  UNL     1      23.810   1.138  52.607  1.00  0.00    -0.006 C 
HETATM    4 BR1  UNL     1      23.443  -0.543  53.532  1.00  0.00    -0.056 Br
HETATM    5  C4  UNL     1      24.872   1.924  51.907  1.00  0.00     0.041 C 
HETATM    6  C5  UNL     1      26.167   1.864  51.528  1.00  0.00     0.019 C 
HETATM    7  C6  UNL     1      26.759   3.008  50.813  1.00  0.00     0.126 C 
HETATM    8  N2  UNL     1      25.933   4.140  50.570  1.00  0.00    -0.384 N 
HETATM    9  C7  UNL     1      24.825   4.573  49.839  1.00  0.00     0.111 A 
HETATM   10  C8  UNL     1      23.511   4.176  49.874  1.00  0.00     0.197 A 
HETATM   11  N3  UNL     1      22.623   4.740  49.041  1.00  0.00    -0.216 NA
HETATM   12  C9  UNL     1      22.909   5.694  48.140  1.00  0.00     0.236 A 
HETATM   13  N4  UNL     1      24.179   6.130  48.055  1.00  0.00    -0.239 NA
HETATM   14  C10 UNL     1      25.112   5.571  48.896  1.00  0.00     0.099 A 
HETATM   15  O1  UNL     1      22.742   3.276  50.586  1.00  0.00    -0.292 OA
HETATM   16  H9  UNL     1      26.187   5.011  51.107  1.00  0.00     0.159 HD
ENDROOT
BRANCH  14  17
HETATM   17  C11 UNL     1      26.446   6.140  48.766  1.00  0.00    -0.004 A 
HETATM   18  C12 UNL     1      26.486   7.516  49.064  1.00  0.00     0.014 A 
HETATM   19  C13 UNL     1      27.623   8.305  49.009  1.00  0.00     0.002 A 
HETATM   20  C14 UNL     1      28.794   7.704  48.639  1.00  0.00     0.019 A 
HETATM   21  C15 UNL     1      28.812   6.365  48.338  1.00  0.00     0.011 A 
HETATM   22 BR2  UNL     1      30.388   5.436  47.814  1.00  0.00    -0.051 Br
HETATM   23  C16 UNL     1      27.656   5.648  48.412  1.00  0.00     0.033 A 
ENDBRANCH  14  17
BRANCH   1  24
HETATM   24  N1  UNL     1      21.249   3.775  52.358  1.00  0.00     0.111 N 
HETATM   25  H1  UNL     1      21.459   4.447  53.156  1.00  0.00     0.316 HD
HETATM   26  H2  UNL     1      20.978   4.417  51.565  1.00  0.00     0.316 HD
ENDBRANCH   1  24
TORSDOF 2
ENDMDL
MODEL 7
REMARK VINA RESULT:      -7.3      3.357      5.080
REMARK  2 active torsions:
REMARK  status: ('A' for Active; 'I' for Inactive)
REMARK    1  A    between atoms: N1_1  and  C1_2 
REMARK    2  A    between atoms: C10_15  and  C11_16 
ROOT
HETATM    1  C1  UNL     1      20.908   0.676  52.030  1.00  0.00     0.385 C 
HETATM    2  C2  UNL     1      21.316  -0.182  53.138  1.00  0.00     0.051 C 
HETATM    3  C3  UNL     1      22.471  -0.234  53.811  1.00  0.00    -0.006 C 
HETATM    4 BR1  UNL     1      22.440  -1.601  55.207  1.00  0.00    -0.056 Br
HETATM    5  C4  UNL     1      23.311   0.830  53.183  1.00  0.00     0.041 C 
HETATM    6  C5  UNL     1      24.533   1.403  53.251  1.00  0.00     0.019 C 
HETATM    7  C6  UNL     1      24.863   2.501  52.325  1.00  0.00     0.126 C 
HETATM    8  N2  UNL     1      23.861   2.921  51.407  1.00  0.00    -0.384 N 
HETATM    9  C7  UNL     1      23.145   2.514  50.279  1.00  0.00     0.111 A 
HETATM   10  C8  UNL     1      22.252   1.487  50.100  1.00  0.00     0.197 A 
HETATM   11  N3  UNL     1      21.703   1.285  48.892  1.00  0.00    -0.216 NA
HETATM   12  C9  UNL     1      21.954   2.023  47.798  1.00  0.00     0.236 A 
HETATM   13  N4  UNL     1      22.819   3.047  47.906  1.00  0.00    -0.239 NA
HETATM   14  C10 UNL     1      23.398   3.279  49.130  1.00  0.00     0.099 A 
HETATM   15  O1  UNL     1      21.684   0.491  50.870  1.00  0.00    -0.292 OA
HETATM   16  H9  UNL     1      23.461   3.881  51.579  1.00  0.00     0.159 HD
ENDROOT
BRANCH  14  17
HETATM   17  C11 UNL     1      24.280   4.437  49.162  1.00  0.00    -0.004 A 
HETATM   18  C12 UNL     1      25.641   4.094  49.047  1.00  0.00     0.014 A 
HETATM   19  C13 UNL     1      26.689   4.998  49.059  1.00  0.00     0.002 A 
HETATM   20  C14 UNL     1      26.382   6.324  49.193  1.00  0.00     0.019 A 
HETATM   21  C15 UNL     1      25.071   6.714  49.309  1.00  0.00     0.011 A 
HETATM   22 BR2  UNL     1      24.539   8.532  49.499  1.00  0.00    -0.051 Br
HETATM   23  C16 UNL     1      24.089   5.771  49.289  1.00  0.00     0.033 A 
ENDBRANCH  14  17
BRANCH   1  24
HETATM   24  N1  UNL     1      19.489   0.466  51.764  1.00  0.00     0.111 N 
HETATM   25  H1  UNL     1      19.095   0.162  52.705  1.00  0.00     0.316 HD
HETATM   26  H2  UNL     1      19.095   1.436  51.637  1.00  0.00     0.316 HD
ENDBRANCH   1  24
TORSDOF 2
ENDMDL
MODEL 8
REMARK VINA RESULT:      -7.3      3.884      7.210
REMARK  2 active torsions:
REMARK  status: ('A' for Active; 'I' for Inactive)
REMARK    1  A    between atoms: N1_1  and  C1_2 
REMARK    2  A    between atoms: C10_15  and  C11_16 
ROOT
HETATM    1  C1  UNL     1      25.110   7.113  48.081  1.00  0.00     0.385 C 
HETATM    2  C2  UNL     1      26.557   7.202  47.902  1.00  0.00     0.051 C 
HETATM    3  C3  UNL     1      27.523   6.340  48.235  1.00  0.00    -0.006 C 
HETATM    4 BR1  UNL     1      29.294   7.005  47.746  1.00  0.00    -0.056 Br
HETATM    5  C4  UNL     1      26.794   5.189  48.850  1.00  0.00     0.041 C 
HETATM    6  C5  UNL     1      26.995   3.981  49.419  1.00  0.00     0.019 C 
HETATM    7  C6  UNL     1      25.833   3.203  49.883  1.00  0.00     0.126 C 
HETATM    8  N2  UNL     1      24.539   3.762  49.691  1.00  0.00    -0.384 N 
HETATM    9  C7  UNL     1      23.702   4.800  50.108  1.00  0.00     0.111 A 
HETATM   10  C8  UNL     1      23.824   6.161  49.985  1.00  0.00     0.197 A 
HETATM   11  N3  UNL     1      22.876   6.963  50.497  1.00  0.00    -0.216 NA
HETATM   12  C9  UNL     1      21.777   6.542  51.144  1.00  0.00     0.236 A 
HETATM   13  N4  UNL     1      21.596   5.218  51.297  1.00  0.00    -0.239 NA
HETATM   14  C10 UNL     1      22.548   4.372  50.784  1.00  0.00     0.099 A 
HETATM   15  O1  UNL     1      24.721   7.054  49.432  1.00  0.00    -0.292 OA
HETATM   16  H9  UNL     1      23.931   3.268  48.986  1.00  0.00     0.159 HD
ENDROOT
BRANCH  14  17
HETATM   17  C11 UNL     1      22.242   2.958  50.954  1.00  0.00    -0.004 A 
HETATM   18  C12 UNL     1      21.461   2.437  49.904  1.00  0.00     0.014 A 
HETATM   19  C13 UNL     1      21.020   1.127  49.821  1.00  0.00     0.002 A 
HETATM   20  C14 UNL     1      21.367   0.275  50.834  1.00  0.00     0.019 A 
HETATM   21  C15 UNL     1      22.127   0.732  51.882  1.00  0.00     0.011 A 
HETATM   22 BR2  UNL     1      22.663  -0.371  53.338  1.00  0.00    -0.051 Br
HETATM   23  C16 UNL     1      22.527   2.033  51.900  1.00  0.00     0.033 A 
ENDBRANCH  14  17
BRANCH   1  24
HETATM   24  N1  UNL     1      24.477   8.231  47.391  1.00  0.00     0.111 N 
HETATM   25  H1  UNL     1      23.616   8.442  47.981  1.00  0.00     0.316 HD
HETATM   26  H2  UNL     1      25.109   9.055  47.580  1.00  0.00     0.316 HD
ENDBRANCH   1  24
TORSDOF 2
ENDMDL
MODEL 9
REMARK VINA RESULT:      -7.2      3.222      6.105
REMARK  2 active torsions:
REMARK  status: ('A' for Active; 'I' for Inactive)
REMARK    1  A    between atoms: N1_1  and  C1_2 
REMARK    2  A    between atoms: C10_15  and  C11_16 
ROOT
HETATM    1  C1  UNL     1      25.064   5.807  49.845  1.00  0.00     0.385 C 
HETATM    2  C2  UNL     1      24.528   6.436  48.642  1.00  0.00     0.051 C 
HETATM    3  C3  UNL     1      23.463   6.115  47.900  1.00  0.00    -0.006 C 
HETATM    4 BR1  UNL     1      23.234   7.331  46.388  1.00  0.00    -0.056 Br
HETATM    5  C4  UNL     1      22.881   4.923  48.588  1.00  0.00     0.041 C 
HETATM    6  C5  UNL     1      21.869   4.032  48.505  1.00  0.00     0.019 C 
HETATM    7  C6  UNL     1      21.752   2.980  49.530  1.00  0.00     0.126 C 
HETATM    8  N2  UNL     1      22.712   2.965  50.580  1.00  0.00    -0.384 N 
HETATM    9  C7  UNL     1      24.063   2.735  50.850  1.00  0.00     0.111 A 
HETATM   10  C8  UNL     1      25.191   3.391  50.425  1.00  0.00     0.197 A 
HETATM   11  N3  UNL     1      26.400   2.956  50.814  1.00  0.00    -0.216 NA
HETATM   12  C9  UNL     1      26.618   1.897  51.611  1.00  0.00     0.236 A 
HETATM   13  N4  UNL     1      25.554   1.211  52.065  1.00  0.00    -0.239 NA
HETATM   14  C10 UNL     1      24.303   1.632  51.684  1.00  0.00     0.099 A 
HETATM   15  O1  UNL     1      25.493   4.483  49.635  1.00  0.00    -0.292 OA
HETATM   16  H9  UNL     1      22.343   3.212  51.536  1.00  0.00     0.159 HD
ENDROOT
BRANCH  14  17
HETATM   17  C11 UNL     1      23.213   0.860  52.263  1.00  0.00    -0.004 A 
HETATM   18  C12 UNL     1      23.639  -0.005  53.289  1.00  0.00     0.014 A 
HETATM   19  C13 UNL     1      22.812  -0.859  54.000  1.00  0.00     0.002 A 
HETATM   20  C14 UNL     1      21.482  -0.863  53.682  1.00  0.00     0.019 A 
HETATM   21  C15 UNL     1      21.013  -0.040  52.689  1.00  0.00     0.011 A 
HETATM   22 BR2  UNL     1      19.182   0.030  52.172  1.00  0.00    -0.051 Br
HETATM   23  C16 UNL     1      21.883   0.775  52.030  1.00  0.00     0.033 A 
ENDBRANCH  14  17
BRANCH   1  24
HETATM   24  N1  UNL     1      26.137   6.638  50.379  1.00  0.00     0.111 N 
HETATM   25  H1  UNL     1      25.711   7.613  50.415  1.00  0.00     0.316 HD
HETATM   26  H2  UNL     1      26.206   6.366  51.396  1.00  0.00     0.316 HD
ENDBRANCH   1  24
TORSDOF 2
ENDMDL
