MODEL 1
REMARK VINA RESULT:      -8.6      0.000      0.000
REMARK  7 active torsions:
REMARK  status: ('A' for Active; 'I' for Inactive)
REMARK    1  A    between atoms: C2_2  and  N1_3 
REMARK    2  A    between atoms: N1_3  and  C4_5 
REMARK    3  A    between atoms: C4_5  and  C5_6 
REMARK    4  A    between atoms: C6_7  and  C7_8 
REMARK       I    between atoms: C7_8  and  N2_10 
REMARK    5  A    between atoms: N2_10  and  C8_11 
REMARK    6  A    between atoms: C11_14  and  N3_15 
REMARK    7  A    between atoms: N3_15  and  C12_16 
ROOT
HETATM    1  C8  UNL     1      24.243   3.213  50.078  1.00  0.00     0.131 A 
HETATM    2  C9  UNL     1      24.609   2.531  51.216  1.00  0.00     0.068 A 
HETATM    3  C10 UNL     1      23.837   1.545  51.778  1.00  0.00     0.044 A 
HETATM    4  C11 UNL     1      24.149   0.806  52.899  1.00  0.00     0.142 A 
HETATM    5  N4  UNL     1      23.333  -0.143  53.343  1.00  0.00    -0.224 NA
HETATM    6  C18 UNL     1      22.154  -0.428  52.717  1.00  0.00     0.236 A 
HETATM    7  N5  UNL     1      21.814   0.267  51.626  1.00  0.00    -0.240 NA
HETATM    8  C19 UNL     1      22.639   1.222  51.179  1.00  0.00     0.089 A 
HETATM    9  C20 UNL     1      22.322   1.946  50.036  1.00  0.00     0.151 A 
HETATM   10  N6  UNL     1      23.094   2.920  49.486  1.00  0.00    -0.241 NA
ENDROOT
BRANCH   1  11
HETATM   11  N2  UNL     1      25.125   4.193  49.547  1.00  0.00    -0.301 N 
HETATM   12  C7  UNL     1      26.492   4.050  49.245  1.00  0.00     0.302 C 
HETATM   13  O1  UNL     1      27.014   2.924  49.461  1.00  0.00    -0.258 OA
HETATM   14  H11 UNL     1      24.746   5.166  49.333  1.00  0.00     0.171 HD
BRANCH  12  15
HETATM   15  C6  UNL     1      27.257   5.155  48.717  1.00  0.00    -0.004 C 
HETATM   16  C5  UNL     1      27.912   6.075  48.260  1.00  0.00    -0.077 C 
BRANCH  16  17
HETATM   17  C4  UNL     1      28.730   7.186  47.715  1.00  0.00     0.211 C 
BRANCH  17  18
HETATM   18  N1  UNL     1      28.747   8.187  48.729  1.00  0.00    -0.407 N 
HETATM   19  C3  UNL     1      29.998   8.850  48.936  1.00  0.00     0.144 C 
BRANCH  18  20
HETATM   20  C2  UNL     1      27.579   9.003  48.808  1.00  0.00     0.113 C 
HETATM   21  C1  UNL     1      27.238   9.205  50.267  1.00  0.00     0.026 C 
ENDBRANCH  18  20
ENDBRANCH  17  18
ENDBRANCH  16  17
ENDBRANCH  12  15
ENDBRANCH   1  11
BRANCH   4  22
HETATM   22  N3  UNL     1      25.356   1.126  53.575  1.00  0.00    -0.340 N 
HETATM   23  H13 UNL     1      25.454   1.878  54.286  1.00  0.00     0.167 HD
BRANCH  22  24
HETATM   24  C12 UNL     1      26.696   0.637  53.574  1.00  0.00     0.035 A 
HETATM   25  C13 UNL     1      27.657   1.602  53.843  1.00  0.00     0.032 A 
HETATM   26  C14 UNL     1      28.985   1.175  53.844  1.00  0.00     0.046 A 
HETATM   27  C15 UNL     1      29.333  -0.133  53.591  1.00  0.00     0.138 A 
HETATM   28  F1  UNL     1      30.600  -0.605  53.580  1.00  0.00    -0.204 F 
HETATM   29  C16 UNL     1      28.382  -1.091  53.323  1.00  0.00     0.074 A 
HETATM   30 CL1  UNL     1      28.606  -2.791  52.968  1.00  0.00    -0.081 Cl
HETATM   31  C17 UNL     1      27.050  -0.686  53.318  1.00  0.00     0.056 A 
ENDBRANCH  22  24
ENDBRANCH   4  22
TORSDOF 7
ENDMDL
MODEL 2
REMARK VINA RESULT:      -8.5      0.972      1.538
REMARK  7 active torsions:
REMARK  status: ('A' for Active; 'I' for Inactive)
REMARK    1  A    between atoms: C2_2  and  N1_3 
REMARK    2  A    between atoms: N1_3  and  C4_5 
REMARK    3  A    between atoms: C4_5  and  C5_6 
REMARK    4  A    between atoms: C6_7  and  C7_8 
REMARK       I    between atoms: C7_8  and  N2_10 
REMARK    5  A    between atoms: N2_10  and  C8_11 
REMARK    6  A    between atoms: C11_14  and  N3_15 
REMARK    7  A    between atoms: N3_15  and  C12_16 
ROOT
HETATM    1  C8  UNL     1      24.105   3.079  50.270  1.00  0.00     0.131 A 
HETATM    2  C9  UNL     1      24.505   2.413  51.407  1.00  0.00     0.068 A 
HETATM    3  C10 UNL     1      23.780   1.391  51.967  1.00  0.00     0.044 A 
HETATM    4  C11 UNL     1      24.128   0.665  53.086  1.00  0.00     0.142 A 
HETATM    5  N4  UNL     1      23.358  -0.323  53.529  1.00  0.00    -0.224 NA
HETATM    6  C18 UNL     1      22.194  -0.662  52.903  1.00  0.00     0.236 A 
HETATM    7  N5  UNL     1      21.819   0.019  51.815  1.00  0.00    -0.240 NA
HETATM    8  C19 UNL     1      22.598   1.013  51.369  1.00  0.00     0.089 A 
HETATM    9  C20 UNL     1      22.246   1.724  50.227  1.00  0.00     0.151 A 
HETATM   10  N6  UNL     1      22.970   2.733  49.679  1.00  0.00    -0.241 NA
ENDROOT
BRANCH   1  11
HETATM   11  N2  UNL     1      24.939   4.101  49.740  1.00  0.00    -0.301 N 
HETATM   12  C7  UNL     1      26.284   3.995  49.340  1.00  0.00     0.302 C 
HETATM   13  O1  UNL     1      26.831   2.866  49.454  1.00  0.00    -0.258 OA
HETATM   14  H11 UNL     1      24.537   5.079  49.609  1.00  0.00     0.171 HD
BRANCH  12  15
HETATM   15  C6  UNL     1      27.001   5.139  48.828  1.00  0.00    -0.004 C 
HETATM   16  C5  UNL     1      27.598   6.115  48.407  1.00  0.00    -0.077 C 
BRANCH  16  17
HETATM   17  C4  UNL     1      28.302   7.311  47.885  1.00  0.00     0.211 C 
BRANCH  17  18
HETATM   18  N1  UNL     1      29.553   6.840  47.392  1.00  0.00    -0.407 N 
HETATM   19  C3  UNL     1      30.170   7.640  46.380  1.00  0.00     0.144 C 
BRANCH  18  20
HETATM   20  C2  UNL     1      30.425   6.273  48.368  1.00  0.00     0.113 C 
HETATM   21  C1  UNL     1      31.128   5.088  47.745  1.00  0.00     0.026 C 
ENDBRANCH  18  20
ENDBRANCH  17  18
ENDBRANCH  16  17
ENDBRANCH  12  15
ENDBRANCH   1  11
BRANCH   4  22
HETATM   22  N3  UNL     1      25.320   1.039  53.761  1.00  0.00    -0.340 N 
HETATM   23  H13 UNL     1      25.368   1.730  54.536  1.00  0.00     0.167 HD
BRANCH  22  24
HETATM   24  C12 UNL     1      26.700   0.687  53.685  1.00  0.00     0.035 A 
HETATM   25  C13 UNL     1      27.573   1.753  53.850  1.00  0.00     0.032 A 
HETATM   26  C14 UNL     1      28.934   1.461  53.774  1.00  0.00     0.046 A 
HETATM   27  C15 UNL     1      29.398   0.184  53.546  1.00  0.00     0.138 A 
HETATM   28  F1  UNL     1      30.702  -0.160  53.464  1.00  0.00    -0.204 F 
HETATM   29  C16 UNL     1      28.533  -0.874  53.381  1.00  0.00     0.074 A 
HETATM   30 CL1  UNL     1      28.906  -2.558  53.074  1.00  0.00    -0.081 Cl
HETATM   31  C17 UNL     1      27.169  -0.605  53.453  1.00  0.00     0.056 A 
ENDBRANCH  22  24
ENDBRANCH   4  22
TORSDOF 7
ENDMDL
MODEL 3
REMARK VINA RESULT:      -8.2      4.265      9.363
REMARK  7 active torsions:
REMARK  status: ('A' for Active; 'I' for Inactive)
REMARK    1  A    between atoms: C2_2  and  N1_3 
REMARK    2  A    between atoms: N1_3  and  C4_5 
REMARK    3  A    between atoms: C4_5  and  C5_6 
REMARK    4  A    between atoms: C6_7  and  C7_8 
REMARK       I    between atoms: C7_8  and  N2_10 
REMARK    5  A    between atoms: N2_10  and  C8_11 
REMARK    6  A    between atoms: C11_14  and  N3_15 
REMARK    7  A    between atoms: N3_15  and  C12_16 
ROOT
HETATM    1  C8  UNL     1      23.508  -0.462  53.683  1.00  0.00     0.131 A 
HETATM    2  C9  UNL     1      24.419   0.198  52.890  1.00  0.00     0.068 A 
HETATM    3  C10 UNL     1      25.734   0.369  53.246  1.00  0.00     0.044 A 
HETATM    4  C11 UNL     1      26.705   0.997  52.496  1.00  0.00     0.142 A 
HETATM    5  N4  UNL     1      27.957   1.086  52.931  1.00  0.00    -0.224 NA
HETATM    6  C18 UNL     1      28.337   0.565  54.134  1.00  0.00     0.236 A 
HETATM    7  N5  UNL     1      27.425  -0.051  54.893  1.00  0.00    -0.240 NA
HETATM    8  C19 UNL     1      26.164  -0.141  54.452  1.00  0.00     0.089 A 
HETATM    9  C20 UNL     1      25.199  -0.794  55.208  1.00  0.00     0.151 A 
HETATM   10  N6  UNL     1      23.900  -0.960  54.847  1.00  0.00    -0.241 NA
ENDROOT
BRANCH   1  11
HETATM   11  N2  UNL     1      22.176  -0.624  53.215  1.00  0.00    -0.301 N 
HETATM   12  C7  UNL     1      20.983  -0.252  53.863  1.00  0.00     0.302 C 
HETATM   13  O1  UNL     1      21.089   0.296  54.992  1.00  0.00    -0.258 OA
HETATM   14  H11 UNL     1      22.015  -1.074  52.262  1.00  0.00     0.171 HD
BRANCH  12  15
HETATM   15  C6  UNL     1      19.697  -0.498  53.254  1.00  0.00    -0.004 C 
HETATM   16  C5  UNL     1      18.620  -0.715  52.727  1.00  0.00    -0.077 C 
BRANCH  16  17
HETATM   17  C4  UNL     1      17.316  -0.965  52.067  1.00  0.00     0.211 C 
BRANCH  17  18
HETATM   18  N1  UNL     1      16.656  -1.941  52.869  1.00  0.00    -0.407 N 
HETATM   19  C3  UNL     1      15.440  -2.473  52.336  1.00  0.00     0.144 C 
BRANCH  18  20
HETATM   20  C2  UNL     1      17.510  -2.866  53.539  1.00  0.00     0.113 C 
HETATM   21  C1  UNL     1      16.901  -4.245  53.423  1.00  0.00     0.026 C 
ENDBRANCH  18  20
ENDBRANCH  17  18
ENDBRANCH  16  17
ENDBRANCH  12  15
ENDBRANCH   1  11
BRANCH   4  22
HETATM   22  N3  UNL     1      26.304   1.573  51.262  1.00  0.00    -0.340 N 
HETATM   23  H13 UNL     1      26.269   1.065  50.356  1.00  0.00     0.167 HD
BRANCH  22  24
HETATM   24  C12 UNL     1      25.856   2.854  50.821  1.00  0.00     0.035 A 
HETATM   25  C13 UNL     1      26.630   3.418  49.817  1.00  0.00     0.032 A 
HETATM   26  C14 UNL     1      26.237   4.675  49.359  1.00  0.00     0.046 A 
HETATM   27  C15 UNL     1      25.139   5.330  49.872  1.00  0.00     0.138 A 
HETATM   28  F1  UNL     1      24.710   6.546  49.467  1.00  0.00    -0.204 F 
HETATM   29  C16 UNL     1      24.371   4.773  50.868  1.00  0.00     0.074 A 
HETATM   30 CL1  UNL     1      22.955   5.433  51.660  1.00  0.00    -0.081 Cl
HETATM   31  C17 UNL     1      24.745   3.518  51.339  1.00  0.00     0.056 A 
ENDBRANCH  22  24
ENDBRANCH   4  22
TORSDOF 7
ENDMDL
MODEL 4
REMARK VINA RESULT:      -8.1      4.296      8.956
REMARK  7 active torsions:
REMARK  status: ('A' for Active; 'I' for Inactive)
REMARK    1  A    between atoms: C2_2  and  N1_3 
REMARK    2  A    between atoms: N1_3  and  C4_5 
REMARK    3  A    between atoms: C4_5  and  C5_6 
REMARK    4  A    between atoms: C6_7  and  C7_8 
REMARK       I    between atoms: C7_8  and  N2_10 
REMARK    5  A    between atoms: N2_10  and  C8_11 
REMARK    6  A    between atoms: C11_14  and  N3_15 
REMARK    7  A    between atoms: N3_15  and  C12_16 
ROOT
HETATM    1  C8  UNL     1      23.048  -0.856  54.035  1.00  0.00     0.131 A 
HETATM    2  C9  UNL     1      23.948  -0.192  53.232  1.00  0.00     0.068 A 
HETATM    3  C10 UNL     1      25.257   0.015  53.589  1.00  0.00     0.044 A 
HETATM    4  C11 UNL     1      26.217   0.649  52.830  1.00  0.00     0.142 A 
HETATM    5  N4  UNL     1      27.465   0.774  53.267  1.00  0.00    -0.224 NA
HETATM    6  C18 UNL     1      27.852   0.286  54.482  1.00  0.00     0.236 A 
HETATM    7  N5  UNL     1      26.951  -0.335  55.250  1.00  0.00    -0.240 NA
HETATM    8  C19 UNL     1      25.694  -0.461  54.806  1.00  0.00     0.089 A 
HETATM    9  C20 UNL     1      24.740  -1.120  55.572  1.00  0.00     0.151 A 
HETATM   10  N6  UNL     1      23.447  -1.322  55.210  1.00  0.00    -0.241 NA
ENDROOT
BRANCH   1  11
HETATM   11  N2  UNL     1      21.722  -1.057  53.566  1.00  0.00    -0.301 N 
HETATM   12  C7  UNL     1      20.565  -0.335  53.916  1.00  0.00     0.302 C 
HETATM   13  O1  UNL     1      20.703   0.608  54.739  1.00  0.00    -0.258 OA
HETATM   14  H11 UNL     1      21.536  -1.834  52.861  1.00  0.00     0.171 HD
BRANCH  12  15
HETATM   15  C6  UNL     1      19.279  -0.673  53.355  1.00  0.00    -0.004 C 
HETATM   16  C5  UNL     1      18.186  -0.942  52.886  1.00  0.00    -0.077 C 
BRANCH  16  17
HETATM   17  C4  UNL     1      16.847  -1.269  52.338  1.00  0.00     0.211 C 
BRANCH  17  18
HETATM   18  N1  UNL     1      16.487  -0.167  51.511  1.00  0.00    -0.407 N 
HETATM   19  C3  UNL     1      17.178  -0.065  50.263  1.00  0.00     0.144 C 
BRANCH  18  20
HETATM   20  C2  UNL     1      15.098   0.159  51.492  1.00  0.00     0.113 C 
HETATM   21  C1  UNL     1      14.791   1.005  52.707  1.00  0.00     0.026 C 
ENDBRANCH  18  20
ENDBRANCH  17  18
ENDBRANCH  16  17
ENDBRANCH  12  15
ENDBRANCH   1  11
BRANCH   4  22
HETATM   22  N3  UNL     1      25.809   1.191  51.583  1.00  0.00    -0.340 N 
HETATM   23  H13 UNL     1      25.585   0.629  50.738  1.00  0.00     0.167 HD
BRANCH  22  24
HETATM   24  C12 UNL     1      25.569   2.496  51.057  1.00  0.00     0.035 A 
HETATM   25  C13 UNL     1      24.387   3.080  51.492  1.00  0.00     0.032 A 
HETATM   26  C14 UNL     1      24.103   4.353  50.998  1.00  0.00     0.046 A 
HETATM   27  C15 UNL     1      24.945   5.003  50.123  1.00  0.00     0.138 A 
HETATM   28  F1  UNL     1      24.723   6.235  49.613  1.00  0.00    -0.204 F 
HETATM   29  C16 UNL     1      26.116   4.425  49.690  1.00  0.00     0.074 A 
HETATM   30 CL1  UNL     1      27.312   5.066  48.583  1.00  0.00    -0.081 Cl
HETATM   31  C17 UNL     1      26.420   3.155  50.171  1.00  0.00     0.056 A 
ENDBRANCH  22  24
ENDBRANCH   4  22
TORSDOF 7
ENDMDL
MODEL 5
REMARK VINA RESULT:      -8.1      1.791      2.341
REMARK  7 active torsions:
REMARK  status: ('A' for Active; 'I' for Inactive)
REMARK    1  A    between atoms: C2_2  and  N1_3 
REMARK    2  A    between atoms: N1_3  and  C4_5 
REMARK    3  A    between atoms: C4_5  and  C5_6 
REMARK    4  A    between atoms: C6_7  and  C7_8 
REMARK       I    between atoms: C7_8  and  N2_10 
REMARK    5  A    between atoms: N2_10  and  C8_11 
REMARK    6  A    between atoms: C11_14  and  N3_15 
REMARK    7  A    between atoms: N3_15  and  C12_16 
ROOT
HETATM    1  C8  UNL     1      25.433   4.551  49.376  1.00  0.00     0.131 A 
HETATM    2  C9  UNL     1      25.673   3.858  50.541  1.00  0.00     0.068 A 
HETATM    3  C10 UNL     1      24.681   3.241  51.261  1.00  0.00     0.044 A 
HETATM    4  C11 UNL     1      24.849   2.512  52.419  1.00  0.00     0.142 A 
HETATM    5  N4  UNL     1      23.816   1.937  53.023  1.00  0.00    -0.224 NA
HETATM    6  C18 UNL     1      22.547   2.041  52.531  1.00  0.00     0.236 A 
HETATM    7  N5  UNL     1      22.340   2.741  51.410  1.00  0.00    -0.240 NA
HETATM    8  C19 UNL     1      23.385   3.319  50.802  1.00  0.00     0.089 A 
HETATM    9  C20 UNL     1      23.205   4.033  49.623  1.00  0.00     0.151 A 
HETATM   10  N6  UNL     1      24.193   4.640  48.916  1.00  0.00    -0.241 NA
ENDROOT
BRANCH   1  11
HETATM   11  N2  UNL     1      26.529   5.126  48.677  1.00  0.00    -0.301 N 
HETATM   12  C7  UNL     1      27.006   6.448  48.758  1.00  0.00     0.302 C 
HETATM   13  O1  UNL     1      26.405   7.229  49.543  1.00  0.00    -0.258 OA
HETATM   14  H11 UNL     1      27.086   4.519  48.002  1.00  0.00     0.171 HD
BRANCH  12  15
HETATM   15  C6  UNL     1      28.132   6.883  47.967  1.00  0.00    -0.004 C 
HETATM   16  C5  UNL     1      29.091   7.234  47.302  1.00  0.00    -0.077 C 
BRANCH  16  17
HETATM   17  C4  UNL     1      30.272   7.662  46.514  1.00  0.00     0.211 C 
BRANCH  17  18
HETATM   18  N1  UNL     1      31.284   7.972  47.468  1.00  0.00    -0.407 N 
HETATM   19  C3  UNL     1      30.949   8.970  48.436  1.00  0.00     0.144 C 
BRANCH  18  20
HETATM   20  C2  UNL     1      32.042   6.861  47.943  1.00  0.00     0.113 C 
HETATM   21  C1  UNL     1      31.971   6.849  49.454  1.00  0.00     0.026 C 
ENDBRANCH  18  20
ENDBRANCH  17  18
ENDBRANCH  16  17
ENDBRANCH  12  15
ENDBRANCH   1  11
BRANCH   4  22
HETATM   22  N3  UNL     1      26.162   2.433  52.955  1.00  0.00    -0.340 N 
HETATM   23  H13 UNL     1      26.693   3.239  53.341  1.00  0.00     0.167 HD
BRANCH  22  24
HETATM   24  C12 UNL     1      27.128   1.405  53.162  1.00  0.00     0.035 A 
HETATM   25  C13 UNL     1      28.333   1.849  53.690  1.00  0.00     0.032 A 
HETATM   26  C14 UNL     1      29.314   0.881  53.902  1.00  0.00     0.046 A 
HETATM   27  C15 UNL     1      29.108  -0.448  53.604  1.00  0.00     0.138 A 
HETATM   28  F1  UNL     1      30.019  -1.429  53.789  1.00  0.00    -0.204 F 
HETATM   29  C16 UNL     1      27.915  -0.890  53.080  1.00  0.00     0.074 A 
HETATM   30 CL1  UNL     1      27.452  -2.516  52.625  1.00  0.00    -0.081 Cl
HETATM   31  C17 UNL     1      26.921   0.060  52.861  1.00  0.00     0.056 A 
ENDBRANCH  22  24
ENDBRANCH   4  22
TORSDOF 7
ENDMDL
MODEL 6
REMARK VINA RESULT:      -8.0      2.383      2.967
REMARK  7 active torsions:
REMARK  status: ('A' for Active; 'I' for Inactive)
REMARK    1  A    between atoms: C2_2  and  N1_3 
REMARK    2  A    between atoms: N1_3  and  C4_5 
REMARK    3  A    between atoms: C4_5  and  C5_6 
REMARK    4  A    between atoms: C6_7  and  C7_8 
REMARK       I    between atoms: C7_8  and  N2_10 
REMARK    5  A    between atoms: N2_10  and  C8_11 
REMARK    6  A    between atoms: C11_14  and  N3_15 
REMARK    7  A    between atoms: N3_15  and  C12_16 
ROOT
HETATM    1  C8  UNL     1      24.160   5.375  50.957  1.00  0.00     0.131 A 
HETATM    2  C9  UNL     1      24.090   4.045  51.303  1.00  0.00     0.068 A 
HETATM    3  C10 UNL     1      22.949   3.458  51.789  1.00  0.00     0.044 A 
HETATM    4  C11 UNL     1      22.799   2.132  52.133  1.00  0.00     0.142 A 
HETATM    5  N4  UNL     1      21.636   1.665  52.574  1.00  0.00    -0.224 NA
HETATM    6  C18 UNL     1      20.543   2.471  52.707  1.00  0.00     0.236 A 
HETATM    7  N5  UNL     1      20.647   3.765  52.385  1.00  0.00    -0.240 NA
HETATM    8  C19 UNL     1      21.820   4.233  51.940  1.00  0.00     0.089 A 
HETATM    9  C20 UNL     1      21.952   5.568  51.577  1.00  0.00     0.151 A 
HETATM   10  N6  UNL     1      23.086   6.140  51.095  1.00  0.00    -0.241 NA
ENDROOT
BRANCH   1  11
HETATM   11  N2  UNL     1      25.375   5.888  50.426  1.00  0.00    -0.301 N 
HETATM   12  C7  UNL     1      25.649   6.252  49.095  1.00  0.00     0.302 C 
HETATM   13  O1  UNL     1      24.716   6.119  48.259  1.00  0.00    -0.258 OA
HETATM   14  H11 UNL     1      26.203   6.033  51.081  1.00  0.00     0.171 HD
BRANCH  12  15
HETATM   15  C6  UNL     1      26.949   6.750  48.712  1.00  0.00    -0.004 C 
HETATM   16  C5  UNL     1      28.042   7.167  48.371  1.00  0.00    -0.077 C 
BRANCH  16  17
HETATM   17  C4  UNL     1      29.380   7.650  47.950  1.00  0.00     0.211 C 
BRANCH  17  18
HETATM   18  N1  UNL     1      30.321   6.823  48.628  1.00  0.00    -0.407 N 
HETATM   19  C3  UNL     1      30.583   5.550  48.032  1.00  0.00     0.144 C 
BRANCH  18  20
HETATM   20  C2  UNL     1      31.445   7.502  49.186  1.00  0.00     0.113 C 
HETATM   21  C1  UNL     1      31.068   8.951  49.399  1.00  0.00     0.026 C 
ENDBRANCH  18  20
ENDBRANCH  17  18
ENDBRANCH  16  17
ENDBRANCH  12  15
ENDBRANCH   1  11
BRANCH   4  22
HETATM   22  N3  UNL     1      23.944   1.298  52.031  1.00  0.00    -0.340 N 
HETATM   23  H13 UNL     1      24.174   0.707  51.207  1.00  0.00     0.167 HD
BRANCH  22  24
HETATM   24  C12 UNL     1      25.063   0.981  52.857  1.00  0.00     0.035 A 
HETATM   25  C13 UNL     1      24.895  -0.153  53.639  1.00  0.00     0.032 A 
HETATM   26  C14 UNL     1      25.958  -0.499  54.472  1.00  0.00     0.046 A 
HETATM   27  C15 UNL     1      27.119   0.242  54.523  1.00  0.00     0.138 A 
HETATM   28  F1  UNL     1      28.182  -0.045  55.307  1.00  0.00    -0.204 F 
HETATM   29  C16 UNL     1      27.288   1.367  53.748  1.00  0.00     0.074 A 
HETATM   30 CL1  UNL     1      28.664   2.447  53.668  1.00  0.00    -0.081 Cl
HETATM   31  C17 UNL     1      26.238   1.730  52.909  1.00  0.00     0.056 A 
ENDBRANCH  22  24
ENDBRANCH   4  22
TORSDOF 7
ENDMDL
MODEL 7
REMARK VINA RESULT:      -7.9      2.285      3.161
REMARK  7 active torsions:
REMARK  status: ('A' for Active; 'I' for Inactive)
REMARK    1  A    between atoms: C2_2  and  N1_3 
REMARK    2  A    between atoms: N1_3  and  C4_5 
REMARK    3  A    between atoms: C4_5  and  C5_6 
REMARK    4  A    between atoms: C6_7  and  C7_8 
REMARK       I    between atoms: C7_8  and  N2_10 
REMARK    5  A    between atoms: N2_10  and  C8_11 
REMARK    6  A    between atoms: C11_14  and  N3_15 
REMARK    7  A    between atoms: N3_15  and  C12_16 
ROOT
HETATM    1  C8  UNL     1      25.111   5.372  49.240  1.00  0.00     0.131 A 
HETATM    2  C9  UNL     1      25.026   4.615  50.387  1.00  0.00     0.068 A 
HETATM    3  C10 UNL     1      23.846   4.091  50.851  1.00  0.00     0.044 A 
HETATM    4  C11 UNL     1      23.690   3.308  51.974  1.00  0.00     0.142 A 
HETATM    5  N4  UNL     1      22.498   2.834  52.319  1.00  0.00    -0.224 NA
HETATM    6  C18 UNL     1      21.379   3.099  51.583  1.00  0.00     0.236 A 
HETATM    7  N5  UNL     1      21.488   3.857  50.487  1.00  0.00    -0.240 NA
HETATM    8  C19 UNL     1      22.691   4.332  50.140  1.00  0.00     0.089 A 
HETATM    9  C20 UNL     1      22.838   5.104  48.994  1.00  0.00     0.151 A 
HETATM   10  N6  UNL     1      24.011   5.618  48.541  1.00  0.00    -0.241 NA
ENDROOT
BRANCH   1  11
HETATM   11  N2  UNL     1      26.383   5.842  48.815  1.00  0.00    -0.301 N 
HETATM   12  C7  UNL     1      27.564   5.098  48.642  1.00  0.00     0.302 C 
HETATM   13  O1  UNL     1      27.506   3.863  48.884  1.00  0.00    -0.258 OA
HETATM   14  H11 UNL     1      26.500   6.876  48.585  1.00  0.00     0.171 HD
BRANCH  12  15
HETATM   15  C6  UNL     1      28.788   5.731  48.212  1.00  0.00    -0.004 C 
HETATM   16  C5  UNL     1      29.812   6.274  47.835  1.00  0.00    -0.077 C 
BRANCH  16  17
HETATM   17  C4  UNL     1      31.059   6.917  47.356  1.00  0.00     0.211 C 
BRANCH  17  18
HETATM   18  N1  UNL     1      31.855   7.134  48.518  1.00  0.00    -0.407 N 
HETATM   19  C3  UNL     1      31.426   8.188  49.385  1.00  0.00     0.144 C 
BRANCH  18  20
HETATM   20  C2  UNL     1      32.350   5.956  49.152  1.00  0.00     0.113 C 
HETATM   21  C1  UNL     1      33.645   5.562  48.477  1.00  0.00     0.026 C 
ENDBRANCH  18  20
ENDBRANCH  17  18
ENDBRANCH  16  17
ENDBRANCH  12  15
ENDBRANCH   1  11
BRANCH   4  22
HETATM   22  N3  UNL     1      24.845   3.060  52.762  1.00  0.00    -0.340 N 
HETATM   23  H13 UNL     1      25.179   3.675  53.531  1.00  0.00     0.167 HD
BRANCH  22  24
HETATM   24  C12 UNL     1      25.847   2.047  52.830  1.00  0.00     0.035 A 
HETATM   25  C13 UNL     1      25.544   0.894  52.119  1.00  0.00     0.032 A 
HETATM   26  C14 UNL     1      26.490  -0.130  52.161  1.00  0.00     0.046 A 
HETATM   27  C15 UNL     1      27.665  -0.012  52.870  1.00  0.00     0.138 A 
HETATM   28  F1  UNL     1      28.618  -0.968  52.946  1.00  0.00    -0.204 F 
HETATM   29  C16 UNL     1      27.966   1.130  53.576  1.00  0.00     0.074 A 
HETATM   30 CL1  UNL     1      29.384   1.480  54.543  1.00  0.00    -0.081 Cl
HETATM   31  C17 UNL     1      27.036   2.165  53.547  1.00  0.00     0.056 A 
ENDBRANCH  22  24
ENDBRANCH   4  22
TORSDOF 7
ENDMDL
MODEL 8
REMARK VINA RESULT:      -7.9      3.459      8.232
REMARK  7 active torsions:
REMARK  status: ('A' for Active; 'I' for Inactive)
REMARK    1  A    between atoms: C2_2  and  N1_3 
REMARK    2  A    between atoms: N1_3  and  C4_5 
REMARK    3  A    between atoms: C4_5  and  C5_6 
REMARK    4  A    between atoms: C6_7  and  C7_8 
REMARK       I    between atoms: C7_8  and  N2_10 
REMARK    5  A    between atoms: N2_10  and  C8_11 
REMARK    6  A    between atoms: C11_14  and  N3_15 
REMARK    7  A    between atoms: N3_15  and  C12_16 
ROOT
HETATM    1  C8  UNL     1      25.359   4.447  49.575  1.00  0.00     0.131 A 
HETATM    2  C9  UNL     1      26.625   4.939  49.351  1.00  0.00     0.068 A 
HETATM    3  C10 UNL     1      26.866   6.083  48.631  1.00  0.00     0.044 A 
HETATM    4  C11 UNL     1      28.099   6.646  48.386  1.00  0.00     0.142 A 
HETATM    5  N4  UNL     1      28.214   7.773  47.693  1.00  0.00    -0.224 NA
HETATM    6  C18 UNL     1      27.122   8.421  47.192  1.00  0.00     0.236 A 
HETATM    7  N5  UNL     1      25.906   7.907  47.406  1.00  0.00    -0.240 NA
HETATM    8  C19 UNL     1      25.794   6.771  48.107  1.00  0.00     0.089 A 
HETATM    9  C20 UNL     1      24.542   6.225  48.364  1.00  0.00     0.151 A 
HETATM   10  N6  UNL     1      24.313   5.093  49.079  1.00  0.00    -0.241 NA
ENDROOT
BRANCH   1  11
HETATM   11  N2  UNL     1      25.204   3.275  50.365  1.00  0.00    -0.301 N 
HETATM   12  C7  UNL     1      24.558   3.153  51.609  1.00  0.00     0.302 C 
HETATM   13  O1  UNL     1      24.046   4.195  52.096  1.00  0.00    -0.258 OA
HETATM   14  H11 UNL     1      25.606   2.356  50.007  1.00  0.00     0.171 HD
BRANCH  12  15
HETATM   15  C6  UNL     1      24.496   1.884  52.294  1.00  0.00    -0.004 C 
HETATM   16  C5  UNL     1      24.431   0.819  52.884  1.00  0.00    -0.077 C 
BRANCH  16  17
HETATM   17  C4  UNL     1      24.365  -0.466  53.621  1.00  0.00     0.211 C 
BRANCH  17  18
HETATM   18  N1  UNL     1      25.712  -0.795  53.948  1.00  0.00    -0.407 N 
HETATM   19  C3  UNL     1      26.537  -1.217  52.859  1.00  0.00     0.144 C 
BRANCH  18  20
HETATM   20  C2  UNL     1      26.332   0.044  54.921  1.00  0.00     0.113 C 
HETATM   21  C1  UNL     1      27.794   0.188  54.562  1.00  0.00     0.026 C 
ENDBRANCH  18  20
ENDBRANCH  17  18
ENDBRANCH  16  17
ENDBRANCH  12  15
ENDBRANCH   1  11
BRANCH   4  22
HETATM   22  N3  UNL     1      29.240   5.954  48.874  1.00  0.00    -0.340 N 
HETATM   23  H13 UNL     1      29.246   5.340  49.712  1.00  0.00     0.167 HD
BRANCH  22  24
HETATM   24  C12 UNL     1      30.607   5.824  48.488  1.00  0.00     0.035 A 
HETATM   25  C13 UNL     1      31.468   6.711  49.121  1.00  0.00     0.032 A 
HETATM   26  C14 UNL     1      32.815   6.629  48.770  1.00  0.00     0.046 A 
HETATM   27  C15 UNL     1      33.276   5.720  47.843  1.00  0.00     0.138 A 
HETATM   28  F1  UNL     1      34.568   5.594  47.465  1.00  0.00    -0.204 F 
HETATM   29  C16 UNL     1      32.425   4.841  47.214  1.00  0.00     0.074 A 
HETATM   30 CL1  UNL     1      32.797   3.625  46.010  1.00  0.00    -0.081 Cl
HETATM   31  C17 UNL     1      31.075   4.905  47.550  1.00  0.00     0.056 A 
ENDBRANCH  22  24
ENDBRANCH   4  22
TORSDOF 7
ENDMDL
MODEL 9
REMARK VINA RESULT:      -7.8      3.579      5.512
REMARK  7 active torsions:
REMARK  status: ('A' for Active; 'I' for Inactive)
REMARK    1  A    between atoms: C2_2  and  N1_3 
REMARK    2  A    between atoms: N1_3  and  C4_5 
REMARK    3  A    between atoms: C4_5  and  C5_6 
REMARK    4  A    between atoms: C6_7  and  C7_8 
REMARK       I    between atoms: C7_8  and  N2_10 
REMARK    5  A    between atoms: N2_10  and  C8_11 
REMARK    6  A    between atoms: C11_14  and  N3_15 
REMARK    7  A    between atoms: N3_15  and  C12_16 
ROOT
HETATM    1  C8  UNL     1      26.274   2.600  51.763  1.00  0.00     0.131 A 
HETATM    2  C9  UNL     1      25.037   2.139  52.155  1.00  0.00     0.068 A 
HETATM    3  C10 UNL     1      24.869   1.027  52.942  1.00  0.00     0.044 A 
HETATM    4  C11 UNL     1      23.668   0.522  53.391  1.00  0.00     0.142 A 
HETATM    5  N4  UNL     1      23.624  -0.553  54.170  1.00  0.00    -0.224 NA
HETATM    6  C18 UNL     1      24.759  -1.205  54.558  1.00  0.00     0.236 A 
HETATM    7  N5  UNL     1      25.945  -0.748  54.143  1.00  0.00    -0.240 NA
HETATM    8  C19 UNL     1      25.987   0.337  53.358  1.00  0.00     0.089 A 
HETATM    9  C20 UNL     1      27.205   0.848  52.929  1.00  0.00     0.151 A 
HETATM   10  N6  UNL     1      27.363   1.951  52.152  1.00  0.00    -0.241 NA
ENDROOT
BRANCH   1  11
HETATM   11  N2  UNL     1      26.353   3.783  50.979  1.00  0.00    -0.301 N 
HETATM   12  C7  UNL     1      26.730   3.898  49.628  1.00  0.00     0.302 C 
HETATM   13  O1  UNL     1      27.032   2.836  49.023  1.00  0.00    -0.258 OA
HETATM   14  H11 UNL     1      26.103   4.716  51.427  1.00  0.00     0.171 HD
BRANCH  12  15
HETATM   15  C6  UNL     1      26.771   5.184  48.974  1.00  0.00    -0.004 C 
HETATM   16  C5  UNL     1      26.803   6.279  48.437  1.00  0.00    -0.077 C 
BRANCH  16  17
HETATM   17  C4  UNL     1      26.816   7.612  47.789  1.00  0.00     0.211 C 
BRANCH  17  18
HETATM   18  N1  UNL     1      27.639   8.435  48.612  1.00  0.00    -0.407 N 
HETATM   19  C3  UNL     1      27.072   8.838  49.862  1.00  0.00     0.144 C 
BRANCH  18  20
HETATM   20  C2  UNL     1      29.025   8.100  48.626  1.00  0.00     0.113 C 
HETATM   21  C1  UNL     1      29.788   9.260  49.227  1.00  0.00     0.026 C 
ENDBRANCH  18  20
ENDBRANCH  17  18
ENDBRANCH  16  17
ENDBRANCH  12  15
ENDBRANCH   1  11
BRANCH   4  22
HETATM   22  N3  UNL     1      22.484   1.175  52.959  1.00  0.00    -0.340 N 
HETATM   23  H13 UNL     1      22.313   2.198  53.030  1.00  0.00     0.167 HD
BRANCH  22  24
HETATM   24  C12 UNL     1      21.255   0.781  52.349  1.00  0.00     0.035 A 
HETATM   25  C13 UNL     1      21.124   1.170  51.023  1.00  0.00     0.032 A 
HETATM   26  C14 UNL     1      19.935   0.816  50.386  1.00  0.00     0.046 A 
HETATM   27  C15 UNL     1      18.938   0.118  51.031  1.00  0.00     0.138 A 
HETATM   28  F1  UNL     1      17.768  -0.253  50.465  1.00  0.00    -0.204 F 
HETATM   29  C16 UNL     1      19.066  -0.267  52.345  1.00  0.00     0.074 A 
HETATM   30 CL1  UNL     1      17.928  -1.142  53.348  1.00  0.00    -0.081 Cl
HETATM   31  C17 UNL     1      20.246   0.075  53.001  1.00  0.00     0.056 A 
ENDBRANCH  22  24
ENDBRANCH   4  22
TORSDOF 7
ENDMDL
