MODEL 1
REMARK VINA RESULT:      -9.4      0.000      0.000
REMARK  4 active torsions:
REMARK  status: ('A' for Active; 'I' for Inactive)
REMARK    1  A    between atoms: N4_21  and  C17_22 
REMARK    2  A    between atoms: C17_22  and  C18_23 
REMARK    3  A    between atoms: C18_23  and  C19_24 
REMARK    4  A    between atoms: C19_24  and  N5_25 
ROOT
HETATM    1  O1  UNL     1      21.810  -0.927  53.495  1.00  0.00    -0.188 OA
HETATM    2  C1  UNL     1      21.867   0.019  52.544  1.00  0.00     0.155 A 
HETATM    3  C2  UNL     1      20.682   0.234  51.821  1.00  0.00     0.017 A 
HETATM    4  C3  UNL     1      19.656   0.564  51.178  1.00  0.00     0.015 C 
HETATM    5  C4  UNL     1      19.427   2.002  50.886  1.00  0.00     0.001 C 
HETATM    6  C5  UNL     1      19.685   3.286  50.866  1.00  0.00    -0.000 C 
HETATM    7  C6  UNL     1      20.684   4.324  51.246  1.00  0.00    -0.002 C 
HETATM    8  C7  UNL     1      21.877   4.675  51.821  1.00  0.00    -0.008 C 
HETATM    9  C8  UNL     1      23.110   4.262  52.536  1.00  0.00     0.144 C 
HETATM   10  N1  UNL     1      24.366   4.332  51.755  1.00  0.00    -0.389 N 
HETATM   11  C9  UNL     1      24.128   3.441  50.506  1.00  0.00     0.165 A 
HETATM   12  N2  UNL     1      24.164   4.623  49.786  1.00  0.00    -0.247 NA
HETATM   13  C10 UNL     1      23.300   4.678  48.707  1.00  0.00     0.225 A 
HETATM   14  N3  UNL     1      22.802   3.415  48.949  1.00  0.00    -0.266 NA
HETATM   15  C11 UNL     1      23.294   2.731  49.970  1.00  0.00     0.122 A 
HETATM   16  C12 UNL     1      22.615   1.772  50.792  1.00  0.00     0.052 A 
HETATM   17  C13 UNL     1      22.930   1.020  51.865  1.00  0.00     0.007 A 
HETATM   18  C14 UNL     1      24.150   0.998  52.469  1.00  0.00     0.010 A 
HETATM   19  C15 UNL     1      24.875   1.900  51.771  1.00  0.00    -0.024 A 
HETATM   20  C16 UNL     1      23.813   2.106  50.982  1.00  0.00     0.056 A 
HETATM   21  N4  UNL     1      23.199   0.134  52.984  1.00  0.00     0.000 N 
HETATM   22  O3  UNL     1      21.932   0.208  52.368  1.00  0.00     0.000 OA
HETATM   23  H8  UNL     1      25.175   4.907  52.101  1.00  0.00     0.156 HD
ENDROOT
BRANCH  21  24
HETATM   24  C17 UNL     1      23.908  -0.441  54.087  1.00  0.00     0.002 C 
BRANCH  24  25
HETATM   25  C18 UNL     1      25.345  -0.735  53.936  1.00  0.00     0.019 C 
BRANCH  25  26
HETATM   26  C19 UNL     1      26.298   0.051  54.820  1.00  0.00     0.117 C 
BRANCH  26  27
HETATM   27  N5  UNL     1      27.624  -0.248  54.491  1.00  0.00    -0.408 N 
HETATM   28  C20 UNL     1      27.806  -0.953  53.269  1.00  0.00     0.143 C 
HETATM   29  C21 UNL     1      29.205  -1.629  53.258  1.00  0.00     0.187 C 
HETATM   30  O2  UNL     1      30.192  -0.688  53.383  1.00  0.00    -0.388 OA
HETATM   31  C22 UNL     1      29.769   0.581  53.662  1.00  0.00     0.187 C 
HETATM   32  C23 UNL     1      28.684   0.625  54.760  1.00  0.00     0.143 C 
ENDBRANCH  26  27
ENDBRANCH  25  26
ENDBRANCH  24  25
ENDBRANCH  21  24
TORSDOF 4
ENDMDL
MODEL 2
REMARK VINA RESULT:      -9.1      1.347      1.702
REMARK  4 active torsions:
REMARK  status: ('A' for Active; 'I' for Inactive)
REMARK    1  A    between atoms: N4_21  and  C17_22 
REMARK    2  A    between atoms: C17_22  and  C18_23 
REMARK    3  A    between atoms: C18_23  and  C19_24 
REMARK    4  A    between atoms: C19_24  and  N5_25 
ROOT
HETATM    1  O1  UNL     1      21.323  -1.197  54.392  1.00  0.00    -0.188 OA
HETATM    2  C1  UNL     1      21.133  -0.456  53.287  1.00  0.00     0.155 A 
HETATM    3  C2  UNL     1      19.823  -0.437  52.780  1.00  0.00     0.017 A 
HETATM    4  C3  UNL     1      18.674  -0.284  52.297  1.00  0.00     0.015 C 
HETATM    5  C4  UNL     1      18.285   1.058  51.791  1.00  0.00     0.001 C 
HETATM    6  C5  UNL     1      18.435   2.322  51.483  1.00  0.00    -0.000 C 
HETATM    7  C6  UNL     1      19.403   3.455  51.462  1.00  0.00    -0.002 C 
HETATM    8  C7  UNL     1      20.649   3.961  51.720  1.00  0.00    -0.008 C 
HETATM    9  C8  UNL     1      22.020   3.749  52.248  1.00  0.00     0.144 C 
HETATM   10  N1  UNL     1      23.104   3.714  51.241  1.00  0.00    -0.389 N 
HETATM   11  C9  UNL     1      22.713   2.585  50.250  1.00  0.00     0.165 A 
HETATM   12  N2  UNL     1      22.526   3.601  49.328  1.00  0.00    -0.247 NA
HETATM   13  C10 UNL     1      21.479   3.406  48.446  1.00  0.00     0.225 A 
HETATM   14  N3  UNL     1      21.133   2.196  49.010  1.00  0.00    -0.266 NA
HETATM   15  C11 UNL     1      21.854   1.748  50.026  1.00  0.00     0.122 A 
HETATM   16  C12 UNL     1      21.412   0.944  51.129  1.00  0.00     0.052 A 
HETATM   17  C13 UNL     1      21.974   0.434  52.241  1.00  0.00     0.007 A 
HETATM   18  C14 UNL     1      23.281   0.581  52.592  1.00  0.00     0.010 A 
HETATM   19  C15 UNL     1      23.794   1.357  51.611  1.00  0.00    -0.024 A 
HETATM   20  C16 UNL     1      22.595   1.358  51.017  1.00  0.00     0.056 A 
HETATM   21  N4  UNL     1      22.509  -0.201  53.433  1.00  0.00     0.000 N 
HETATM   22  O3  UNL     1      21.150  -0.303  53.070  1.00  0.00     0.000 OA
HETATM   23  H8  UNL     1      23.916   4.379  51.310  1.00  0.00     0.156 HD
ENDROOT
BRANCH  21  24
HETATM   24  C17 UNL     1      23.449  -0.518  54.466  1.00  0.00     0.002 C 
BRANCH  24  25
HETATM   25  C18 UNL     1      24.847  -0.804  54.095  1.00  0.00     0.019 C 
BRANCH  25  26
HETATM   26  C19 UNL     1      25.922  -0.262  55.021  1.00  0.00     0.117 C 
BRANCH  26  27
HETATM   27  N5  UNL     1      26.926   0.372  54.281  1.00  0.00    -0.408 N 
HETATM   28  C20 UNL     1      26.637   1.704  53.876  1.00  0.00     0.143 C 
HETATM   29  C21 UNL     1      27.568   2.108  52.700  1.00  0.00     0.187 C 
HETATM   30  O2  UNL     1      28.881   2.032  53.082  1.00  0.00    -0.388 OA
HETATM   31  C22 UNL     1      29.110   1.468  54.306  1.00  0.00     0.187 C 
HETATM   32  C23 UNL     1      28.288   0.182  54.539  1.00  0.00     0.143 C 
ENDBRANCH  26  27
ENDBRANCH  25  26
ENDBRANCH  24  25
ENDBRANCH  21  24
TORSDOF 4
ENDMDL
MODEL 3
REMARK VINA RESULT:      -8.9      2.352      6.209
REMARK  4 active torsions:
REMARK  status: ('A' for Active; 'I' for Inactive)
REMARK    1  A    between atoms: N4_21  and  C17_22 
REMARK    2  A    between atoms: C17_22  and  C18_23 
REMARK    3  A    between atoms: C18_23  and  C19_24 
REMARK    4  A    between atoms: C19_24  and  N5_25 
ROOT
HETATM    1  O1  UNL     1      24.464  -0.684  53.520  1.00  0.00    -0.188 OA
HETATM    2  C1  UNL     1      24.462   0.579  53.064  1.00  0.00     0.155 A 
HETATM    3  C2  UNL     1      25.724   1.166  52.876  1.00  0.00     0.017 A 
HETATM    4  C3  UNL     1      26.799   1.751  52.593  1.00  0.00     0.015 C 
HETATM    5  C4  UNL     1      26.852   2.597  51.374  1.00  0.00     0.001 C 
HETATM    6  C5  UNL     1      26.402   3.196  50.299  1.00  0.00    -0.000 C 
HETATM    7  C6  UNL     1      25.191   3.427  49.461  1.00  0.00    -0.002 C 
HETATM    8  C7  UNL     1      23.863   3.216  49.204  1.00  0.00    -0.008 C 
HETATM    9  C8  UNL     1      22.587   2.557  49.582  1.00  0.00     0.144 C 
HETATM   10  N1  UNL     1      21.533   3.447  50.120  1.00  0.00    -0.389 N 
HETATM   11  C9  UNL     1      22.173   4.154  51.344  1.00  0.00     0.165 A 
HETATM   12  N2  UNL     1      22.104   5.309  50.583  1.00  0.00    -0.247 NA
HETATM   13  C10 UNL     1      23.159   6.187  50.752  1.00  0.00     0.225 A 
HETATM   14  N3  UNL     1      23.789   5.367  51.665  1.00  0.00    -0.266 NA
HETATM   15  C11 UNL     1      23.205   4.224  51.991  1.00  0.00     0.122 A 
HETATM   16  C12 UNL     1      23.836   2.991  52.364  1.00  0.00     0.052 A 
HETATM   17  C13 UNL     1      23.423   1.751  52.687  1.00  0.00     0.007 A 
HETATM   18  C14 UNL     1      22.121   1.357  52.758  1.00  0.00     0.010 A 
HETATM   19  C15 UNL     1      21.429   2.460  52.397  1.00  0.00    -0.024 A 
HETATM   20  C16 UNL     1      22.588   3.118  52.274  1.00  0.00     0.056 A 
HETATM   21  N4  UNL     1      23.066   0.405  53.101  1.00  0.00     0.000 N 
HETATM   22  O3  UNL     1      24.407   0.826  52.979  1.00  0.00     0.000 OA
HETATM   23  H8  UNL     1      20.587   3.487  49.662  1.00  0.00     0.156 HD
ENDROOT
BRANCH  21  24
HETATM   24  C17 UNL     1      22.239  -0.737  53.349  1.00  0.00     0.002 C 
BRANCH  24  25
HETATM   25  C18 UNL     1      20.956  -0.550  54.052  1.00  0.00     0.019 C 
BRANCH  25  26
HETATM   26  C19 UNL     1      19.847  -1.533  53.722  1.00  0.00     0.117 C 
BRANCH  26  27
HETATM   27  N5  UNL     1      18.743  -0.860  53.190  1.00  0.00    -0.408 N 
HETATM   28  C20 UNL     1      18.955  -0.240  51.928  1.00  0.00     0.143 C 
HETATM   29  C21 UNL     1      17.865   0.839  51.685  1.00  0.00     0.187 C 
HETATM   30  O2  UNL     1      16.619   0.272  51.700  1.00  0.00    -0.388 OA
HETATM   31  C22 UNL     1      16.568  -1.037  52.088  1.00  0.00     0.187 C 
HETATM   32  C23 UNL     1      17.432  -1.329  53.334  1.00  0.00     0.143 C 
ENDBRANCH  26  27
ENDBRANCH  25  26
ENDBRANCH  24  25
ENDBRANCH  21  24
TORSDOF 4
ENDMDL
MODEL 4
REMARK VINA RESULT:      -8.9      1.576      2.409
REMARK  4 active torsions:
REMARK  status: ('A' for Active; 'I' for Inactive)
REMARK    1  A    between atoms: N4_21  and  C17_22 
REMARK    2  A    between atoms: C17_22  and  C18_23 
REMARK    3  A    between atoms: C18_23  and  C19_24 
REMARK    4  A    between atoms: C19_24  and  N5_25 
ROOT
HETATM    1  O1  UNL     1      24.443   0.642  53.823  1.00  0.00    -0.188 OA
HETATM    2  C1  UNL     1      23.553   0.809  52.831  1.00  0.00     0.155 A 
HETATM    3  C2  UNL     1      22.394   0.019  52.907  1.00  0.00     0.017 A 
HETATM    4  C3  UNL     1      21.287  -0.575  52.927  1.00  0.00     0.015 C 
HETATM    5  C4  UNL     1      20.072   0.166  52.504  1.00  0.00     0.001 C 
HETATM    6  C5  UNL     1      19.369   1.172  52.045  1.00  0.00    -0.000 C 
HETATM    7  C6  UNL     1      19.451   2.565  51.523  1.00  0.00    -0.002 C 
HETATM    8  C7  UNL     1      20.186   3.673  51.198  1.00  0.00    -0.008 C 
HETATM    9  C8  UNL     1      21.509   4.343  51.133  1.00  0.00     0.144 C 
HETATM   10  N1  UNL     1      22.069   4.542  49.777  1.00  0.00    -0.389 N 
HETATM   11  C9  UNL     1      22.136   3.127  49.144  1.00  0.00     0.165 A 
HETATM   12  N2  UNL     1      21.142   3.575  48.290  1.00  0.00    -0.247 NA
HETATM   13  C10 UNL     1      20.199   2.626  47.939  1.00  0.00     0.225 A 
HETATM   14  N3  UNL     1      20.794   1.646  48.705  1.00  0.00    -0.266 NA
HETATM   15  C11 UNL     1      21.896   1.953  49.372  1.00  0.00     0.122 A 
HETATM   16  C12 UNL     1      22.339   1.420  50.628  1.00  0.00     0.052 A 
HETATM   17  C13 UNL     1      23.382   1.626  51.454  1.00  0.00     0.007 A 
HETATM   18  C14 UNL     1      24.399   2.503  51.221  1.00  0.00     0.010 A 
HETATM   19  C15 UNL     1      24.062   3.085  50.048  1.00  0.00    -0.024 A 
HETATM   20  C16 UNL     1      22.973   2.308  50.003  1.00  0.00     0.056 A 
HETATM   21  N4  UNL     1      24.501   1.743  52.374  1.00  0.00     0.000 N 
HETATM   22  O3  UNL     1      23.415   0.875  52.612  1.00  0.00     0.000 OA
HETATM   23  H8  UNL     1      22.327   5.507  49.445  1.00  0.00     0.156 HD
ENDROOT
BRANCH  21  24
HETATM   24  C17 UNL     1      25.699   2.270  52.954  1.00  0.00     0.002 C 
BRANCH  24  25
HETATM   25  C18 UNL     1      26.988   2.009  52.288  1.00  0.00     0.019 C 
BRANCH  25  26
HETATM   26  C19 UNL     1      28.133   1.548  53.173  1.00  0.00     0.117 C 
BRANCH  26  27
HETATM   27  N5  UNL     1      28.083   0.161  53.348  1.00  0.00    -0.408 N 
HETATM   28  C20 UNL     1      27.400  -0.559  52.331  1.00  0.00     0.143 C 
HETATM   29  C21 UNL     1      27.002  -1.964  52.862  1.00  0.00     0.187 C 
HETATM   30  O2  UNL     1      28.115  -2.667  53.236  1.00  0.00    -0.388 OA
HETATM   31  C22 UNL     1      29.286  -1.964  53.240  1.00  0.00     0.187 C 
HETATM   32  C23 UNL     1      29.148  -0.569  53.889  1.00  0.00     0.143 C 
ENDBRANCH  26  27
ENDBRANCH  25  26
ENDBRANCH  24  25
ENDBRANCH  21  24
TORSDOF 4
ENDMDL
MODEL 5
REMARK VINA RESULT:      -8.7      2.093      3.350
REMARK  4 active torsions:
REMARK  status: ('A' for Active; 'I' for Inactive)
REMARK    1  A    between atoms: N4_21  and  C17_22 
REMARK    2  A    between atoms: C17_22  and  C18_23 
REMARK    3  A    between atoms: C18_23  and  C19_24 
REMARK    4  A    between atoms: C19_24  and  N5_25 
ROOT
HETATM    1  O1  UNL     1      21.730   0.924  49.585  1.00  0.00    -0.188 OA
HETATM    2  C1  UNL     1      22.403   2.043  49.270  1.00  0.00     0.155 A 
HETATM    3  C2  UNL     1      22.216   2.524  47.963  1.00  0.00     0.017 A 
HETATM    4  C3  UNL     1      22.051   3.083  46.852  1.00  0.00     0.015 C 
HETATM    5  C4  UNL     1      21.977   4.565  46.801  1.00  0.00     0.001 C 
HETATM    6  C5  UNL     1      22.007   5.792  47.260  1.00  0.00    -0.000 C 
HETATM    7  C6  UNL     1      22.208   6.621  48.482  1.00  0.00    -0.002 C 
HETATM    8  C7  UNL     1      22.452   6.722  49.825  1.00  0.00    -0.008 C 
HETATM    9  C8  UNL     1      22.697   6.047  51.124  1.00  0.00     0.144 C 
HETATM   10  N1  UNL     1      24.070   6.160  51.665  1.00  0.00    -0.389 N 
HETATM   11  C9  UNL     1      24.999   5.588  50.561  1.00  0.00     0.165 A 
HETATM   12  N2  UNL     1      25.452   6.888  50.414  1.00  0.00    -0.247 NA
HETATM   13  C10 UNL     1      25.758   7.259  49.117  1.00  0.00     0.225 A 
HETATM   14  N3  UNL     1      25.405   6.028  48.605  1.00  0.00    -0.266 NA
HETATM   15  C11 UNL     1      24.986   5.095  49.446  1.00  0.00     0.122 A 
HETATM   16  C12 UNL     1      24.034   4.051  49.196  1.00  0.00     0.052 A 
HETATM   17  C13 UNL     1      23.474   3.059  49.914  1.00  0.00     0.007 A 
HETATM   18  C14 UNL     1      23.753   2.788  51.219  1.00  0.00     0.010 A 
HETATM   19  C15 UNL     1      24.643   3.745  51.566  1.00  0.00    -0.024 A 
HETATM   20  C16 UNL     1      24.585   4.218  50.315  1.00  0.00     0.056 A 
HETATM   21  N4  UNL     1      22.863   1.931  50.596  1.00  0.00     0.000 N 
HETATM   22  O3  UNL     1      22.559   2.259  49.257  1.00  0.00     0.000 OA
HETATM   23  H8  UNL     1      24.232   6.566  52.622  1.00  0.00     0.156 HD
ENDROOT
BRANCH  21  24
HETATM   24  C17 UNL     1      22.501   1.064  51.676  1.00  0.00     0.002 C 
BRANCH  24  25
HETATM   25  C18 UNL     1      23.430   0.915  52.812  1.00  0.00     0.019 C 
BRANCH  25  26
HETATM   26  C19 UNL     1      23.666  -0.497  53.319  1.00  0.00     0.117 C 
BRANCH  26  27
HETATM   27  N5  UNL     1      25.014  -0.676  53.646  1.00  0.00    -0.408 N 
HETATM   28  C20 UNL     1      25.943  -0.284  52.645  1.00  0.00     0.143 C 
HETATM   29  C21 UNL     1      27.317  -0.958  52.912  1.00  0.00     0.187 C 
HETATM   30  O2  UNL     1      27.800  -0.589  54.139  1.00  0.00    -0.388 OA
HETATM   31  C22 UNL     1      26.938   0.120  54.926  1.00  0.00     0.187 C 
HETATM   32  C23 UNL     1      25.511  -0.470  54.938  1.00  0.00     0.143 C 
ENDBRANCH  26  27
ENDBRANCH  25  26
ENDBRANCH  24  25
ENDBRANCH  21  24
TORSDOF 4
ENDMDL
MODEL 6
REMARK VINA RESULT:      -8.6      2.246      3.828
REMARK  4 active torsions:
REMARK  status: ('A' for Active; 'I' for Inactive)
REMARK    1  A    between atoms: N4_21  and  C17_22 
REMARK    2  A    between atoms: C17_22  and  C18_23 
REMARK    3  A    between atoms: C18_23  and  C19_24 
REMARK    4  A    between atoms: C19_24  and  N5_25 
ROOT
HETATM    1  O1  UNL     1      25.268   3.072  51.856  1.00  0.00    -0.188 OA
HETATM    2  C1  UNL     1      23.947   3.298  51.769  1.00  0.00     0.155 A 
HETATM    3  C2  UNL     1      23.572   4.577  51.323  1.00  0.00     0.017 A 
HETATM    4  C3  UNL     1      23.133   5.655  50.853  1.00  0.00     0.015 C 
HETATM    5  C4  UNL     1      21.955   5.613  49.950  1.00  0.00     0.001 C 
HETATM    6  C5  UNL     1      20.962   5.077  49.284  1.00  0.00    -0.000 C 
HETATM    7  C6  UNL     1      20.249   3.801  48.996  1.00  0.00    -0.002 C 
HETATM    8  C7  UNL     1      20.118   2.448  49.159  1.00  0.00    -0.008 C 
HETATM    9  C8  UNL     1      20.619   1.188  49.763  1.00  0.00     0.144 C 
HETATM   10  N1  UNL     1      19.782   0.606  50.837  1.00  0.00    -0.389 N 
HETATM   11  C9  UNL     1      19.651   1.719  51.910  1.00  0.00     0.165 A 
HETATM   12  N2  UNL     1      18.317   1.772  51.542  1.00  0.00    -0.247 NA
HETATM   13  C10 UNL     1      17.753   3.035  51.564  1.00  0.00     0.225 A 
HETATM   14  N3  UNL     1      18.929   3.632  51.965  1.00  0.00    -0.266 NA
HETATM   15  C11 UNL     1      19.988   2.864  52.164  1.00  0.00     0.122 A 
HETATM   16  C12 UNL     1      21.368   3.203  51.970  1.00  0.00     0.052 A 
HETATM   17  C13 UNL     1      22.548   2.564  52.083  1.00  0.00     0.007 A 
HETATM   18  C14 UNL     1      22.699   1.272  52.486  1.00  0.00     0.010 A 
HETATM   19  C15 UNL     1      21.432   0.843  52.679  1.00  0.00    -0.024 A 
HETATM   20  C16 UNL     1      20.993   2.062  52.344  1.00  0.00     0.056 A 
HETATM   21  N4  UNL     1      23.867   1.971  52.232  1.00  0.00     0.000 N 
HETATM   22  O3  UNL     1      23.681   3.293  51.775  1.00  0.00     0.000 OA
HETATM   23  H8  UNL     1      19.421  -0.379  50.754  1.00  0.00     0.156 HD
ENDROOT
BRANCH  21  24
HETATM   24  C17 UNL     1      24.855   0.957  52.442  1.00  0.00     0.002 C 
BRANCH  24  25
HETATM   25  C18 UNL     1      24.894   0.258  53.740  1.00  0.00     0.019 C 
BRANCH  25  26
HETATM   26  C19 UNL     1      25.867  -0.902  53.860  1.00  0.00     0.117 C 
BRANCH  26  27
HETATM   27  N5  UNL     1      27.178  -0.461  53.655  1.00  0.00    -0.408 N 
HETATM   28  C20 UNL     1      27.746   0.283  54.725  1.00  0.00     0.143 C 
HETATM   29  C21 UNL     1      28.962   1.101  54.207  1.00  0.00     0.187 C 
HETATM   30  O2  UNL     1      29.914   0.265  53.689  1.00  0.00    -0.388 OA
HETATM   31  C22 UNL     1      29.549  -1.046  53.568  1.00  0.00     0.187 C 
HETATM   32  C23 UNL     1      28.134  -1.225  52.977  1.00  0.00     0.143 C 
ENDBRANCH  26  27
ENDBRANCH  25  26
ENDBRANCH  24  25
ENDBRANCH  21  24
TORSDOF 4
ENDMDL
MODEL 7
REMARK VINA RESULT:      -8.5      3.234      5.573
REMARK  4 active torsions:
REMARK  status: ('A' for Active; 'I' for Inactive)
REMARK    1  A    between atoms: N4_21  and  C17_22 
REMARK    2  A    between atoms: C17_22  and  C18_23 
REMARK    3  A    between atoms: C18_23  and  C19_24 
REMARK    4  A    between atoms: C19_24  and  N5_25 
ROOT
HETATM    1  O1  UNL     1      27.825   4.360  48.894  1.00  0.00    -0.188 OA
HETATM    2  C1  UNL     1      26.797   5.216  49.020  1.00  0.00     0.155 A 
HETATM    3  C2  UNL     1      26.958   6.464  48.396  1.00  0.00     0.017 A 
HETATM    4  C3  UNL     1      26.965   7.572  47.805  1.00  0.00     0.015 C 
HETATM    5  C4  UNL     1      25.709   8.054  47.177  1.00  0.00     0.001 C 
HETATM    6  C5  UNL     1      24.442   8.040  46.845  1.00  0.00    -0.000 C 
HETATM    7  C6  UNL     1      23.167   7.279  46.976  1.00  0.00    -0.002 C 
HETATM    8  C7  UNL     1      22.467   6.199  47.443  1.00  0.00    -0.008 C 
HETATM    9  C8  UNL     1      22.465   4.916  48.190  1.00  0.00     0.144 C 
HETATM   10  N1  UNL     1      21.782   4.932  49.504  1.00  0.00    -0.389 N 
HETATM   11  C9  UNL     1      22.486   6.046  50.323  1.00  0.00     0.165 A 
HETATM   12  N2  UNL     1      21.290   6.735  50.219  1.00  0.00    -0.247 NA
HETATM   13  C10 UNL     1      21.413   8.106  50.083  1.00  0.00     0.225 A 
HETATM   14  N3  UNL     1      22.791   8.058  50.114  1.00  0.00    -0.266 NA
HETATM   15  C11 UNL     1      23.375   6.880  50.259  1.00  0.00     0.122 A 
HETATM   16  C12 UNL     1      24.641   6.456  49.734  1.00  0.00     0.052 A 
HETATM   17  C13 UNL     1      25.364   5.320  49.747  1.00  0.00     0.007 A 
HETATM   18  C14 UNL     1      24.996   4.170  50.376  1.00  0.00     0.010 A 
HETATM   19  C15 UNL     1      23.783   4.459  50.898  1.00  0.00    -0.024 A 
HETATM   20  C16 UNL     1      23.894   5.699  50.405  1.00  0.00     0.056 A 
HETATM   21  N4  UNL     1      26.235   4.157  49.758  1.00  0.00     0.000 N 
HETATM   22  O3  UNL     1      26.573   5.347  49.079  1.00  0.00     0.000 OA
HETATM   23  H8  UNL     1      20.996   4.263  49.702  1.00  0.00     0.156 HD
ENDROOT
BRANCH  21  24
HETATM   24  C17 UNL     1      26.648   2.805  49.981  1.00  0.00     0.002 C 
BRANCH  24  25
HETATM   25  C18 UNL     1      26.722   2.301  51.365  1.00  0.00     0.019 C 
BRANCH  25  26
HETATM   26  C19 UNL     1      26.338   0.848  51.583  1.00  0.00     0.117 C 
BRANCH  26  27
HETATM   27  N5  UNL     1      26.900   0.369  52.771  1.00  0.00    -0.408 N 
HETATM   28  C20 UNL     1      28.053   1.065  53.225  1.00  0.00     0.143 C 
HETATM   29  C21 UNL     1      28.837   0.179  54.231  1.00  0.00     0.187 C 
HETATM   30  O2  UNL     1      28.051  -0.132  55.308  1.00  0.00    -0.388 OA
HETATM   31  C22 UNL     1      26.737   0.228  55.206  1.00  0.00     0.187 C 
HETATM   32  C23 UNL     1      26.124  -0.115  53.831  1.00  0.00     0.143 C 
ENDBRANCH  26  27
ENDBRANCH  25  26
ENDBRANCH  24  25
ENDBRANCH  21  24
TORSDOF 4
ENDMDL
MODEL 8
REMARK VINA RESULT:      -8.4      6.680      8.889
REMARK  4 active torsions:
REMARK  status: ('A' for Active; 'I' for Inactive)
REMARK    1  A    between atoms: N4_21  and  C17_22 
REMARK    2  A    between atoms: C17_22  and  C18_23 
REMARK    3  A    between atoms: C18_23  and  C19_24 
REMARK    4  A    between atoms: C19_24  and  N5_25 
ROOT
HETATM    1  O1  UNL     1      30.238   5.118  48.487  1.00  0.00    -0.188 OA
HETATM    2  C1  UNL     1      29.035   5.688  48.308  1.00  0.00     0.155 A 
HETATM    3  C2  UNL     1      27.927   4.908  48.677  1.00  0.00     0.017 A 
HETATM    4  C3  UNL     1      26.877   4.332  49.056  1.00  0.00     0.015 C 
HETATM    5  C4  UNL     1      25.812   5.139  49.703  1.00  0.00     0.001 C 
HETATM    6  C5  UNL     1      25.218   6.217  50.152  1.00  0.00    -0.000 C 
HETATM    7  C6  UNL     1      25.336   7.696  50.282  1.00  0.00    -0.002 C 
HETATM    8  C7  UNL     1      26.036   8.857  50.087  1.00  0.00    -0.008 C 
HETATM    9  C8  UNL     1      27.261   9.530  49.589  1.00  0.00     0.144 C 
HETATM   10  N1  UNL     1      27.099  10.348  48.365  1.00  0.00    -0.389 N 
HETATM   11  C9  UNL     1      26.525   9.382  47.294  1.00  0.00     0.165 A 
HETATM   12  N2  UNL     1      25.366  10.134  47.386  1.00  0.00    -0.247 NA
HETATM   13  C10 UNL     1      24.191   9.417  47.259  1.00  0.00     0.225 A 
HETATM   14  N3  UNL     1      24.854   8.218  47.107  1.00  0.00    -0.266 NA
HETATM   15  C11 UNL     1      26.177   8.225  47.121  1.00  0.00     0.122 A 
HETATM   16  C12 UNL     1      27.056   7.194  47.591  1.00  0.00     0.052 A 
HETATM   17  C13 UNL     1      28.388   7.038  47.714  1.00  0.00     0.007 A 
HETATM   18  C14 UNL     1      29.318   7.960  47.342  1.00  0.00     0.010 A 
HETATM   19  C15 UNL     1      28.581   9.001  46.895  1.00  0.00    -0.024 A 
HETATM   20  C16 UNL     1      27.473   8.292  47.142  1.00  0.00     0.056 A 
HETATM   21  N4  UNL     1      29.810   6.762  47.830  1.00  0.00     0.000 N 
HETATM   22  O3  UNL     1      28.826   5.841  48.248  1.00  0.00     0.000 OA
HETATM   23  H8  UNL     1      27.364  11.366  48.367  1.00  0.00     0.156 HD
ENDROOT
BRANCH  21  24
HETATM   24  C17 UNL     1      31.220   7.009  47.817  1.00  0.00     0.002 C 
BRANCH  24  25
HETATM   25  C18 UNL     1      31.909   7.136  46.520  1.00  0.00     0.019 C 
BRANCH  25  26
HETATM   26  C19 UNL     1      33.309   6.553  46.431  1.00  0.00     0.117 C 
BRANCH  26  27
HETATM   27  N5  UNL     1      33.332   5.260  46.964  1.00  0.00    -0.408 N 
HETATM   28  C20 UNL     1      32.959   4.223  46.067  1.00  0.00     0.143 C 
HETATM   29  C21 UNL     1      32.563   2.953  46.870  1.00  0.00     0.187 C 
HETATM   30  O2  UNL     1      33.614   2.525  47.637  1.00  0.00    -0.388 OA
HETATM   31  C22 UNL     1      34.693   3.362  47.683  1.00  0.00     0.187 C 
HETATM   32  C23 UNL     1      34.299   4.841  47.885  1.00  0.00     0.143 C 
ENDBRANCH  26  27
ENDBRANCH  25  26
ENDBRANCH  24  25
ENDBRANCH  21  24
TORSDOF 4
ENDMDL
MODEL 9
REMARK VINA RESULT:      -8.0      2.984      7.202
REMARK  4 active torsions:
REMARK  status: ('A' for Active; 'I' for Inactive)
REMARK    1  A    between atoms: N4_21  and  C17_22 
REMARK    2  A    between atoms: C17_22  and  C18_23 
REMARK    3  A    between atoms: C18_23  and  C19_24 
REMARK    4  A    between atoms: C19_24  and  N5_25 
ROOT
HETATM    1  O1  UNL     1      21.068  -0.266  52.888  1.00  0.00    -0.188 OA
HETATM    2  C1  UNL     1      21.751   0.874  52.692  1.00  0.00     0.155 A 
HETATM    3  C2  UNL     1      23.129   0.818  52.959  1.00  0.00     0.017 A 
HETATM    4  C3  UNL     1      24.377   0.851  53.086  1.00  0.00     0.015 C 
HETATM    5  C4  UNL     1      25.174   1.631  52.105  1.00  0.00     0.001 C 
HETATM    6  C5  UNL     1      25.394   2.418  51.081  1.00  0.00    -0.000 C 
HETATM    7  C6  UNL     1      24.738   3.220  50.010  1.00  0.00    -0.002 C 
HETATM    8  C7  UNL     1      23.607   3.659  49.375  1.00  0.00    -0.008 C 
HETATM    9  C8  UNL     1      22.127   3.650  49.270  1.00  0.00     0.144 C 
HETATM   10  N1  UNL     1      21.441   4.901  49.666  1.00  0.00    -0.389 N 
HETATM   11  C9  UNL     1      21.889   5.176  51.126  1.00  0.00     0.165 A 
HETATM   12  N2  UNL     1      22.567   6.264  50.603  1.00  0.00    -0.247 NA
HETATM   13  C10 UNL     1      23.778   6.546  51.208  1.00  0.00     0.225 A 
HETATM   14  N3  UNL     1      23.669   5.487  52.085  1.00  0.00    -0.266 NA
HETATM   15  C11 UNL     1      22.584   4.731  52.025  1.00  0.00     0.122 A 
HETATM   16  C12 UNL     1      22.473   3.331  52.315  1.00  0.00     0.052 A 
HETATM   17  C13 UNL     1      21.492   2.409  52.279  1.00  0.00     0.007 A 
HETATM   18  C14 UNL     1      20.200   2.659  51.926  1.00  0.00     0.010 A 
HETATM   19  C15 UNL     1      20.200   3.973  51.608  1.00  0.00    -0.024 A 
HETATM   20  C16 UNL     1      21.500   4.025  51.922  1.00  0.00     0.056 A 
HETATM   21  N4  UNL     1      20.483   1.364  52.324  1.00  0.00     0.000 N 
HETATM   22  O3  UNL     1      21.836   1.122  52.643  1.00  0.00     0.000 OA
HETATM   23  H8  UNL     1      20.804   5.394  48.990  1.00  0.00     0.156 HD
ENDROOT
BRANCH  21  24
HETATM   24  C17 UNL     1      19.218   0.724  52.125  1.00  0.00     0.002 C 
BRANCH  24  25
HETATM   25  C18 UNL     1      18.673   0.632  50.758  1.00  0.00     0.019 C 
BRANCH  25  26
HETATM   26  C19 UNL     1      17.160   0.627  50.626  1.00  0.00     0.117 C 
BRANCH  26  27
HETATM   27  N5  UNL     1      16.598   1.616  51.439  1.00  0.00    -0.408 N 
HETATM   28  C20 UNL     1      16.491   2.905  50.848  1.00  0.00     0.143 C 
HETATM   29  C21 UNL     1      16.320   3.978  51.958  1.00  0.00     0.187 C 
HETATM   30  O2  UNL     1      15.193   3.729  52.695  1.00  0.00    -0.388 OA
HETATM   31  C22 UNL     1      14.568   2.541  52.438  1.00  0.00     0.187 C 
HETATM   32  C23 UNL     1      15.551   1.355  52.331  1.00  0.00     0.143 C 
ENDBRANCH  26  27
ENDBRANCH  25  26
ENDBRANCH  24  25
ENDBRANCH  21  24
TORSDOF 4
ENDMDL
