MODEL 1
REMARK VINA RESULT:      -8.4      0.000      0.000
REMARK  6 active torsions:
REMARK  status: ('A' for Active; 'I' for Inactive)
REMARK    1  A    between atoms: C3_3  and  C4_4 
REMARK       I    between atoms: C4_4  and  N1_6 
REMARK    2  A    between atoms: N1_6  and  C5_7 
REMARK    3  A    between atoms: C5_7  and  C6_8 
REMARK    4  A    between atoms: C6_8  and  N2_9 
REMARK    5  A    between atoms: C9_12  and  C10_13 
REMARK    6  A    between atoms: C10_13  and  C11_14 
ROOT
HETATM    1  C1  UNL     1      29.403   1.172  54.169  1.00  0.00     0.068 C 
HETATM    2  C2  UNL     1      27.943   0.962  54.245  1.00  0.00     0.015 A 
HETATM    3  C3  UNL     1      26.967   1.132  53.370  1.00  0.00     0.054 A 
HETATM    4  C9  UNL     1      25.849   0.704  54.247  1.00  0.00     0.126 A 
HETATM    5  N4  UNL     1      26.953   0.525  55.169  1.00  0.00    -0.384 N 
HETATM    6  H23 UNL     1      27.138   0.209  56.160  1.00  0.00     0.160 HD
ENDROOT
BRANCH   4   7
HETATM    7  C10 UNL     1      25.251  -0.637  53.881  1.00  0.00     0.058 C 
BRANCH   7   8
HETATM    8  C11 UNL     1      23.984  -0.339  53.166  1.00  0.00    -0.006 C 
HETATM    9  C12 UNL     1      22.763  -0.585  53.553  1.00  0.00     0.041 A 
HETATM   10  C13 UNL     1      22.333  -1.217  54.791  1.00  0.00     0.256 A 
HETATM   11  C19 UNL     1      21.580  -0.254  52.781  1.00  0.00     0.009 A 
HETATM   12  O2  UNL     1      23.029  -1.656  55.741  1.00  0.00    -0.267 OA
HETATM   13  N3  UNL     1      20.900  -1.261  54.755  1.00  0.00    -0.322 N 
HETATM   14  C14 UNL     1      20.486  -0.670  53.523  1.00  0.00     0.046 A 
HETATM   15  H19 UNL     1      20.312  -1.660  55.507  1.00  0.00     0.169 HD
HETATM   16  C15 UNL     1      19.163  -0.515  53.093  1.00  0.00     0.033 A 
HETATM   17  C16 UNL     1      19.009   0.095  51.851  1.00  0.00     0.044 A 
HETATM   18  C17 UNL     1      20.045   0.533  51.058  1.00  0.00     0.117 A 
HETATM   19  F1  UNL     1      19.806   1.117  49.859  1.00  0.00    -0.206 F 
HETATM   20  C18 UNL     1      21.292   0.333  51.569  1.00  0.00     0.057 A 
ENDBRANCH   7   8
ENDBRANCH   4   7
BRANCH   3  21
HETATM   21  C4  UNL     1      26.771   1.572  51.979  1.00  0.00     0.251 C 
HETATM   22  O1  UNL     1      26.561   0.966  50.893  1.00  0.00    -0.268 OA
HETATM   23  N1  UNL     1      26.811   2.972  51.709  1.00  0.00    -0.355 N 
HETATM   24  H4  UNL     1      26.972   3.727  52.440  1.00  0.00     0.162 HD
BRANCH  23  25
HETATM   25  C5  UNL     1      26.598   3.230  50.275  1.00  0.00     0.153 C 
BRANCH  25  26
HETATM   26  C6  UNL     1      25.683   4.410  50.050  1.00  0.00     0.291 C 
BRANCH  26  27
HETATM   27  N2  UNL     1      24.398   4.141  50.668  1.00  0.00     0.081 N 
HETATM   28  C7  UNL     1      23.644   5.345  50.835  1.00  0.00     0.309 C 
HETATM   29  C8  UNL     1      23.683   3.164  49.899  1.00  0.00     0.309 C 
ENDBRANCH  26  27
ENDBRANCH  25  26
ENDBRANCH  23  25
ENDBRANCH   3  21
TORSDOF 6
ENDMDL
MODEL 2
REMARK VINA RESULT:      -8.2      3.064      6.312
REMARK  6 active torsions:
REMARK  status: ('A' for Active; 'I' for Inactive)
REMARK    1  A    between atoms: C3_3  and  C4_4 
REMARK       I    between atoms: C4_4  and  N1_6 
REMARK    2  A    between atoms: N1_6  and  C5_7 
REMARK    3  A    between atoms: C5_7  and  C6_8 
REMARK    4  A    between atoms: C6_8  and  N2_9 
REMARK    5  A    between atoms: C9_12  and  C10_13 
REMARK    6  A    between atoms: C10_13  and  C11_14 
ROOT
HETATM    1  C1  UNL     1      19.584   2.111  50.490  1.00  0.00     0.068 C 
HETATM    2  C2  UNL     1      20.846   1.483  50.929  1.00  0.00     0.015 A 
HETATM    3  C3  UNL     1      22.079   1.944  51.058  1.00  0.00     0.054 A 
HETATM    4  C9  UNL     1      22.704   0.686  51.535  1.00  0.00     0.126 A 
HETATM    5  N4  UNL     1      21.337   0.228  51.387  1.00  0.00    -0.384 N 
HETATM    6  H23 UNL     1      20.756  -0.645  51.518  1.00  0.00     0.160 HD
ENDROOT
BRANCH   4   7
HETATM    7  C10 UNL     1      23.095   0.702  52.997  1.00  0.00     0.058 C 
BRANCH   7   8
HETATM    8  C11 UNL     1      24.485   0.183  53.055  1.00  0.00    -0.006 C 
HETATM    9  C12 UNL     1      25.577   0.838  53.335  1.00  0.00     0.041 A 
HETATM   10  C13 UNL     1      25.709   2.250  53.664  1.00  0.00     0.256 A 
HETATM   11  C19 UNL     1      26.900   0.242  53.369  1.00  0.00     0.009 A 
HETATM   12  O2  UNL     1      24.817   3.132  53.748  1.00  0.00    -0.267 OA
HETATM   13  N3  UNL     1      27.105   2.491  53.892  1.00  0.00    -0.322 N 
HETATM   14  C14 UNL     1      27.788   1.252  53.703  1.00  0.00     0.046 A 
HETATM   15  H19 UNL     1      27.501   3.413  54.144  1.00  0.00     0.169 HD
HETATM   16  C15 UNL     1      29.167   1.050  53.831  1.00  0.00     0.033 A 
HETATM   17  C16 UNL     1      29.602  -0.253  53.599  1.00  0.00     0.044 A 
HETATM   18  C17 UNL     1      28.781  -1.305  53.264  1.00  0.00     0.117 A 
HETATM   19  F1  UNL     1      29.289  -2.544  53.054  1.00  0.00    -0.206 F 
HETATM   20  C18 UNL     1      27.458  -1.000  53.165  1.00  0.00     0.057 A 
ENDBRANCH   7   8
ENDBRANCH   4   7
BRANCH   3  21
HETATM   21  C4  UNL     1      22.835   3.193  50.867  1.00  0.00     0.251 C 
HETATM   22  O1  UNL     1      22.516   4.413  50.854  1.00  0.00    -0.268 OA
HETATM   23  N1  UNL     1      24.240   3.095  50.640  1.00  0.00    -0.355 N 
HETATM   24  H4  UNL     1      24.786   2.184  50.600  1.00  0.00     0.162 HD
BRANCH  23  25
HETATM   25  C5  UNL     1      24.832   4.432  50.470  1.00  0.00     0.153 C 
BRANCH  25  26
HETATM   26  C6  UNL     1      25.796   4.473  49.308  1.00  0.00     0.291 C 
BRANCH  26  27
HETATM   27  N2  UNL     1      26.017   5.854  48.921  1.00  0.00     0.081 N 
HETATM   28  C7  UNL     1      25.653   6.749  49.976  1.00  0.00     0.309 C 
HETATM   29  C8  UNL     1      27.380   6.034  48.515  1.00  0.00     0.309 C 
ENDBRANCH  26  27
ENDBRANCH  25  26
ENDBRANCH  23  25
ENDBRANCH   3  21
TORSDOF 6
ENDMDL
MODEL 3
REMARK VINA RESULT:      -8.2      3.016      6.431
REMARK  6 active torsions:
REMARK  status: ('A' for Active; 'I' for Inactive)
REMARK    1  A    between atoms: C3_3  and  C4_4 
REMARK       I    between atoms: C4_4  and  N1_6 
REMARK    2  A    between atoms: N1_6  and  C5_7 
REMARK    3  A    between atoms: C5_7  and  C6_8 
REMARK    4  A    between atoms: C6_8  and  N2_9 
REMARK    5  A    between atoms: C9_12  and  C10_13 
REMARK    6  A    between atoms: C10_13  and  C11_14 
ROOT
HETATM    1  C1  UNL     1      19.252   0.918  51.115  1.00  0.00     0.068 C 
HETATM    2  C2  UNL     1      20.677   0.735  51.458  1.00  0.00     0.015 A 
HETATM    3  C3  UNL     1      21.658   1.590  51.695  1.00  0.00     0.054 A 
HETATM    4  C9  UNL     1      22.724   0.589  51.947  1.00  0.00     0.126 A 
HETATM    5  N4  UNL     1      21.616  -0.309  51.689  1.00  0.00    -0.384 N 
HETATM    6  H23 UNL     1      21.403  -1.343  51.647  1.00  0.00     0.160 HD
ENDROOT
BRANCH   4   7
HETATM    7  C10 UNL     1      23.152   0.489  53.395  1.00  0.00     0.058 C 
BRANCH   7   8
HETATM    8  C11 UNL     1      24.563   0.027  53.375  1.00  0.00    -0.006 C 
HETATM    9  C12 UNL     1      25.646   0.740  53.515  1.00  0.00     0.041 A 
HETATM   10  C13 UNL     1      25.744   2.177  53.727  1.00  0.00     0.256 A 
HETATM   11  C19 UNL     1      26.991   0.197  53.481  1.00  0.00     0.009 A 
HETATM   12  O2  UNL     1      24.825   3.030  53.821  1.00  0.00    -0.267 OA
HETATM   13  N3  UNL     1      27.142   2.485  53.820  1.00  0.00    -0.322 N 
HETATM   14  C14 UNL     1      27.860   1.261  53.665  1.00  0.00     0.046 A 
HETATM   15  H19 UNL     1      27.518   3.437  53.970  1.00  0.00     0.169 HD
HETATM   16  C15 UNL     1      29.252   1.119  53.692  1.00  0.00     0.033 A 
HETATM   17  C16 UNL     1      29.722  -0.181  53.520  1.00  0.00     0.044 A 
HETATM   18  C17 UNL     1      28.921  -1.285  53.332  1.00  0.00     0.117 A 
HETATM   19  F1  UNL     1      29.462  -2.517  53.172  1.00  0.00    -0.206 F 
HETATM   20  C18 UNL     1      27.582  -1.036  53.322  1.00  0.00     0.057 A 
ENDBRANCH   7   8
ENDBRANCH   4   7
BRANCH   3  21
HETATM   21  C4  UNL     1      21.893   3.042  51.751  1.00  0.00     0.251 C 
HETATM   22  O1  UNL     1      21.200   4.024  52.135  1.00  0.00    -0.268 OA
HETATM   23  N1  UNL     1      23.149   3.534  51.288  1.00  0.00    -0.355 N 
HETATM   24  H4  UNL     1      23.934   2.929  50.905  1.00  0.00     0.162 HD
BRANCH  23  25
HETATM   25  C5  UNL     1      23.209   5.000  51.415  1.00  0.00     0.153 C 
BRANCH  25  26
HETATM   26  C6  UNL     1      23.754   5.647  50.163  1.00  0.00     0.291 C 
BRANCH  26  27
HETATM   27  N2  UNL     1      25.194   5.781  50.286  1.00  0.00     0.081 N 
HETATM   28  C7  UNL     1      25.870   5.012  49.287  1.00  0.00     0.309 C 
HETATM   29  C8  UNL     1      25.560   7.167  50.232  1.00  0.00     0.309 C 
ENDBRANCH  26  27
ENDBRANCH  25  26
ENDBRANCH  23  25
ENDBRANCH   3  21
TORSDOF 6
ENDMDL
MODEL 4
REMARK VINA RESULT:      -7.9      2.969      7.123
REMARK  6 active torsions:
REMARK  status: ('A' for Active; 'I' for Inactive)
REMARK    1  A    between atoms: C3_3  and  C4_4 
REMARK       I    between atoms: C4_4  and  N1_6 
REMARK    2  A    between atoms: N1_6  and  C5_7 
REMARK    3  A    between atoms: C5_7  and  C6_8 
REMARK    4  A    between atoms: C6_8  and  N2_9 
REMARK    5  A    between atoms: C9_12  and  C10_13 
REMARK    6  A    between atoms: C10_13  and  C11_14 
ROOT
HETATM    1  C1  UNL     1      21.407  -0.315  54.389  1.00  0.00     0.068 C 
HETATM    2  C2  UNL     1      22.024   0.682  53.492  1.00  0.00     0.015 A 
HETATM    3  C3  UNL     1      23.257   0.840  53.040  1.00  0.00     0.054 A 
HETATM    4  C9  UNL     1      23.007   2.056  52.227  1.00  0.00     0.126 A 
HETATM    5  N4  UNL     1      21.669   1.836  52.739  1.00  0.00    -0.384 N 
HETATM    6  H23 UNL     1      20.701   2.257  52.684  1.00  0.00     0.160 HD
ENDROOT
BRANCH   4   7
HETATM    7  C10 UNL     1      23.040   1.819  50.732  1.00  0.00     0.058 C 
BRANCH   7   8
HETATM    8  C11 UNL     1      24.177   2.622  50.215  1.00  0.00    -0.006 C 
HETATM    9  C12 UNL     1      24.170   3.862  49.812  1.00  0.00     0.041 A 
HETATM   10  C13 UNL     1      23.037   4.777  49.768  1.00  0.00     0.256 A 
HETATM   11  C19 UNL     1      25.338   4.568  49.321  1.00  0.00     0.009 A 
HETATM   12  O2  UNL     1      21.842   4.576  50.101  1.00  0.00    -0.267 OA
HETATM   13  N3  UNL     1      23.533   6.020  49.252  1.00  0.00    -0.322 N 
HETATM   14  C14 UNL     1      24.927   5.850  48.995  1.00  0.00     0.046 A 
HETATM   15  H19 UNL     1      22.949   6.862  49.108  1.00  0.00     0.169 HD
HETATM   16  C15 UNL     1      25.789   6.827  48.484  1.00  0.00     0.033 A 
HETATM   17  C16 UNL     1      27.113   6.425  48.320  1.00  0.00     0.044 A 
HETATM   18  C17 UNL     1      27.595   5.171  48.621  1.00  0.00     0.117 A 
HETATM   19  F1  UNL     1      28.900   4.863  48.430  1.00  0.00    -0.206 F 
HETATM   20  C18 UNL     1      26.672   4.297  49.111  1.00  0.00     0.057 A 
ENDBRANCH   7   8
ENDBRANCH   4   7
BRANCH   3  21
HETATM   21  C4  UNL     1      24.581   0.205  53.147  1.00  0.00     0.251 C 
HETATM   22  O1  UNL     1      24.978  -0.993  53.127  1.00  0.00    -0.268 OA
HETATM   23  N1  UNL     1      25.717   1.050  53.309  1.00  0.00    -0.355 N 
HETATM   24  H4  UNL     1      25.682   2.112  53.359  1.00  0.00     0.162 HD
BRANCH  23  25
HETATM   25  C5  UNL     1      26.950   0.251  53.398  1.00  0.00     0.153 C 
BRANCH  25  26
HETATM   26  C6  UNL     1      27.646   0.442  54.725  1.00  0.00     0.291 C 
BRANCH  26  27
HETATM   27  N2  UNL     1      29.005   0.893  54.489  1.00  0.00     0.081 N 
HETATM   28  C7  UNL     1      29.722  -0.038  53.672  1.00  0.00     0.309 C 
HETATM   29  C8  UNL     1      28.990   2.206  53.914  1.00  0.00     0.309 C 
ENDBRANCH  26  27
ENDBRANCH  25  26
ENDBRANCH  23  25
ENDBRANCH   3  21
TORSDOF 6
ENDMDL
MODEL 5
REMARK VINA RESULT:      -7.8      2.889      7.302
REMARK  6 active torsions:
REMARK  status: ('A' for Active; 'I' for Inactive)
REMARK    1  A    between atoms: C3_3  and  C4_4 
REMARK       I    between atoms: C4_4  and  N1_6 
REMARK    2  A    between atoms: N1_6  and  C5_7 
REMARK    3  A    between atoms: C5_7  and  C6_8 
REMARK    4  A    between atoms: C6_8  and  N2_9 
REMARK    5  A    between atoms: C9_12  and  C10_13 
REMARK    6  A    between atoms: C10_13  and  C11_14 
ROOT
HETATM    1  C1  UNL     1      22.317  -0.301  53.890  1.00  0.00     0.068 C 
HETATM    2  C2  UNL     1      22.610   0.828  52.985  1.00  0.00     0.015 A 
HETATM    3  C3  UNL     1      23.725   1.476  52.692  1.00  0.00     0.054 A 
HETATM    4  C9  UNL     1      23.138   2.439  51.728  1.00  0.00     0.126 A 
HETATM    5  N4  UNL     1      21.943   1.694  52.074  1.00  0.00    -0.384 N 
HETATM    6  H23 UNL     1      20.912   1.664  51.843  1.00  0.00     0.160 HD
ENDROOT
BRANCH   4   7
HETATM    7  C10 UNL     1      23.515   2.182  50.286  1.00  0.00     0.058 C 
BRANCH   7   8
HETATM    8  C11 UNL     1      23.785   3.514  49.689  1.00  0.00    -0.006 C 
HETATM    9  C12 UNL     1      24.940   4.076  49.460  1.00  0.00     0.041 A 
HETATM   10  C13 UNL     1      26.263   3.534  49.735  1.00  0.00     0.256 A 
HETATM   11  C19 UNL     1      25.105   5.390  48.868  1.00  0.00     0.009 A 
HETATM   12  O2  UNL     1      26.577   2.428  50.243  1.00  0.00    -0.267 OA
HETATM   13  N3  UNL     1      27.210   4.523  49.308  1.00  0.00    -0.322 N 
HETATM   14  C14 UNL     1      26.468   5.628  48.791  1.00  0.00     0.046 A 
HETATM   15  H19 UNL     1      28.236   4.414  49.381  1.00  0.00     0.169 HD
HETATM   16  C15 UNL     1      27.014   6.807  48.269  1.00  0.00     0.033 A 
HETATM   17  C16 UNL     1      26.086   7.744  47.822  1.00  0.00     0.044 A 
HETATM   18  C17 UNL     1      24.720   7.579  47.866  1.00  0.00     0.117 A 
HETATM   19  F1  UNL     1      23.887   8.545  47.409  1.00  0.00    -0.206 F 
HETATM   20  C18 UNL     1      24.295   6.397  48.394  1.00  0.00     0.057 A 
ENDBRANCH   7   8
ENDBRANCH   4   7
BRANCH   3  21
HETATM   21  C4  UNL     1      25.155   1.464  53.044  1.00  0.00     0.251 C 
HETATM   22  O1  UNL     1      25.878   2.189  53.781  1.00  0.00    -0.268 OA
HETATM   23  N1  UNL     1      25.976   0.448  52.472  1.00  0.00    -0.355 N 
HETATM   24  H4  UNL     1      25.632  -0.307  51.808  1.00  0.00     0.162 HD
BRANCH  23  25
HETATM   25  C5  UNL     1      27.368   0.588  52.930  1.00  0.00     0.153 C 
BRANCH  25  26
HETATM   26  C6  UNL     1      27.932  -0.727  53.414  1.00  0.00     0.291 C 
BRANCH  26  27
HETATM   27  N2  UNL     1      29.045  -0.467  54.309  1.00  0.00     0.081 N 
HETATM   28  C7  UNL     1      30.273  -0.948  53.756  1.00  0.00     0.309 C 
HETATM   29  C8  UNL     1      29.107   0.933  54.613  1.00  0.00     0.309 C 
ENDBRANCH  26  27
ENDBRANCH  25  26
ENDBRANCH  23  25
ENDBRANCH   3  21
TORSDOF 6
ENDMDL
MODEL 6
REMARK VINA RESULT:      -7.8      2.836      6.300
REMARK  6 active torsions:
REMARK  status: ('A' for Active; 'I' for Inactive)
REMARK    1  A    between atoms: C3_3  and  C4_4 
REMARK       I    between atoms: C4_4  and  N1_6 
REMARK    2  A    between atoms: N1_6  and  C5_7 
REMARK    3  A    between atoms: C5_7  and  C6_8 
REMARK    4  A    between atoms: C6_8  and  N2_9 
REMARK    5  A    between atoms: C9_12  and  C10_13 
REMARK    6  A    between atoms: C10_13  and  C11_14 
ROOT
HETATM    1  C1  UNL     1      16.607  -0.863  52.738  1.00  0.00     0.068 C 
HETATM    2  C2  UNL     1      18.071  -0.855  52.933  1.00  0.00     0.015 A 
HETATM    3  C3  UNL     1      19.058  -0.261  52.283  1.00  0.00     0.054 A 
HETATM    4  C9  UNL     1      20.172  -0.778  53.117  1.00  0.00     0.126 A 
HETATM    5  N4  UNL     1      19.057  -1.400  53.803  1.00  0.00    -0.384 N 
HETATM    6  H23 UNL     1      18.863  -2.031  54.628  1.00  0.00     0.160 HD
ENDROOT
BRANCH   4   7
HETATM    7  C10 UNL     1      20.817   0.264  54.006  1.00  0.00     0.058 C 
BRANCH   7   8
HETATM    8  C11 UNL     1      22.178   0.484  53.456  1.00  0.00    -0.006 C 
HETATM    9  C12 UNL     1      23.300  -0.057  53.842  1.00  0.00     0.041 A 
HETATM   10  C13 UNL     1      23.500  -1.020  54.916  1.00  0.00     0.256 A 
HETATM   11  C19 UNL     1      24.591   0.221  53.240  1.00  0.00     0.009 A 
HETATM   12  O2  UNL     1      22.653  -1.531  55.692  1.00  0.00    -0.267 OA
HETATM   13  N3  UNL     1      24.905  -1.312  54.951  1.00  0.00    -0.322 N 
HETATM   14  C14 UNL     1      25.526  -0.541  53.922  1.00  0.00     0.046 A 
HETATM   15  H19 UNL     1      25.344  -1.968  55.618  1.00  0.00     0.169 HD
HETATM   16  C15 UNL     1      26.892  -0.533  53.618  1.00  0.00     0.033 A 
HETATM   17  C16 UNL     1      27.263   0.302  52.566  1.00  0.00     0.044 A 
HETATM   18  C17 UNL     1      26.392   1.087  51.844  1.00  0.00     0.117 A 
HETATM   19  F1  UNL     1      26.838   1.872  50.834  1.00  0.00    -0.206 F 
HETATM   20  C18 UNL     1      25.086   1.005  52.223  1.00  0.00     0.057 A 
ENDBRANCH   7   8
ENDBRANCH   4   7
BRANCH   3  21
HETATM   21  C4  UNL     1      19.267   0.628  51.129  1.00  0.00     0.251 C 
HETATM   22  O1  UNL     1      18.567   1.521  50.577  1.00  0.00    -0.268 OA
HETATM   23  N1  UNL     1      20.501   0.526  50.421  1.00  0.00    -0.355 N 
HETATM   24  H4  UNL     1      21.287  -0.147  50.665  1.00  0.00     0.162 HD
BRANCH  23  25
HETATM   25  C5  UNL     1      20.537   1.483  49.303  1.00  0.00     0.153 C 
BRANCH  25  26
HETATM   26  C6  UNL     1      21.782   1.314  48.463  1.00  0.00     0.291 C 
BRANCH  26  27
HETATM   27  N2  UNL     1      22.318   2.622  48.139  1.00  0.00     0.081 N 
HETATM   28  C7  UNL     1      21.615   3.209  47.040  1.00  0.00     0.309 C 
HETATM   29  C8  UNL     1      22.290   3.462  49.301  1.00  0.00     0.309 C 
ENDBRANCH  26  27
ENDBRANCH  25  26
ENDBRANCH  23  25
ENDBRANCH   3  21
TORSDOF 6
ENDMDL
MODEL 7
REMARK VINA RESULT:      -7.7      3.201      6.632
REMARK  6 active torsions:
REMARK  status: ('A' for Active; 'I' for Inactive)
REMARK    1  A    between atoms: C3_3  and  C4_4 
REMARK       I    between atoms: C4_4  and  N1_6 
REMARK    2  A    between atoms: N1_6  and  C5_7 
REMARK    3  A    between atoms: C5_7  and  C6_8 
REMARK    4  A    between atoms: C6_8  and  N2_9 
REMARK    5  A    between atoms: C9_12  and  C10_13 
REMARK    6  A    between atoms: C10_13  and  C11_14 
ROOT
HETATM    1  C1  UNL     1      16.504  -0.804  52.897  1.00  0.00     0.068 C 
HETATM    2  C2  UNL     1      17.973  -0.833  53.047  1.00  0.00     0.015 A 
HETATM    3  C3  UNL     1      18.955  -0.269  52.365  1.00  0.00     0.054 A 
HETATM    4  C9  UNL     1      20.079  -0.810  53.168  1.00  0.00     0.126 A 
HETATM    5  N4  UNL     1      18.970  -1.400  53.890  1.00  0.00    -0.384 N 
HETATM    6  H23 UNL     1      18.785  -2.022  54.725  1.00  0.00     0.160 HD
ENDROOT
BRANCH   4   7
HETATM    7  C10 UNL     1      20.777   0.219  54.031  1.00  0.00     0.058 C 
BRANCH   7   8
HETATM    8  C11 UNL     1      22.224   0.101  53.720  1.00  0.00    -0.006 C 
HETATM    9  C12 UNL     1      22.975   0.931  53.052  1.00  0.00     0.041 A 
HETATM   10  C13 UNL     1      22.581   2.192  52.439  1.00  0.00     0.256 A 
HETATM   11  C19 UNL     1      24.390   0.730  52.798  1.00  0.00     0.009 A 
HETATM   12  O2  UNL     1      21.452   2.745  52.419  1.00  0.00    -0.267 OA
HETATM   13  N3  UNL     1      23.756   2.736  51.823  1.00  0.00    -0.322 N 
HETATM   14  C14 UNL     1      24.826   1.822  52.063  1.00  0.00     0.046 A 
HETATM   15  H19 UNL     1      23.779   3.633  51.307  1.00  0.00     0.169 HD
HETATM   16  C15 UNL     1      26.148   1.977  51.631  1.00  0.00     0.033 A 
HETATM   17  C16 UNL     1      27.016   0.949  51.990  1.00  0.00     0.044 A 
HETATM   18  C17 UNL     1      26.656  -0.164  52.716  1.00  0.00     0.117 A 
HETATM   19  F1  UNL     1      27.567  -1.119  53.023  1.00  0.00    -0.206 F 
HETATM   20  C18 UNL     1      25.346  -0.217  53.086  1.00  0.00     0.057 A 
ENDBRANCH   7   8
ENDBRANCH   4   7
BRANCH   3  21
HETATM   21  C4  UNL     1      19.151   0.610  51.200  1.00  0.00     0.251 C 
HETATM   22  O1  UNL     1      18.455   1.513  50.661  1.00  0.00    -0.268 OA
HETATM   23  N1  UNL     1      20.364   0.480  50.462  1.00  0.00    -0.355 N 
HETATM   24  H4  UNL     1      21.143  -0.207  50.691  1.00  0.00     0.162 HD
BRANCH  23  25
HETATM   25  C5  UNL     1      20.391   1.429  49.337  1.00  0.00     0.153 C 
BRANCH  25  26
HETATM   26  C6  UNL     1      21.761   1.508  48.705  1.00  0.00     0.291 C 
BRANCH  26  27
HETATM   27  N2  UNL     1      22.055   2.890  48.377  1.00  0.00     0.081 N 
HETATM   28  C7  UNL     1      21.981   3.113  46.966  1.00  0.00     0.309 C 
HETATM   29  C8  UNL     1      21.175   3.760  49.103  1.00  0.00     0.309 C 
ENDBRANCH  26  27
ENDBRANCH  25  26
ENDBRANCH  23  25
ENDBRANCH   3  21
TORSDOF 6
ENDMDL
MODEL 8
REMARK VINA RESULT:      -7.5      3.378      6.804
REMARK  6 active torsions:
REMARK  status: ('A' for Active; 'I' for Inactive)
REMARK    1  A    between atoms: C3_3  and  C4_4 
REMARK       I    between atoms: C4_4  and  N1_6 
REMARK    2  A    between atoms: N1_6  and  C5_7 
REMARK    3  A    between atoms: C5_7  and  C6_8 
REMARK    4  A    between atoms: C6_8  and  N2_9 
REMARK    5  A    between atoms: C9_12  and  C10_13 
REMARK    6  A    between atoms: C10_13  and  C11_14 
ROOT
HETATM    1  C1  UNL     1      16.584  -0.885  52.939  1.00  0.00     0.068 C 
HETATM    2  C2  UNL     1      18.057  -0.868  53.046  1.00  0.00     0.015 A 
HETATM    3  C3  UNL     1      18.994  -0.189  52.405  1.00  0.00     0.054 A 
HETATM    4  C9  UNL     1      20.164  -0.769  53.110  1.00  0.00     0.126 A 
HETATM    5  N4  UNL     1      19.102  -1.482  53.791  1.00  0.00    -0.384 N 
HETATM    6  H23 UNL     1      18.969  -2.201  54.554  1.00  0.00     0.160 HD
ENDROOT
BRANCH   4   7
HETATM    7  C10 UNL     1      20.848   0.186  54.065  1.00  0.00     0.058 C 
BRANCH   7   8
HETATM    8  C11 UNL     1      22.200   0.431  53.501  1.00  0.00    -0.006 C 
HETATM    9  C12 UNL     1      23.335  -0.089  53.876  1.00  0.00     0.041 A 
HETATM   10  C13 UNL     1      23.564  -1.047  54.948  1.00  0.00     0.256 A 
HETATM   11  C19 UNL     1      24.614   0.211  53.259  1.00  0.00     0.009 A 
HETATM   12  O2  UNL     1      22.735  -1.572  55.733  1.00  0.00    -0.267 OA
HETATM   13  N3  UNL     1      24.974  -1.313  54.968  1.00  0.00    -0.322 N 
HETATM   14  C14 UNL     1      25.570  -0.532  53.933  1.00  0.00     0.046 A 
HETATM   15  H19 UNL     1      25.433  -1.961  55.632  1.00  0.00     0.169 HD
HETATM   16  C15 UNL     1      26.932  -0.500  53.613  1.00  0.00     0.033 A 
HETATM   17  C16 UNL     1      27.276   0.340  52.557  1.00  0.00     0.044 A 
HETATM   18  C17 UNL     1      26.384   1.108  51.843  1.00  0.00     0.117 A 
HETATM   19  F1  UNL     1      26.805   1.900  50.828  1.00  0.00    -0.206 F 
HETATM   20  C18 UNL     1      25.084   1.003  52.236  1.00  0.00     0.057 A 
ENDBRANCH   7   8
ENDBRANCH   4   7
BRANCH   3  21
HETATM   21  C4  UNL     1      19.118   0.822  51.342  1.00  0.00     0.251 C 
HETATM   22  O1  UNL     1      19.206   0.760  50.085  1.00  0.00    -0.268 OA
HETATM   23  N1  UNL     1      19.156   2.195  51.726  1.00  0.00    -0.355 N 
HETATM   24  H4  UNL     1      19.099   2.546  52.728  1.00  0.00     0.162 HD
BRANCH  23  25
HETATM   25  C5  UNL     1      19.283   3.061  50.543  1.00  0.00     0.153 C 
BRANCH  25  26
HETATM   26  C6  UNL     1      18.376   4.266  50.632  1.00  0.00     0.291 C 
BRANCH  26  27
HETATM   27  N2  UNL     1      17.004   3.846  50.414  1.00  0.00     0.081 N 
HETATM   28  C7  UNL     1      16.161   4.258  51.493  1.00  0.00     0.309 C 
HETATM   29  C8  UNL     1      16.538   4.343  49.152  1.00  0.00     0.309 C 
ENDBRANCH  26  27
ENDBRANCH  25  26
ENDBRANCH  23  25
ENDBRANCH   3  21
TORSDOF 6
ENDMDL
MODEL 9
REMARK VINA RESULT:      -7.3      3.343      6.354
REMARK  6 active torsions:
REMARK  status: ('A' for Active; 'I' for Inactive)
REMARK    1  A    between atoms: C3_3  and  C4_4 
REMARK       I    between atoms: C4_4  and  N1_6 
REMARK    2  A    between atoms: N1_6  and  C5_7 
REMARK    3  A    between atoms: C5_7  and  C6_8 
REMARK    4  A    between atoms: C6_8  and  N2_9 
REMARK    5  A    between atoms: C9_12  and  C10_13 
REMARK    6  A    between atoms: C10_13  and  C11_14 
ROOT
HETATM    1  C1  UNL     1      25.467   7.837  47.655  1.00  0.00     0.068 C 
HETATM    2  C2  UNL     1      25.751   6.740  48.603  1.00  0.00     0.015 A 
HETATM    3  C3  UNL     1      24.974   6.006  49.381  1.00  0.00     0.054 A 
HETATM    4  C9  UNL     1      26.044   5.172  49.983  1.00  0.00     0.126 A 
HETATM    5  N4  UNL     1      26.853   5.995  49.107  1.00  0.00    -0.384 N 
HETATM    6  H23 UNL     1      27.863   6.129  48.825  1.00  0.00     0.160 HD
ENDROOT
BRANCH   4   7
HETATM    7  C10 UNL     1      26.053   3.735  49.507  1.00  0.00     0.058 C 
BRANCH   7   8
HETATM    8  C11 UNL     1      26.415   2.914  50.690  1.00  0.00    -0.006 C 
HETATM    9  C12 UNL     1      25.642   2.140  51.400  1.00  0.00     0.041 A 
HETATM   10  C13 UNL     1      24.221   1.887  51.211  1.00  0.00     0.256 A 
HETATM   11  C19 UNL     1      26.089   1.370  52.546  1.00  0.00     0.009 A 
HETATM   12  O2  UNL     1      23.442   2.348  50.339  1.00  0.00    -0.267 OA
HETATM   13  N3  UNL     1      23.826   0.969  52.241  1.00  0.00    -0.322 N 
HETATM   14  C14 UNL     1      24.984   0.684  53.025  1.00  0.00     0.046 A 
HETATM   15  H19 UNL     1      22.864   0.607  52.357  1.00  0.00     0.169 HD
HETATM   16  C15 UNL     1      25.032  -0.170  54.133  1.00  0.00     0.033 A 
HETATM   17  C16 UNL     1      26.281  -0.291  54.737  1.00  0.00     0.044 A 
HETATM   18  C17 UNL     1      27.421   0.358  54.319  1.00  0.00     0.117 A 
HETATM   19  F1  UNL     1      28.598   0.183  54.966  1.00  0.00    -0.206 F 
HETATM   20  C18 UNL     1      27.264   1.164  53.233  1.00  0.00     0.057 A 
ENDBRANCH   7   8
ENDBRANCH   4   7
BRANCH   3  21
HETATM   21  C4  UNL     1      23.551   5.857  49.728  1.00  0.00     0.251 C 
HETATM   22  O1  UNL     1      22.475   6.096  49.116  1.00  0.00    -0.268 OA
HETATM   23  N1  UNL     1      23.228   5.337  51.016  1.00  0.00    -0.355 N 
HETATM   24  H4  UNL     1      23.940   5.046  51.749  1.00  0.00     0.162 HD
BRANCH  23  25
HETATM   25  C5  UNL     1      21.768   5.258  51.191  1.00  0.00     0.153 C 
BRANCH  25  26
HETATM   26  C6  UNL     1      21.391   4.346  52.335  1.00  0.00     0.291 C 
BRANCH  26  27
HETATM   27  N2  UNL     1      20.239   3.552  51.951  1.00  0.00     0.081 N 
HETATM   28  C7  UNL     1      20.078   3.532  50.530  1.00  0.00     0.309 C 
HETATM   29  C8  UNL     1      20.356   2.230  52.495  1.00  0.00     0.309 C 
ENDBRANCH  26  27
ENDBRANCH  25  26
ENDBRANCH  23  25
ENDBRANCH   3  21
TORSDOF 6
ENDMDL
