MODEL 1
REMARK VINA RESULT:      -8.6      0.000      0.000
REMARK  7 active torsions:
REMARK  status: ('A' for Active; 'I' for Inactive)
REMARK    1  A    between atoms: C3_3  and  C4_4 
REMARK    2  A    between atoms: C4_4  and  C5_5 
REMARK    3  A    between atoms: C10_12  and  C11_13 
REMARK    4  A    between atoms: C11_13  and  O3_15 
REMARK    5  A    between atoms: C15_21  and  C16_22 
REMARK    6  A    between atoms: C16_22  and  C17_23 
REMARK    7  A    between atoms: C17_23  and  C18_24 
ROOT
HETATM    1  C5  UNL     1      22.266  -0.230  53.417  1.00  0.00     0.047 A 
HETATM    2  C6  UNL     1      22.088  -1.064  54.597  1.00  0.00     0.257 A 
HETATM    3  O1  UNL     1      22.646  -1.577  55.574  1.00  0.00    -0.267 OA
HETATM    4  N1  UNL     1      20.719  -1.441  54.649  1.00  0.00    -0.322 N 
HETATM    5  C7  UNL     1      20.037  -0.872  53.544  1.00  0.00     0.046 A 
HETATM    6  C8  UNL     1      18.763  -0.840  53.020  1.00  0.00     0.031 A 
HETATM    7  C9  UNL     1      18.322  -0.196  51.891  1.00  0.00     0.020 A 
HETATM    8  C10 UNL     1      19.253   0.518  51.172  1.00  0.00     0.038 A 
HETATM    9  C12 UNL     1      20.545   0.526  51.642  1.00  0.00     0.033 A 
HETATM   10  C13 UNL     1      20.938  -0.152  52.805  1.00  0.00     0.007 A 
HETATM   11  H5  UNL     1      20.091  -2.021  55.282  1.00  0.00     0.169 HD
ENDROOT
BRANCH   1  12
HETATM   12  C4  UNL     1      23.412   0.243  53.119  1.00  0.00     0.047 C 
BRANCH  12  13
HETATM   13  C3  UNL     1      24.528   0.998  52.694  1.00  0.00     0.035 C 
HETATM   14  C2  UNL     1      25.790   0.551  52.567  1.00  0.00    -0.029 C 
HETATM   15  C1  UNL     1      26.168  -0.836  52.865  1.00  0.00     0.048 C 
HETATM   16  C15 UNL     1      26.882   1.457  52.140  1.00  0.00     0.154 C 
HETATM   17  O4  UNL     1      26.574   2.264  51.070  1.00  0.00    -0.363 OA
HETATM   18  C14 UNL     1      25.384   2.924  51.180  1.00  0.00     0.291 C 
HETATM   19  N2  UNL     1      24.584   2.390  52.278  1.00  0.00    -0.368 N 
HETATM   20  H10 UNL     1      23.962   3.026  52.854  1.00  0.00     0.161 HD
BRANCH  16  21
HETATM   21  C16 UNL     1      27.298   2.227  53.376  1.00  0.00     0.043 C 
BRANCH  21  22
HETATM   22  C17 UNL     1      28.768   2.182  53.663  1.00  0.00     0.072 C 
BRANCH  22  23
HETATM   23  C18 UNL     1      29.254   0.921  54.255  1.00  0.00     0.231 C 
HETATM   24  O5  UNL     1      28.696   0.211  55.052  1.00  0.00    -0.307 OA
ENDBRANCH  22  23
ENDBRANCH  21  22
ENDBRANCH  16  21
ENDBRANCH  12  13
ENDBRANCH   1  12
BRANCH   8  25
HETATM   25  C11 UNL     1      18.981   1.261  49.957  1.00  0.00     0.176 C 
HETATM   26  O2  UNL     1      17.919   1.887  49.710  1.00  0.00    -0.646 OA
BRANCH  25  27
HETATM   27  O3  UNL     1      19.953   1.302  48.971  1.00  0.00    -0.773 OA
HETATM   28  H8  UNL     1      20.774   0.677  48.996  1.00  0.00     0.167 HD
ENDBRANCH  25  27
ENDBRANCH   8  25
TORSDOF 7
ENDMDL
MODEL 2
REMARK VINA RESULT:      -8.2      1.365      2.816
REMARK  7 active torsions:
REMARK  status: ('A' for Active; 'I' for Inactive)
REMARK    1  A    between atoms: C3_3  and  C4_4 
REMARK    2  A    between atoms: C4_4  and  C5_5 
REMARK    3  A    between atoms: C10_12  and  C11_13 
REMARK    4  A    between atoms: C11_13  and  O3_15 
REMARK    5  A    between atoms: C15_21  and  C16_22 
REMARK    6  A    between atoms: C16_22  and  C17_23 
REMARK    7  A    between atoms: C17_23  and  C18_24 
ROOT
HETATM    1  C5  UNL     1      22.575  -0.387  53.537  1.00  0.00     0.047 A 
HETATM    2  C6  UNL     1      22.224  -1.138  54.733  1.00  0.00     0.257 A 
HETATM    3  O1  UNL     1      22.652  -1.661  55.769  1.00  0.00    -0.267 OA
HETATM    4  N1  UNL     1      20.821  -1.359  54.700  1.00  0.00    -0.322 N 
HETATM    5  C7  UNL     1      20.285  -0.773  53.525  1.00  0.00     0.046 A 
HETATM    6  C8  UNL     1      19.061  -0.626  52.908  1.00  0.00     0.031 A 
HETATM    7  C9  UNL     1      18.775   0.006  51.725  1.00  0.00     0.020 A 
HETATM    8  C10 UNL     1      19.827   0.577  51.048  1.00  0.00     0.038 A 
HETATM    9  C12 UNL     1      21.076   0.467  51.611  1.00  0.00     0.033 A 
HETATM   10  C13 UNL     1      21.309  -0.194  52.826  1.00  0.00     0.007 A 
HETATM   11  H5  UNL     1      20.089  -1.835  55.308  1.00  0.00     0.169 HD
ENDROOT
BRANCH   1  12
HETATM   12  C4  UNL     1      23.785  -0.059  53.305  1.00  0.00     0.047 C 
BRANCH  12  13
HETATM   13  C3  UNL     1      25.006   0.491  52.855  1.00  0.00     0.035 C 
HETATM   14  C2  UNL     1      25.298   1.799  52.743  1.00  0.00    -0.029 C 
HETATM   15  C1  UNL     1      24.338   2.853  53.096  1.00  0.00     0.048 C 
HETATM   16  C15 UNL     1      26.612   2.248  52.227  1.00  0.00     0.154 C 
HETATM   17  O4  UNL     1      27.694   1.583  52.753  1.00  0.00    -0.363 OA
HETATM   18  C14 UNL     1      27.584   0.223  52.742  1.00  0.00     0.291 C 
HETATM   19  N2  UNL     1      26.219  -0.195  52.441  1.00  0.00    -0.368 N 
HETATM   20  H10 UNL     1      26.034  -1.074  51.879  1.00  0.00     0.161 HD
BRANCH  16  21
HETATM   21  C16 UNL     1      26.524   2.158  50.716  1.00  0.00     0.043 C 
BRANCH  21  22
HETATM   22  C17 UNL     1      26.584   3.481  50.017  1.00  0.00     0.072 C 
BRANCH  22  23
HETATM   23  C18 UNL     1      25.285   4.013  49.564  1.00  0.00     0.231 C 
HETATM   24  O5  UNL     1      24.562   4.792  50.132  1.00  0.00    -0.307 OA
ENDBRANCH  22  23
ENDBRANCH  21  22
ENDBRANCH  16  21
ENDBRANCH  12  13
ENDBRANCH   1  12
BRANCH   8  25
HETATM   25  C11 UNL     1      19.726   1.286  49.786  1.00  0.00     0.176 C 
HETATM   26  O2  UNL     1      20.693   1.763  49.141  1.00  0.00    -0.646 OA
BRANCH  25  27
HETATM   27  O3  UNL     1      18.472   1.467  49.225  1.00  0.00    -0.773 OA
HETATM   28  H8  UNL     1      17.801   2.151  49.610  1.00  0.00     0.167 HD
ENDBRANCH  25  27
ENDBRANCH   8  25
TORSDOF 7
ENDMDL
MODEL 3
REMARK VINA RESULT:      -7.7      3.437      7.025
REMARK  7 active torsions:
REMARK  status: ('A' for Active; 'I' for Inactive)
REMARK    1  A    between atoms: C3_3  and  C4_4 
REMARK    2  A    between atoms: C4_4  and  C5_5 
REMARK    3  A    between atoms: C10_12  and  C11_13 
REMARK    4  A    between atoms: C11_13  and  O3_15 
REMARK    5  A    between atoms: C15_21  and  C16_22 
REMARK    6  A    between atoms: C16_22  and  C17_23 
REMARK    7  A    between atoms: C17_23  and  C18_24 
ROOT
HETATM    1  C5  UNL     1      23.874   1.907  52.787  1.00  0.00     0.047 A 
HETATM    2  C6  UNL     1      22.953   0.783  52.875  1.00  0.00     0.257 A 
HETATM    3  O1  UNL     1      21.792   0.400  52.684  1.00  0.00    -0.267 OA
HETATM    4  N1  UNL     1      23.681  -0.324  53.387  1.00  0.00    -0.322 N 
HETATM    5  C7  UNL     1      25.023   0.069  53.622  1.00  0.00     0.046 A 
HETATM    6  C8  UNL     1      26.197  -0.483  54.088  1.00  0.00     0.031 A 
HETATM    7  C9  UNL     1      27.421   0.117  54.233  1.00  0.00     0.020 A 
HETATM    8  C10 UNL     1      27.518   1.441  53.871  1.00  0.00     0.038 A 
HETATM    9  C12 UNL     1      26.382   2.052  53.397  1.00  0.00     0.033 A 
HETATM   10  C13 UNL     1      25.154   1.386  53.271  1.00  0.00     0.007 A 
HETATM   11  H5  UNL     1      23.489  -1.341  53.633  1.00  0.00     0.169 HD
ENDROOT
BRANCH   1  12
HETATM   12  C4  UNL     1      23.478   3.043  52.363  1.00  0.00     0.047 C 
BRANCH  12  13
HETATM   13  C3  UNL     1      23.208   4.240  51.663  1.00  0.00     0.035 C 
HETATM   14  C2  UNL     1      23.912   4.734  50.630  1.00  0.00    -0.029 C 
HETATM   15  C1  UNL     1      25.093   4.053  50.084  1.00  0.00     0.048 C 
HETATM   16  C15 UNL     1      23.542   6.023  49.999  1.00  0.00     0.154 C 
HETATM   17  O4  UNL     1      22.198   6.176  49.751  1.00  0.00    -0.363 OA
HETATM   18  C14 UNL     1      21.388   5.879  50.808  1.00  0.00     0.291 C 
HETATM   19  N2  UNL     1      22.126   5.189  51.862  1.00  0.00    -0.368 N 
HETATM   20  H10 UNL     1      21.889   5.350  52.882  1.00  0.00     0.161 HD
BRANCH  16  21
HETATM   21  C16 UNL     1      24.119   7.107  50.887  1.00  0.00     0.043 C 
BRANCH  21  22
HETATM   22  C17 UNL     1      24.288   8.432  50.209  1.00  0.00     0.072 C 
BRANCH  22  23
HETATM   23  C18 UNL     1      25.678   8.795  49.876  1.00  0.00     0.231 C 
HETATM   24  O5  UNL     1      26.359   9.658  50.371  1.00  0.00    -0.307 OA
ENDBRANCH  22  23
ENDBRANCH  21  22
ENDBRANCH  16  21
ENDBRANCH  12  13
ENDBRANCH   1  12
BRANCH   8  25
HETATM   25  C11 UNL     1      28.723   2.245  53.951  1.00  0.00     0.176 C 
HETATM   26  O2  UNL     1      29.535   2.243  54.911  1.00  0.00    -0.646 OA
BRANCH  25  27
HETATM   27  O3  UNL     1      29.028   3.092  52.898  1.00  0.00    -0.773 OA
HETATM   28  H8  UNL     1      28.311   3.695  52.465  1.00  0.00     0.167 HD
ENDBRANCH  25  27
ENDBRANCH   8  25
TORSDOF 7
ENDMDL
MODEL 4
REMARK VINA RESULT:      -7.5      3.158      7.258
REMARK  7 active torsions:
REMARK  status: ('A' for Active; 'I' for Inactive)
REMARK    1  A    between atoms: C3_3  and  C4_4 
REMARK    2  A    between atoms: C4_4  and  C5_5 
REMARK    3  A    between atoms: C10_12  and  C11_13 
REMARK    4  A    between atoms: C11_13  and  O3_15 
REMARK    5  A    between atoms: C15_21  and  C16_22 
REMARK    6  A    between atoms: C16_22  and  C17_23 
REMARK    7  A    between atoms: C17_23  and  C18_24 
ROOT
HETATM    1  C5  UNL     1      23.504   1.020  52.277  1.00  0.00     0.047 A 
HETATM    2  C6  UNL     1      22.626  -0.041  52.745  1.00  0.00     0.257 A 
HETATM    3  O1  UNL     1      21.514  -0.571  52.624  1.00  0.00    -0.267 OA
HETATM    4  N1  UNL     1      23.327  -0.763  53.748  1.00  0.00    -0.322 N 
HETATM    5  C7  UNL     1      24.612  -0.189  53.921  1.00  0.00     0.046 A 
HETATM    6  C8  UNL     1      25.740  -0.389  54.689  1.00  0.00     0.031 A 
HETATM    7  C9  UNL     1      26.911   0.325  54.682  1.00  0.00     0.020 A 
HETATM    8  C10 UNL     1      27.000   1.379  53.803  1.00  0.00     0.038 A 
HETATM    9  C12 UNL     1      25.908   1.631  53.006  1.00  0.00     0.033 A 
HETATM   10  C13 UNL     1      24.733   0.866  53.057  1.00  0.00     0.007 A 
HETATM   11  H5  UNL     1      23.147  -1.596  54.383  1.00  0.00     0.169 HD
ENDROOT
BRANCH   1  12
HETATM   12  C4  UNL     1      23.119   1.835  51.374  1.00  0.00     0.047 C 
BRANCH  12  13
HETATM   13  C3  UNL     1      22.507   2.830  50.580  1.00  0.00     0.035 C 
HETATM   14  C2  UNL     1      21.859   2.635  49.419  1.00  0.00    -0.029 C 
HETATM   15  C1  UNL     1      21.702   1.304  48.818  1.00  0.00     0.048 C 
HETATM   16  C15 UNL     1      21.284   3.773  48.663  1.00  0.00     0.154 C 
HETATM   17  O4  UNL     1      20.587   4.678  49.429  1.00  0.00    -0.363 OA
HETATM   18  C14 UNL     1      21.241   5.095  50.552  1.00  0.00     0.291 C 
HETATM   19  N2  UNL     1      22.407   4.259  50.826  1.00  0.00    -0.368 N 
HETATM   20  H10 UNL     1      23.284   4.677  51.248  1.00  0.00     0.161 HD
BRANCH  16  21
HETATM   21  C16 UNL     1      22.434   4.392  47.896  1.00  0.00     0.043 C 
BRANCH  21  22
HETATM   22  C17 UNL     1      22.061   4.910  46.541  1.00  0.00     0.072 C 
BRANCH  22  23
HETATM   23  C18 UNL     1      21.419   3.928  45.647  1.00  0.00     0.231 C 
HETATM   24  O5  UNL     1      21.806   3.535  44.576  1.00  0.00    -0.307 OA
ENDBRANCH  22  23
ENDBRANCH  21  22
ENDBRANCH  16  21
ENDBRANCH  12  13
ENDBRANCH   1  12
BRANCH   8  25
HETATM   25  C11 UNL     1      28.151   2.247  53.649  1.00  0.00     0.176 C 
HETATM   26  O2  UNL     1      29.035   2.442  54.521  1.00  0.00    -0.646 OA
BRANCH  25  27
HETATM   27  O3  UNL     1      28.316   2.928  52.454  1.00  0.00    -0.773 OA
HETATM   28  H8  UNL     1      28.053   2.504  51.550  1.00  0.00     0.167 HD
ENDBRANCH  25  27
ENDBRANCH   8  25
TORSDOF 7
ENDMDL
MODEL 5
REMARK VINA RESULT:      -7.5      2.547      5.055
REMARK  7 active torsions:
REMARK  status: ('A' for Active; 'I' for Inactive)
REMARK    1  A    between atoms: C3_3  and  C4_4 
REMARK    2  A    between atoms: C4_4  and  C5_5 
REMARK    3  A    between atoms: C10_12  and  C11_13 
REMARK    4  A    between atoms: C11_13  and  O3_15 
REMARK    5  A    between atoms: C15_21  and  C16_22 
REMARK    6  A    between atoms: C16_22  and  C17_23 
REMARK    7  A    between atoms: C17_23  and  C18_24 
ROOT
HETATM    1  C5  UNL     1      25.172   0.669  53.284  1.00  0.00     0.047 A 
HETATM    2  C6  UNL     1      26.251   0.078  54.062  1.00  0.00     0.257 A 
HETATM    3  O1  UNL     1      27.472   0.058  54.259  1.00  0.00    -0.267 OA
HETATM    4  N1  UNL     1      25.666  -0.854  54.961  1.00  0.00    -0.322 N 
HETATM    5  C7  UNL     1      24.260  -0.866  54.770  1.00  0.00     0.046 A 
HETATM    6  C8  UNL     1      23.152  -1.504  55.284  1.00  0.00     0.031 A 
HETATM    7  C9  UNL     1      21.837  -1.346  54.926  1.00  0.00     0.020 A 
HETATM    8  C10 UNL     1      21.562  -0.438  53.930  1.00  0.00     0.038 A 
HETATM    9  C12 UNL     1      22.626   0.234  53.375  1.00  0.00     0.033 A 
HETATM   10  C13 UNL     1      23.952   0.030  53.782  1.00  0.00     0.007 A 
HETATM   11  H5  UNL     1      25.996  -1.526  55.717  1.00  0.00     0.169 HD
ENDROOT
BRANCH   1  12
HETATM   12  C4  UNL     1      25.418   1.540  52.385  1.00  0.00     0.047 C 
BRANCH  12  13
HETATM   13  C3  UNL     1      25.398   2.529  51.378  1.00  0.00     0.035 C 
HETATM   14  C2  UNL     1      24.568   3.585  51.314  1.00  0.00    -0.029 C 
HETATM   15  C1  UNL     1      23.545   3.845  52.334  1.00  0.00     0.048 C 
HETATM   16  C15 UNL     1      24.630   4.539  50.182  1.00  0.00     0.154 C 
HETATM   17  O4  UNL     1      25.899   4.934  49.831  1.00  0.00    -0.363 OA
HETATM   18  C14 UNL     1      26.791   3.912  49.680  1.00  0.00     0.291 C 
HETATM   19  N2  UNL     1      26.256   2.662  50.212  1.00  0.00    -0.368 N 
HETATM   20  H10 UNL     1      26.488   1.736  49.752  1.00  0.00     0.161 HD
BRANCH  16  21
HETATM   21  C16 UNL     1      23.864   3.893  49.045  1.00  0.00     0.043 C 
BRANCH  21  22
HETATM   22  C17 UNL     1      22.859   4.791  48.393  1.00  0.00     0.072 C 
BRANCH  22  23
HETATM   23  C18 UNL     1      22.091   5.650  49.313  1.00  0.00     0.231 C 
HETATM   24  O5  UNL     1      21.180   5.336  50.037  1.00  0.00    -0.307 OA
ENDBRANCH  22  23
ENDBRANCH  21  22
ENDBRANCH  16  21
ENDBRANCH  12  13
ENDBRANCH   1  12
BRANCH   8  25
HETATM   25  C11 UNL     1      20.240  -0.133  53.416  1.00  0.00     0.176 C 
HETATM   26  O2  UNL     1      19.972   0.783  52.598  1.00  0.00    -0.646 OA
BRANCH  25  27
HETATM   27  O3  UNL     1      19.168  -0.898  53.845  1.00  0.00    -0.773 OA
HETATM   28  H8  UNL     1      18.274  -0.465  54.126  1.00  0.00     0.167 HD
ENDBRANCH  25  27
ENDBRANCH   8  25
TORSDOF 7
ENDMDL
MODEL 6
REMARK VINA RESULT:      -7.5      1.959      6.946
REMARK  7 active torsions:
REMARK  status: ('A' for Active; 'I' for Inactive)
REMARK    1  A    between atoms: C3_3  and  C4_4 
REMARK    2  A    between atoms: C4_4  and  C5_5 
REMARK    3  A    between atoms: C10_12  and  C11_13 
REMARK    4  A    between atoms: C11_13  and  O3_15 
REMARK    5  A    between atoms: C15_21  and  C16_22 
REMARK    6  A    between atoms: C16_22  and  C17_23 
REMARK    7  A    between atoms: C17_23  and  C18_24 
ROOT
HETATM    1  C5  UNL     1      23.153  -0.443  53.723  1.00  0.00     0.047 A 
HETATM    2  C6  UNL     1      23.413  -1.259  54.900  1.00  0.00     0.257 A 
HETATM    3  O1  UNL     1      22.928  -2.051  55.717  1.00  0.00    -0.267 OA
HETATM    4  N1  UNL     1      24.775  -1.070  55.257  1.00  0.00    -0.322 N 
HETATM    5  C7  UNL     1      25.374  -0.165  54.344  1.00  0.00     0.046 A 
HETATM    6  C8  UNL     1      26.602   0.420  54.124  1.00  0.00     0.031 A 
HETATM    7  C9  UNL     1      26.959   1.302  53.136  1.00  0.00     0.020 A 
HETATM    8  C10 UNL     1      25.985   1.663  52.234  1.00  0.00     0.038 A 
HETATM    9  C12 UNL     1      24.736   1.113  52.398  1.00  0.00     0.033 A 
HETATM   10  C13 UNL     1      24.428   0.214  53.430  1.00  0.00     0.007 A 
HETATM   11  H5  UNL     1      25.443  -1.419  56.007  1.00  0.00     0.169 HD
ENDROOT
BRANCH   1  12
HETATM   12  C4  UNL     1      21.994  -0.415  53.192  1.00  0.00     0.047 C 
BRANCH  12  13
HETATM   13  C3  UNL     1      20.732  -0.094  52.644  1.00  0.00     0.035 C 
HETATM   14  C2  UNL     1      20.502   0.436  51.430  1.00  0.00    -0.029 C 
HETATM   15  C1  UNL     1      21.585   0.753  50.491  1.00  0.00     0.048 C 
HETATM   16  C15 UNL     1      19.125   0.756  50.984  1.00  0.00     0.154 C 
HETATM   17  O4  UNL     1      18.197  -0.226  51.237  1.00  0.00    -0.363 OA
HETATM   18  C14 UNL     1      18.215  -0.710  52.513  1.00  0.00     0.291 C 
HETATM   19  N2  UNL     1      19.412  -0.275  53.226  1.00  0.00    -0.368 N 
HETATM   20  H10 UNL     1      19.378  -0.066  54.264  1.00  0.00     0.161 HD
BRANCH  16  21
HETATM   21  C16 UNL     1      18.779   2.091  51.613  1.00  0.00     0.043 C 
BRANCH  21  22
HETATM   22  C17 UNL     1      18.229   3.099  50.651  1.00  0.00     0.072 C 
BRANCH  22  23
HETATM   23  C18 UNL     1      19.116   3.441  49.523  1.00  0.00     0.231 C 
HETATM   24  O5  UNL     1      20.192   3.982  49.563  1.00  0.00    -0.307 OA
ENDBRANCH  22  23
ENDBRANCH  21  22
ENDBRANCH  16  21
ENDBRANCH  12  13
ENDBRANCH   1  12
BRANCH   8  25
HETATM   25  C11 UNL     1      26.169   2.579  51.124  1.00  0.00     0.176 C 
HETATM   26  O2  UNL     1      25.352   2.757  50.186  1.00  0.00    -0.646 OA
BRANCH  25  27
HETATM   27  O3  UNL     1      27.330   3.333  51.070  1.00  0.00    -0.773 OA
HETATM   28  H8  UNL     1      28.211   2.941  50.700  1.00  0.00     0.167 HD
ENDBRANCH  25  27
ENDBRANCH   8  25
TORSDOF 7
ENDMDL
MODEL 7
REMARK VINA RESULT:      -7.4      2.645      5.817
REMARK  7 active torsions:
REMARK  status: ('A' for Active; 'I' for Inactive)
REMARK    1  A    between atoms: C3_3  and  C4_4 
REMARK    2  A    between atoms: C4_4  and  C5_5 
REMARK    3  A    between atoms: C10_12  and  C11_13 
REMARK    4  A    between atoms: C11_13  and  O3_15 
REMARK    5  A    between atoms: C15_21  and  C16_22 
REMARK    6  A    between atoms: C16_22  and  C17_23 
REMARK    7  A    between atoms: C17_23  and  C18_24 
ROOT
HETATM    1  C5  UNL     1      21.817   0.007  52.689  1.00  0.00     0.047 A 
HETATM    2  C6  UNL     1      20.574  -0.487  53.263  1.00  0.00     0.257 A 
HETATM    3  O1  UNL     1      19.349  -0.581  53.112  1.00  0.00    -0.267 OA
HETATM    4  N1  UNL     1      20.894  -1.118  54.494  1.00  0.00    -0.322 N 
HETATM    5  C7  UNL     1      22.294  -1.034  54.709  1.00  0.00     0.046 A 
HETATM    6  C8  UNL     1      23.220  -1.421  55.654  1.00  0.00     0.031 A 
HETATM    7  C9  UNL     1      24.577  -1.221  55.647  1.00  0.00     0.020 A 
HETATM    8  C10 UNL     1      25.107  -0.552  54.568  1.00  0.00     0.038 A 
HETATM    9  C12 UNL     1      24.236  -0.140  53.589  1.00  0.00     0.033 A 
HETATM   10  C13 UNL     1      22.854  -0.373  53.650  1.00  0.00     0.007 A 
HETATM   11  H5  UNL     1      20.375  -1.621  55.275  1.00  0.00     0.169 HD
ENDROOT
BRANCH   1  12
HETATM   12  C4  UNL     1      21.820   0.630  51.577  1.00  0.00     0.047 C 
BRANCH  12  13
HETATM   13  C3  UNL     1      21.944   1.537  50.500  1.00  0.00     0.035 C 
HETATM   14  C2  UNL     1      23.014   2.301  50.222  1.00  0.00    -0.029 C 
HETATM   15  C1  UNL     1      24.234   2.276  51.039  1.00  0.00     0.048 C 
HETATM   16  C15 UNL     1      23.006   3.240  49.075  1.00  0.00     0.154 C 
HETATM   17  O4  UNL     1      22.503   2.716  47.907  1.00  0.00    -0.363 OA
HETATM   18  C14 UNL     1      21.307   2.073  48.043  1.00  0.00     0.291 C 
HETATM   19  N2  UNL     1      20.988   1.840  49.448  1.00  0.00    -0.368 N 
HETATM   20  H10 UNL     1      19.985   1.876  49.787  1.00  0.00     0.161 HD
BRANCH  16  21
HETATM   21  C16 UNL     1      22.269   4.477  49.548  1.00  0.00     0.043 C 
BRANCH  21  22
HETATM   22  C17 UNL     1      23.068   5.740  49.456  1.00  0.00     0.072 C 
BRANCH  22  23
HETATM   23  C18 UNL     1      23.951   6.011  50.606  1.00  0.00     0.231 C 
HETATM   24  O5  UNL     1      23.769   5.734  51.764  1.00  0.00    -0.307 OA
ENDBRANCH  22  23
ENDBRANCH  21  22
ENDBRANCH  16  21
ENDBRANCH  12  13
ENDBRANCH   1  12
BRANCH   8  25
HETATM   25  C11 UNL     1      26.513  -0.247  54.382  1.00  0.00     0.176 C 
HETATM   26  O2  UNL     1      27.104   0.763  54.842  1.00  0.00    -0.646 OA
BRANCH  25  27
HETATM   27  O3  UNL     1      27.291  -1.121  53.640  1.00  0.00    -0.773 OA
HETATM   28  H8  UNL     1      27.333  -1.067  52.610  1.00  0.00     0.167 HD
ENDBRANCH  25  27
ENDBRANCH   8  25
TORSDOF 7
ENDMDL
MODEL 8
REMARK VINA RESULT:      -7.4      3.289      5.902
REMARK  7 active torsions:
REMARK  status: ('A' for Active; 'I' for Inactive)
REMARK    1  A    between atoms: C3_3  and  C4_4 
REMARK    2  A    between atoms: C4_4  and  C5_5 
REMARK    3  A    between atoms: C10_12  and  C11_13 
REMARK    4  A    between atoms: C11_13  and  O3_15 
REMARK    5  A    between atoms: C15_21  and  C16_22 
REMARK    6  A    between atoms: C16_22  and  C17_23 
REMARK    7  A    between atoms: C17_23  and  C18_24 
ROOT
HETATM    1  C5  UNL     1      25.381   2.178  52.283  1.00  0.00     0.047 A 
HETATM    2  C6  UNL     1      26.800   2.014  52.563  1.00  0.00     0.257 A 
HETATM    3  O1  UNL     1      27.936   2.459  52.359  1.00  0.00    -0.267 OA
HETATM    4  N1  UNL     1      26.938   0.889  53.419  1.00  0.00    -0.322 N 
HETATM    5  C7  UNL     1      25.655   0.344  53.682  1.00  0.00     0.046 A 
HETATM    6  C8  UNL     1      25.100  -0.695  54.397  1.00  0.00     0.031 A 
HETATM    7  C9  UNL     1      23.777  -1.041  54.506  1.00  0.00     0.020 A 
HETATM    8  C10 UNL     1      22.867  -0.266  53.826  1.00  0.00     0.038 A 
HETATM    9  C12 UNL     1      23.357   0.789  53.094  1.00  0.00     0.033 A 
HETATM   10  C13 UNL     1      24.724   1.096  53.018  1.00  0.00     0.007 A 
HETATM   11  H5  UNL     1      27.728   0.363  53.900  1.00  0.00     0.169 HD
ENDROOT
BRANCH   1  12
HETATM   12  C4  UNL     1      24.970   3.116  51.524  1.00  0.00     0.047 C 
BRANCH  12  13
HETATM   13  C3  UNL     1      24.797   4.228  50.670  1.00  0.00     0.035 C 
HETATM   14  C2  UNL     1      25.607   4.589  49.659  1.00  0.00    -0.029 C 
HETATM   15  C1  UNL     1      26.814   3.831  49.307  1.00  0.00     0.048 C 
HETATM   16  C15 UNL     1      25.330   5.802  48.853  1.00  0.00     0.154 C 
HETATM   17  O4  UNL     1      24.020   5.945  48.463  1.00  0.00    -0.363 OA
HETATM   18  C14 UNL     1      23.107   5.785  49.465  1.00  0.00     0.291 C 
HETATM   19  N2  UNL     1      23.726   5.210  50.656  1.00  0.00    -0.368 N 
HETATM   20  H10 UNL     1      23.400   5.492  51.624  1.00  0.00     0.161 HD
BRANCH  16  21
HETATM   21  C16 UNL     1      25.850   6.972  49.662  1.00  0.00     0.043 C 
BRANCH  21  22
HETATM   22  C17 UNL     1      27.065   7.629  49.082  1.00  0.00     0.072 C 
BRANCH  22  23
HETATM   23  C18 UNL     1      27.288   9.024  49.504  1.00  0.00     0.231 C 
HETATM   24  O5  UNL     1      26.776   9.613  50.423  1.00  0.00    -0.307 OA
ENDBRANCH  22  23
ENDBRANCH  21  22
ENDBRANCH  16  21
ENDBRANCH  12  13
ENDBRANCH   1  12
BRANCH   8  25
HETATM   25  C11 UNL     1      21.431  -0.472  53.819  1.00  0.00     0.176 C 
HETATM   26  O2  UNL     1      20.641  -0.051  52.936  1.00  0.00    -0.646 OA
BRANCH  25  27
HETATM   27  O3  UNL     1      20.857  -1.189  54.856  1.00  0.00    -0.773 OA
HETATM   28  H8  UNL     1      20.437  -2.120  54.702  1.00  0.00     0.167 HD
ENDBRANCH  25  27
ENDBRANCH   8  25
TORSDOF 7
ENDMDL
MODEL 9
REMARK VINA RESULT:      -7.3      4.223      7.776
REMARK  7 active torsions:
REMARK  status: ('A' for Active; 'I' for Inactive)
REMARK    1  A    between atoms: C3_3  and  C4_4 
REMARK    2  A    between atoms: C4_4  and  C5_5 
REMARK    3  A    between atoms: C10_12  and  C11_13 
REMARK    4  A    between atoms: C11_13  and  O3_15 
REMARK    5  A    between atoms: C15_21  and  C16_22 
REMARK    6  A    between atoms: C16_22  and  C17_23 
REMARK    7  A    between atoms: C17_23  and  C18_24 
ROOT
HETATM    1  C5  UNL     1      24.997   3.143  50.540  1.00  0.00     0.047 A 
HETATM    2  C6  UNL     1      23.644   2.641  50.352  1.00  0.00     0.257 A 
HETATM    3  O1  UNL     1      22.569   2.805  49.761  1.00  0.00    -0.267 OA
HETATM    4  N1  UNL     1      23.495   1.498  51.183  1.00  0.00    -0.322 N 
HETATM    5  C7  UNL     1      24.707   1.270  51.883  1.00  0.00     0.046 A 
HETATM    6  C8  UNL     1      25.220   0.379  52.801  1.00  0.00     0.031 A 
HETATM    7  C9  UNL     1      26.473   0.358  53.358  1.00  0.00     0.020 A 
HETATM    8  C10 UNL     1      27.352   1.341  52.965  1.00  0.00     0.038 A 
HETATM    9  C12 UNL     1      26.902   2.262  52.049  1.00  0.00     0.033 A 
HETATM   10  C13 UNL     1      25.606   2.234  51.513  1.00  0.00     0.007 A 
HETATM   11  H5  UNL     1      22.735   0.790  51.412  1.00  0.00     0.169 HD
ENDROOT
BRANCH   1  12
HETATM   12  C4  UNL     1      25.400   4.179  49.916  1.00  0.00     0.047 C 
BRANCH  12  13
HETATM   13  C3  UNL     1      25.604   5.449  49.332  1.00  0.00     0.035 C 
HETATM   14  C2  UNL     1      26.722   5.873  48.717  1.00  0.00    -0.029 C 
HETATM   15  C1  UNL     1      27.911   5.024  48.571  1.00  0.00     0.048 C 
HETATM   16  C15 UNL     1      26.821   7.247  48.171  1.00  0.00     0.154 C 
HETATM   17  O4  UNL     1      25.722   7.661  47.456  1.00  0.00    -0.363 OA
HETATM   18  C14 UNL     1      24.526   7.450  48.080  1.00  0.00     0.291 C 
HETATM   19  N2  UNL     1      24.680   6.567  49.232  1.00  0.00    -0.368 N 
HETATM   20  H10 UNL     1      24.086   6.701  50.098  1.00  0.00     0.161 HD
BRANCH  16  21
HETATM   21  C16 UNL     1      27.150   8.145  49.347  1.00  0.00     0.043 C 
BRANCH  21  22
HETATM   22  C17 UNL     1      28.119   9.241  49.030  1.00  0.00     0.072 C 
BRANCH  22  23
HETATM   23  C18 UNL     1      27.511  10.543  48.699  1.00  0.00     0.231 C 
HETATM   24  O5  UNL     1      26.430  10.963  49.028  1.00  0.00    -0.307 OA
ENDBRANCH  22  23
ENDBRANCH  21  22
ENDBRANCH  16  21
ENDBRANCH  12  13
ENDBRANCH   1  12
BRANCH   8  25
HETATM   25  C11 UNL     1      28.715   1.485  53.440  1.00  0.00     0.176 C 
HETATM   26  O2  UNL     1      29.390   0.580  53.993  1.00  0.00    -0.646 OA
BRANCH  25  27
HETATM   27  O3  UNL     1      29.348   2.706  53.283  1.00  0.00    -0.773 OA
HETATM   28  H8  UNL     1      29.009   3.408  52.605  1.00  0.00     0.167 HD
ENDBRANCH  25  27
ENDBRANCH   8  25
TORSDOF 7
ENDMDL
