MODEL 1
REMARK VINA RESULT:      -8.8      0.000      0.000
REMARK  5 active torsions:
REMARK  status: ('A' for Active; 'I' for Inactive)
REMARK    1  A    between atoms: C2_3  and  C3_4 
REMARK    2  A    between atoms: C6_7  and  O2_8 
REMARK    3  A    between atoms: C11_14  and  O4_15 
REMARK    4  A    between atoms: C12_16  and  O5_17 
REMARK    5  A    between atoms: C13_18  and  O6_19 
ROOT
HETATM    1  O1  UNL     1      25.488  -1.414  54.668  1.00  0.00    -0.287 OA
HETATM    2  C1  UNL     1      25.617  -0.399  53.981  1.00  0.00     0.197 C 
HETATM    3  C2  UNL     1      24.527   0.355  53.369  1.00  0.00     0.047 C 
HETATM    4  C9  UNL     1      24.871   1.421  52.664  1.00  0.00     0.152 C 
HETATM    5  O3  UNL     1      26.199   1.864  52.472  1.00  0.00    -0.345 OA
HETATM    6  C10 UNL     1      27.070   1.601  53.552  1.00  0.00     0.227 A 
HETATM    7  C11 UNL     1      28.480   1.876  53.332  1.00  0.00     0.113 A 
HETATM    8  C12 UNL     1      29.135   0.704  53.406  1.00  0.00     0.132 A 
HETATM    9  C13 UNL     1      28.187  -0.398  53.670  1.00  0.00     0.114 A 
HETATM   10  C14 UNL     1      26.987   0.108  53.749  1.00  0.00     0.065 A 
ENDROOT
BRANCH   3  11
HETATM   11  C3  UNL     1      23.140  -0.034  53.519  1.00  0.00    -0.020 A 
HETATM   12  C4  UNL     1      22.179   0.474  52.676  1.00  0.00     0.015 A 
HETATM   13  C5  UNL     1      20.835   0.166  52.739  1.00  0.00     0.037 A 
HETATM   14  C6  UNL     1      20.369  -0.718  53.705  1.00  0.00     0.065 A 
HETATM   15  C7  UNL     1      21.318  -1.253  54.578  1.00  0.00     0.037 A 
HETATM   16  C8  UNL     1      22.639  -0.886  54.440  1.00  0.00     0.015 A 
BRANCH  14  17
HETATM   17  O2  UNL     1      19.039  -1.062  53.814  1.00  0.00    -0.361 OA
HETATM   18  H3  UNL     1      18.760  -2.037  53.888  1.00  0.00     0.217 HD
ENDBRANCH  14  17
ENDBRANCH   3  11
BRANCH   9  19
HETATM   19  O6  UNL     1      28.415  -1.754  53.824  1.00  0.00    -0.357 OA
HETATM   20  H10 UNL     1      28.386  -2.325  52.991  1.00  0.00     0.217 HD
ENDBRANCH   9  19
BRANCH   7  21
HETATM   21  O4  UNL     1      29.031   3.125  53.089  1.00  0.00    -0.359 OA
HETATM   22  H8  UNL     1      28.826   3.653  52.238  1.00  0.00     0.217 HD
ENDBRANCH   7  21
BRANCH   8  23
HETATM   23  O5  UNL     1      30.493   0.495  53.263  1.00  0.00    -0.356 OA
HETATM   24  H9  UNL     1      31.199   1.170  53.523  1.00  0.00     0.218 HD
ENDBRANCH   8  23
TORSDOF 5
ENDMDL
MODEL 2
REMARK VINA RESULT:      -8.4      2.546      3.775
REMARK  5 active torsions:
REMARK  status: ('A' for Active; 'I' for Inactive)
REMARK    1  A    between atoms: C2_3  and  C3_4 
REMARK    2  A    between atoms: C6_7  and  O2_8 
REMARK    3  A    between atoms: C11_14  and  O4_15 
REMARK    4  A    between atoms: C12_16  and  O5_17 
REMARK    5  A    between atoms: C13_18  and  O6_19 
ROOT
HETATM    1  O1  UNL     1      27.483   2.289  52.274  1.00  0.00    -0.287 OA
HETATM    2  C1  UNL     1      27.036   1.212  52.674  1.00  0.00     0.197 C 
HETATM    3  C2  UNL     1      25.622   0.877  52.806  1.00  0.00     0.047 C 
HETATM    4  C9  UNL     1      25.342  -0.336  53.255  1.00  0.00     0.152 C 
HETATM    5  O3  UNL     1      26.309  -1.305  53.607  1.00  0.00    -0.345 OA
HETATM    6  C10 UNL     1      27.504  -1.247  52.857  1.00  0.00     0.227 A 
HETATM    7  C11 UNL     1      28.592  -2.102  53.298  1.00  0.00     0.113 A 
HETATM    8  C12 UNL     1      29.600  -1.303  53.688  1.00  0.00     0.132 A 
HETATM    9  C13 UNL     1      29.220   0.117  53.530  1.00  0.00     0.114 A 
HETATM   10  C14 UNL     1      28.006   0.161  53.056  1.00  0.00     0.065 A 
ENDROOT
BRANCH   3  11
HETATM   11  C3  UNL     1      24.572   1.814  52.465  1.00  0.00    -0.020 A 
HETATM   12  C4  UNL     1      23.609   1.476  51.543  1.00  0.00     0.015 A 
HETATM   13  C5  UNL     1      22.571   2.298  51.152  1.00  0.00     0.037 A 
HETATM   14  C6  UNL     1      22.445   3.569  51.704  1.00  0.00     0.065 A 
HETATM   15  C7  UNL     1      23.406   3.944  52.643  1.00  0.00     0.037 A 
HETATM   16  C8  UNL     1      24.408   3.056  52.970  1.00  0.00     0.015 A 
BRANCH  14  17
HETATM   17  O2  UNL     1      21.429   4.431  51.351  1.00  0.00    -0.361 OA
HETATM   18  H3  UNL     1      20.713   4.691  52.025  1.00  0.00     0.217 HD
ENDBRANCH  14  17
ENDBRANCH   3  11
BRANCH   9  19
HETATM   19  O6  UNL     1      29.938   1.268  53.801  1.00  0.00    -0.357 OA
HETATM   20  H10 UNL     1      30.251   1.404  54.751  1.00  0.00     0.217 HD
ENDBRANCH   9  19
BRANCH   7  21
HETATM   21  O4  UNL     1      28.575  -3.489  53.310  1.00  0.00    -0.359 OA
HETATM   22  H8  UNL     1      28.164  -4.020  54.081  1.00  0.00     0.217 HD
ENDBRANCH   7  21
BRANCH   8  23
HETATM   23  O5  UNL     1      30.833  -1.689  54.177  1.00  0.00    -0.356 OA
HETATM   24  H9  UNL     1      30.975  -2.097  55.091  1.00  0.00     0.218 HD
ENDBRANCH   8  23
TORSDOF 5
ENDMDL
MODEL 3
REMARK VINA RESULT:      -8.3      1.037      2.565
REMARK  5 active torsions:
REMARK  status: ('A' for Active; 'I' for Inactive)
REMARK    1  A    between atoms: C2_3  and  C3_4 
REMARK    2  A    between atoms: C6_7  and  O2_8 
REMARK    3  A    between atoms: C11_14  and  O4_15 
REMARK    4  A    between atoms: C12_16  and  O5_17 
REMARK    5  A    between atoms: C13_18  and  O6_19 
ROOT
HETATM    1  O1  UNL     1      24.143   1.286  51.889  1.00  0.00    -0.287 OA
HETATM    2  C1  UNL     1      24.646   0.647  52.814  1.00  0.00     0.197 C 
HETATM    3  C2  UNL     1      23.915  -0.173  53.775  1.00  0.00     0.047 C 
HETATM    4  C9  UNL     1      24.638  -0.783  54.700  1.00  0.00     0.152 C 
HETATM    5  O3  UNL     1      26.044  -0.691  54.812  1.00  0.00    -0.345 OA
HETATM    6  C10 UNL     1      26.724  -0.530  53.585  1.00  0.00     0.227 A 
HETATM    7  C11 UNL     1      28.148  -0.252  53.662  1.00  0.00     0.113 A 
HETATM    8  C12 UNL     1      28.348   0.975  53.153  1.00  0.00     0.132 A 
HETATM    9  C13 UNL     1      27.064   1.568  52.725  1.00  0.00     0.114 A 
HETATM   10  C14 UNL     1      26.116   0.709  52.977  1.00  0.00     0.065 A 
ENDROOT
BRANCH   3  11
HETATM   11  C3  UNL     1      22.475  -0.319  53.727  1.00  0.00    -0.020 A 
HETATM   12  C4  UNL     1      21.878  -1.479  54.162  1.00  0.00     0.015 A 
HETATM   13  C5  UNL     1      20.518  -1.713  54.157  1.00  0.00     0.037 A 
HETATM   14  C6  UNL     1      19.646  -0.736  53.689  1.00  0.00     0.065 A 
HETATM   15  C7  UNL     1      20.219   0.454  53.239  1.00  0.00     0.037 A 
HETATM   16  C8  UNL     1      21.589   0.598  53.282  1.00  0.00     0.015 A 
BRANCH  14  17
HETATM   17  O2  UNL     1      18.280  -0.915  53.660  1.00  0.00    -0.361 OA
HETATM   18  H3  UNL     1      17.834  -1.377  52.872  1.00  0.00     0.217 HD
ENDBRANCH  14  17
ENDBRANCH   3  11
BRANCH   9  19
HETATM   19  O6  UNL     1      26.797   2.798  52.151  1.00  0.00    -0.357 OA
HETATM   20  H10 UNL     1      26.928   2.880  51.153  1.00  0.00     0.217 HD
ENDBRANCH   9  19
BRANCH   7  21
HETATM   21  O4  UNL     1      29.111  -1.110  54.172  1.00  0.00    -0.359 OA
HETATM   22  H8  UNL     1      29.952  -1.357  53.646  1.00  0.00     0.217 HD
ENDBRANCH   7  21
BRANCH   8  23
HETATM   23  O5  UNL     1      29.551   1.642  53.024  1.00  0.00    -0.356 OA
HETATM   24  H9  UNL     1      30.375   1.430  53.571  1.00  0.00     0.218 HD
ENDBRANCH   8  23
TORSDOF 5
ENDMDL
MODEL 4
REMARK VINA RESULT:      -7.8      1.651      7.021
REMARK  5 active torsions:
REMARK  status: ('A' for Active; 'I' for Inactive)
REMARK    1  A    between atoms: C2_3  and  C3_4 
REMARK    2  A    between atoms: C6_7  and  O2_8 
REMARK    3  A    between atoms: C11_14  and  O4_15 
REMARK    4  A    between atoms: C12_16  and  O5_17 
REMARK    5  A    between atoms: C13_18  and  O6_19 
ROOT
HETATM    1  O1  UNL     1      23.638  -1.195  53.910  1.00  0.00    -0.287 OA
HETATM    2  C1  UNL     1      23.034  -0.231  53.438  1.00  0.00     0.197 C 
HETATM    3  C2  UNL     1      23.648   1.009  52.972  1.00  0.00     0.047 C 
HETATM    4  C9  UNL     1      22.827   1.932  52.497  1.00  0.00     0.152 C 
HETATM    5  O3  UNL     1      21.423   1.793  52.415  1.00  0.00    -0.345 OA
HETATM    6  C10 UNL     1      20.973   0.473  52.192  1.00  0.00     0.227 A 
HETATM    7  C11 UNL     1      19.539   0.252  52.278  1.00  0.00     0.113 A 
HETATM    8  C12 UNL     1      19.320  -0.574  53.315  1.00  0.00     0.132 A 
HETATM    9  C13 UNL     1      20.599  -0.930  53.966  1.00  0.00     0.114 A 
HETATM   10  C14 UNL     1      21.561  -0.323  53.329  1.00  0.00     0.065 A 
ENDROOT
BRANCH   3  11
HETATM   11  C3  UNL     1      25.079   1.228  53.022  1.00  0.00    -0.020 A 
HETATM   12  C4  UNL     1      25.929   0.450  52.270  1.00  0.00     0.015 A 
HETATM   13  C5  UNL     1      27.303   0.580  52.250  1.00  0.00     0.037 A 
HETATM   14  C6  UNL     1      27.921   1.554  53.027  1.00  0.00     0.065 A 
HETATM   15  C7  UNL     1      27.088   2.361  53.803  1.00  0.00     0.037 A 
HETATM   16  C8  UNL     1      25.725   2.156  53.759  1.00  0.00     0.015 A 
BRANCH  14  17
HETATM   17  O2  UNL     1      29.287   1.729  53.046  1.00  0.00    -0.361 OA
HETATM   18  H3  UNL     1      29.756   2.061  53.885  1.00  0.00     0.217 HD
ENDBRANCH  14  17
ENDBRANCH   3  11
BRANCH   9  19
HETATM   19  O6  UNL     1      20.848  -1.746  55.055  1.00  0.00    -0.357 OA
HETATM   20  H10 UNL     1      20.149  -1.771  55.784  1.00  0.00     0.217 HD
ENDBRANCH   9  19
BRANCH   7  21
HETATM   21  O4  UNL     1      18.586   0.804  51.435  1.00  0.00    -0.359 OA
HETATM   22  H8  UNL     1      17.598   0.542  51.488  1.00  0.00     0.217 HD
ENDBRANCH   7  21
BRANCH   8  23
HETATM   23  O5  UNL     1      18.104  -1.055  53.759  1.00  0.00    -0.356 OA
HETATM   24  H9  UNL     1      17.546  -0.606  54.473  1.00  0.00     0.218 HD
ENDBRANCH   8  23
TORSDOF 5
ENDMDL
MODEL 5
REMARK VINA RESULT:      -7.7      1.619      2.956
REMARK  5 active torsions:
REMARK  status: ('A' for Active; 'I' for Inactive)
REMARK    1  A    between atoms: C2_3  and  C3_4 
REMARK    2  A    between atoms: C6_7  and  O2_8 
REMARK    3  A    between atoms: C11_14  and  O4_15 
REMARK    4  A    between atoms: C12_16  and  O5_17 
REMARK    5  A    between atoms: C13_18  and  O6_19 
ROOT
HETATM    1  O1  UNL     1      24.764   2.264  51.145  1.00  0.00    -0.287 OA
HETATM    2  C1  UNL     1      24.905   1.405  52.016  1.00  0.00     0.197 C 
HETATM    3  C2  UNL     1      23.823   0.691  52.687  1.00  0.00     0.047 C 
HETATM    4  C9  UNL     1      24.179  -0.199  53.599  1.00  0.00     0.152 C 
HETATM    5  O3  UNL     1      25.514  -0.494  53.955  1.00  0.00    -0.345 OA
HETATM    6  C10 UNL     1      26.449  -0.364  52.904  1.00  0.00     0.227 A 
HETATM    7  C11 UNL     1      27.851  -0.483  53.262  1.00  0.00     0.113 A 
HETATM    8  C12 UNL     1      28.432   0.704  53.013  1.00  0.00     0.132 A 
HETATM    9  C13 UNL     1      27.437   1.662  52.487  1.00  0.00     0.114 A 
HETATM   10  C14 UNL     1      26.284   1.057  52.427  1.00  0.00     0.065 A 
ENDROOT
BRANCH   3  11
HETATM   11  C3  UNL     1      22.429   0.936  52.377  1.00  0.00    -0.020 A 
HETATM   12  C4  UNL     1      21.841   2.132  52.716  1.00  0.00     0.015 A 
HETATM   13  C5  UNL     1      20.523   2.459  52.466  1.00  0.00     0.037 A 
HETATM   14  C6  UNL     1      19.691   1.548  51.825  1.00  0.00     0.065 A 
HETATM   15  C7  UNL     1      20.256   0.324  51.467  1.00  0.00     0.037 A 
HETATM   16  C8  UNL     1      21.582   0.085  51.760  1.00  0.00     0.015 A 
BRANCH  14  17
HETATM   17  O2  UNL     1      18.368   1.821  51.549  1.00  0.00    -0.361 OA
HETATM   18  H3  UNL     1      17.779   1.127  51.097  1.00  0.00     0.217 HD
ENDBRANCH  14  17
ENDBRANCH   3  11
BRANCH   9  19
HETATM   19  O6  UNL     1      27.589   2.981  52.099  1.00  0.00    -0.357 OA
HETATM   20  H10 UNL     1      28.319   3.185  51.432  1.00  0.00     0.217 HD
ENDBRANCH   9  19
BRANCH   7  21
HETATM   21  O4  UNL     1      28.462  -1.620  53.768  1.00  0.00    -0.359 OA
HETATM   22  H8  UNL     1      28.577  -2.469  53.209  1.00  0.00     0.217 HD
ENDBRANCH   7  21
BRANCH   8  23
HETATM   23  O5  UNL     1      29.759   1.042  53.202  1.00  0.00    -0.356 OA
HETATM   24  H9  UNL     1      30.116   1.476  54.042  1.00  0.00     0.218 HD
ENDBRANCH   8  23
TORSDOF 5
ENDMDL
MODEL 6
REMARK VINA RESULT:      -7.7      3.496      5.210
REMARK  5 active torsions:
REMARK  status: ('A' for Active; 'I' for Inactive)
REMARK    1  A    between atoms: C2_3  and  C3_4 
REMARK    2  A    between atoms: C6_7  and  O2_8 
REMARK    3  A    between atoms: C11_14  and  O4_15 
REMARK    4  A    between atoms: C12_16  and  O5_17 
REMARK    5  A    between atoms: C13_18  and  O6_19 
ROOT
HETATM    1  O1  UNL     1      27.059   3.219  50.405  1.00  0.00    -0.287 OA
HETATM    2  C1  UNL     1      26.262   2.710  51.195  1.00  0.00     0.197 C 
HETATM    3  C2  UNL     1      24.808   2.752  51.078  1.00  0.00     0.047 C 
HETATM    4  C9  UNL     1      24.121   2.143  52.031  1.00  0.00     0.152 C 
HETATM    5  O3  UNL     1      24.698   1.470  53.132  1.00  0.00    -0.345 OA
HETATM    6  C10 UNL     1      25.946   0.864  52.865  1.00  0.00     0.227 A 
HETATM    7  C11 UNL     1      26.659   0.315  54.005  1.00  0.00     0.113 A 
HETATM    8  C12 UNL     1      27.797   1.016  54.144  1.00  0.00     0.132 A 
HETATM    9  C13 UNL     1      27.883   2.065  53.107  1.00  0.00     0.114 A 
HETATM   10  C14 UNL     1      26.813   1.991  52.365  1.00  0.00     0.065 A 
ENDROOT
BRANCH   3  11
HETATM   11  C3  UNL     1      24.141   3.421  49.980  1.00  0.00    -0.020 A 
HETATM   12  C4  UNL     1      23.245   2.739  49.190  1.00  0.00     0.015 A 
HETATM   13  C5  UNL     1      22.562   3.287  48.123  1.00  0.00     0.037 A 
HETATM   14  C6  UNL     1      22.757   4.622  47.784  1.00  0.00     0.065 A 
HETATM   15  C7  UNL     1      23.660   5.343  48.565  1.00  0.00     0.037 A 
HETATM   16  C8  UNL     1      24.297   4.711  49.611  1.00  0.00     0.015 A 
BRANCH  14  17
HETATM   17  O2  UNL     1      22.101   5.221  46.730  1.00  0.00    -0.361 OA
HETATM   18  H3  UNL     1      21.589   4.661  46.053  1.00  0.00     0.217 HD
ENDBRANCH  14  17
ENDBRANCH   3  11
BRANCH   9  19
HETATM   19  O6  UNL     1      28.868   3.007  52.871  1.00  0.00    -0.357 OA
HETATM   20  H10 UNL     1      28.827   3.863  53.406  1.00  0.00     0.217 HD
ENDBRANCH   9  19
BRANCH   7  21
HETATM   21  O4  UNL     1      26.227  -0.740  54.796  1.00  0.00    -0.359 OA
HETATM   22  H8  UNL     1      25.997  -1.655  54.402  1.00  0.00     0.217 HD
ENDBRANCH   7  21
BRANCH   8  23
HETATM   23  O5  UNL     1      28.781   0.833  55.097  1.00  0.00    -0.356 OA
HETATM   24  H9  UNL     1      29.297   1.589  55.526  1.00  0.00     0.218 HD
ENDBRANCH   8  23
TORSDOF 5
ENDMDL
MODEL 7
REMARK VINA RESULT:      -7.6      1.839      7.166
REMARK  5 active torsions:
REMARK  status: ('A' for Active; 'I' for Inactive)
REMARK    1  A    between atoms: C2_3  and  C3_4 
REMARK    2  A    between atoms: C6_7  and  O2_8 
REMARK    3  A    between atoms: C11_14  and  O4_15 
REMARK    4  A    between atoms: C12_16  and  O5_17 
REMARK    5  A    between atoms: C13_18  and  O6_19 
ROOT
HETATM    1  O1  UNL     1      23.833   1.810  51.230  1.00  0.00    -0.287 OA
HETATM    2  C1  UNL     1      23.431   0.954  52.021  1.00  0.00     0.197 C 
HETATM    3  C2  UNL     1      24.252   0.261  53.009  1.00  0.00     0.047 C 
HETATM    4  C9  UNL     1      23.634  -0.629  53.770  1.00  0.00     0.152 C 
HETATM    5  O3  UNL     1      22.258  -0.940  53.685  1.00  0.00    -0.345 OA
HETATM    6  C10 UNL     1      21.431   0.137  53.298  1.00  0.00     0.227 A 
HETATM    7  C11 UNL     1      20.039  -0.176  53.025  1.00  0.00     0.113 A 
HETATM    8  C12 UNL     1      19.817   0.075  51.723  1.00  0.00     0.132 A 
HETATM    9  C13 UNL     1      21.055   0.557  51.075  1.00  0.00     0.114 A 
HETATM   10  C14 UNL     1      21.998   0.590  51.976  1.00  0.00     0.065 A 
ENDROOT
BRANCH   3  11
HETATM   11  C3  UNL     1      25.668   0.524  53.158  1.00  0.00    -0.020 A 
HETATM   12  C4  UNL     1      26.588  -0.475  52.943  1.00  0.00     0.015 A 
HETATM   13  C5  UNL     1      27.955  -0.324  53.060  1.00  0.00     0.037 A 
HETATM   14  C6  UNL     1      28.490   0.909  53.417  1.00  0.00     0.065 A 
HETATM   15  C7  UNL     1      27.584   1.945  53.642  1.00  0.00     0.037 A 
HETATM   16  C8  UNL     1      26.235   1.700  53.502  1.00  0.00     0.015 A 
BRANCH  14  17
HETATM   17  O2  UNL     1      29.846   1.117  53.547  1.00  0.00    -0.361 OA
HETATM   18  H3  UNL     1      30.430   0.443  54.036  1.00  0.00     0.217 HD
ENDBRANCH  14  17
ENDBRANCH   3  11
BRANCH   9  19
HETATM   19  O6  UNL     1      21.287   0.933  49.764  1.00  0.00    -0.357 OA
HETATM   20  H10 UNL     1      21.660   0.231  49.141  1.00  0.00     0.217 HD
ENDBRANCH   9  19
BRANCH   7  21
HETATM   21  O4  UNL     1      19.121  -0.649  53.951  1.00  0.00    -0.359 OA
HETATM   22  H8  UNL     1      19.276  -0.568  54.959  1.00  0.00     0.217 HD
ENDBRANCH   7  21
BRANCH   8  23
HETATM   23  O5  UNL     1      18.630  -0.078  51.032  1.00  0.00    -0.356 OA
HETATM   24  H9  UNL     1      18.343   0.516  50.267  1.00  0.00     0.218 HD
ENDBRANCH   8  23
TORSDOF 5
ENDMDL
MODEL 8
REMARK VINA RESULT:      -7.5      1.889      2.275
REMARK  5 active torsions:
REMARK  status: ('A' for Active; 'I' for Inactive)
REMARK    1  A    between atoms: C2_3  and  C3_4 
REMARK    2  A    between atoms: C6_7  and  O2_8 
REMARK    3  A    between atoms: C11_14  and  O4_15 
REMARK    4  A    between atoms: C12_16  and  O5_17 
REMARK    5  A    between atoms: C13_18  and  O6_19 
ROOT
HETATM    1  O1  UNL     1      24.057  -0.859  53.112  1.00  0.00    -0.287 OA
HETATM    2  C1  UNL     1      24.763   0.147  53.194  1.00  0.00     0.197 C 
HETATM    3  C2  UNL     1      24.293   1.524  53.082  1.00  0.00     0.047 C 
HETATM    4  C9  UNL     1      25.210   2.472  53.198  1.00  0.00     0.152 C 
HETATM    5  O3  UNL     1      26.586   2.236  53.418  1.00  0.00    -0.345 OA
HETATM    6  C10 UNL     1      26.872   1.082  54.181  1.00  0.00     0.227 A 
HETATM    7  C11 UNL     1      28.270   0.700  54.283  1.00  0.00     0.113 A 
HETATM    8  C12 UNL     1      28.407  -0.494  53.682  1.00  0.00     0.132 A 
HETATM    9  C13 UNL     1      27.106  -0.951  53.148  1.00  0.00     0.114 A 
HETATM   10  C14 UNL     1      26.212  -0.043  53.425  1.00  0.00     0.065 A 
ENDROOT
BRANCH   3  11
HETATM   11  C3  UNL     1      22.900   1.848  52.858  1.00  0.00    -0.020 A 
HETATM   12  C4  UNL     1      22.550   3.027  52.240  1.00  0.00     0.015 A 
HETATM   13  C5  UNL     1      21.254   3.425  51.982  1.00  0.00     0.037 A 
HETATM   14  C6  UNL     1      20.189   2.610  52.352  1.00  0.00     0.065 A 
HETATM   15  C7  UNL     1      20.509   1.406  52.982  1.00  0.00     0.037 A 
HETATM   16  C8  UNL     1      21.833   1.093  53.199  1.00  0.00     0.015 A 
BRANCH  14  17
HETATM   17  O2  UNL     1      18.876   2.956  52.120  1.00  0.00    -0.361 OA
HETATM   18  H3  UNL     1      18.214   2.271  51.764  1.00  0.00     0.217 HD
ENDBRANCH  14  17
ENDBRANCH   3  11
BRANCH   9  19
HETATM   19  O6  UNL     1      26.780  -2.109  52.465  1.00  0.00    -0.357 OA
HETATM   20  H10 UNL     1      26.775  -2.065  51.456  1.00  0.00     0.217 HD
ENDBRANCH   9  19
BRANCH   7  21
HETATM   21  O4  UNL     1      29.268   1.446  54.892  1.00  0.00    -0.359 OA
HETATM   22  H8  UNL     1      29.667   2.280  54.455  1.00  0.00     0.217 HD
ENDBRANCH   7  21
BRANCH   8  23
HETATM   23  O5  UNL     1      29.565  -1.236  53.547  1.00  0.00    -0.356 OA
HETATM   24  H9  UNL     1      29.596  -2.245  53.585  1.00  0.00     0.218 HD
ENDBRANCH   8  23
TORSDOF 5
ENDMDL
MODEL 9
REMARK VINA RESULT:      -7.5      2.894      6.218
REMARK  5 active torsions:
REMARK  status: ('A' for Active; 'I' for Inactive)
REMARK    1  A    between atoms: C2_3  and  C3_4 
REMARK    2  A    between atoms: C6_7  and  O2_8 
REMARK    3  A    between atoms: C11_14  and  O4_15 
REMARK    4  A    between atoms: C12_16  and  O5_17 
REMARK    5  A    between atoms: C13_18  and  O6_19 
ROOT
HETATM    1  O1  UNL     1      27.140   2.393  50.934  1.00  0.00    -0.287 OA
HETATM    2  C1  UNL     1      26.053   2.288  51.503  1.00  0.00     0.197 C 
HETATM    3  C2  UNL     1      25.643   1.174  52.352  1.00  0.00     0.047 C 
HETATM    4  C9  UNL     1      24.430   1.245  52.874  1.00  0.00     0.152 C 
HETATM    5  O3  UNL     1      23.526   2.311  52.665  1.00  0.00    -0.345 OA
HETATM    6  C10 UNL     1      24.133   3.573  52.485  1.00  0.00     0.227 A 
HETATM    7  C11 UNL     1      23.260   4.665  52.091  1.00  0.00     0.113 A 
HETATM    8  C12 UNL     1      23.642   5.065  50.866  1.00  0.00     0.132 A 
HETATM    9  C13 UNL     1      24.780   4.250  50.392  1.00  0.00     0.114 A 
HETATM   10  C14 UNL     1      25.068   3.378  51.318  1.00  0.00     0.065 A 
ENDROOT
BRANCH   3  11
HETATM   11  C3  UNL     1      26.512   0.045  52.615  1.00  0.00    -0.020 A 
HETATM   12  C4  UNL     1      27.694   0.220  53.295  1.00  0.00     0.015 A 
HETATM   13  C5  UNL     1      28.587  -0.790  53.593  1.00  0.00     0.037 A 
HETATM   14  C6  UNL     1      28.315  -2.096  53.201  1.00  0.00     0.065 A 
HETATM   15  C7  UNL     1      27.124  -2.309  52.508  1.00  0.00     0.037 A 
HETATM   16  C8  UNL     1      26.294  -1.238  52.254  1.00  0.00     0.015 A 
BRANCH  14  17
HETATM   17  O2  UNL     1      29.170  -3.143  53.472  1.00  0.00    -0.361 OA
HETATM   18  H3  UNL     1      29.855  -3.444  52.783  1.00  0.00     0.217 HD
ENDBRANCH  14  17
ENDBRANCH   3  11
BRANCH   9  19
HETATM   19  O6  UNL     1      25.488   4.311  49.205  1.00  0.00    -0.357 OA
HETATM   20  H10 UNL     1      25.084   4.853  48.454  1.00  0.00     0.217 HD
ENDBRANCH   9  19
BRANCH   7  21
HETATM   21  O4  UNL     1      22.224   5.186  52.853  1.00  0.00    -0.359 OA
HETATM   22  H8  UNL     1      21.427   5.666  52.430  1.00  0.00     0.217 HD
ENDBRANCH   7  21
BRANCH   8  23
HETATM   23  O5  UNL     1      23.092   6.081  50.108  1.00  0.00    -0.356 OA
HETATM   24  H9  UNL     1      22.791   5.969  49.149  1.00  0.00     0.218 HD
ENDBRANCH   8  23
TORSDOF 5
ENDMDL
