MODEL 1
REMARK VINA RESULT:      -9.2      0.000      0.000
REMARK  5 active torsions:
REMARK  status: ('A' for Active; 'I' for Inactive)
REMARK    1  A    between atoms: C2_2  and  C3_3 
REMARK    2  A    between atoms: C8_8  and  C9_9 
REMARK    3  A    between atoms: C9_9  and  O1_10 
REMARK    4  A    between atoms: C12_14  and  N2_15 
REMARK    5  A    between atoms: N2_15  and  C13_16 
ROOT
HETATM    1  C3  UNL     1      23.565   0.271  53.068  1.00  0.00    -0.029 A 
HETATM    2  C4  UNL     1      23.134   1.020  51.994  1.00  0.00     0.049 A 
HETATM    3  C5  UNL     1      24.108   1.761  51.314  1.00  0.00     0.086 A 
HETATM    4  C6  UNL     1      25.431   1.739  51.702  1.00  0.00    -0.006 A 
HETATM    5  C7  UNL     1      25.796   0.959  52.800  1.00  0.00     0.021 A 
HETATM    6  C8  UNL     1      24.865   0.199  53.518  1.00  0.00    -0.024 A 
HETATM    7  C10 UNL     1      26.583   2.461  51.096  1.00  0.00     0.161 C 
HETATM    8  N1  UNL     1      26.234   3.847  50.794  1.00  0.00    -0.379 N 
HETATM    9  C11 UNL     1      25.180   4.320  49.968  1.00  0.00     0.128 A 
HETATM   10  C12 UNL     1      25.501   5.531  49.394  1.00  0.00     0.156 A 
HETATM   11  N3  UNL     1      24.547   6.047  48.606  1.00  0.00    -0.222 NA
HETATM   12  C18 UNL     1      23.365   5.466  48.369  1.00  0.00     0.238 A 
HETATM   13  N4  UNL     1      23.054   4.275  48.935  1.00  0.00    -0.215 NA
HETATM   14  C19 UNL     1      23.955   3.676  49.746  1.00  0.00     0.202 A 
HETATM   15  O2  UNL     1      23.492   2.458  50.253  1.00  0.00    -0.289 OA
HETATM   16  H11 UNL     1      26.771   4.652  51.196  1.00  0.00     0.160 HD
ENDROOT
BRANCH  10  17
HETATM   17  N2  UNL     1      26.737   6.203  49.587  1.00  0.00    -0.362 N 
HETATM   18  H12 UNL     1      27.210   6.615  50.388  1.00  0.00     0.162 HD
BRANCH  17  19
HETATM   19  C13 UNL     1      27.562   6.363  48.408  1.00  0.00     0.134 A 
HETATM   20  C14 UNL     1      28.559   5.267  48.281  1.00  0.00     0.046 A 
HETATM   21  C15 UNL     1      29.804   5.737  48.236  1.00  0.00     0.136 A 
HETATM   22  F1  UNL     1      31.079   5.237  48.129  1.00  0.00    -0.205 F 
HETATM   23  C16 UNL     1      29.728   7.199  48.330  1.00  0.00     0.070 A 
HETATM   24 CL1  UNL     1      30.950   8.468  48.335  1.00  0.00    -0.081 Cl
HETATM   25  C17 UNL     1      28.440   7.545  48.428  1.00  0.00     0.029 A 
ENDBRANCH  17  19
ENDBRANCH  10  17
BRANCH   6  26
HETATM   26  C9  UNL     1      25.264  -0.629  54.685  1.00  0.00     0.203 C 
BRANCH  26  27
HETATM   27  O1  UNL     1      26.585  -0.416  55.042  1.00  0.00    -0.396 OA
HETATM   28  H8  UNL     1      26.979  -1.294  55.259  1.00  0.00     0.209 HD
ENDBRANCH  26  27
ENDBRANCH   6  26
BRANCH   1  29
HETATM   29  C2  UNL     1      22.614  -0.513  53.816  1.00  0.00    -0.014 C 
HETATM   30  C1  UNL     1      21.517  -0.339  54.507  1.00  0.00     0.032 C 
ENDBRANCH   1  29
TORSDOF 5
ENDMDL
MODEL 2
REMARK VINA RESULT:      -8.3      6.576      9.344
REMARK  5 active torsions:
REMARK  status: ('A' for Active; 'I' for Inactive)
REMARK    1  A    between atoms: C2_2  and  C3_3 
REMARK    2  A    between atoms: C8_8  and  C9_9 
REMARK    3  A    between atoms: C9_9  and  O1_10 
REMARK    4  A    between atoms: C12_14  and  N2_15 
REMARK    5  A    between atoms: N2_15  and  C13_16 
ROOT
HETATM    1  C3  UNL     1      26.198   1.333  52.912  1.00  0.00    -0.029 A 
HETATM    2  C4  UNL     1      25.097   2.158  52.818  1.00  0.00     0.049 A 
HETATM    3  C5  UNL     1      23.846   1.558  53.006  1.00  0.00     0.086 A 
HETATM    4  C6  UNL     1      23.725   0.210  53.272  1.00  0.00    -0.006 A 
HETATM    5  C7  UNL     1      24.884  -0.565  53.352  1.00  0.00     0.021 A 
HETATM    6  C8  UNL     1      26.161  -0.019  53.172  1.00  0.00    -0.024 A 
HETATM    7  C10 UNL     1      22.484  -0.580  53.495  1.00  0.00     0.161 C 
HETATM    8  N1  UNL     1      21.456  -0.229  52.519  1.00  0.00    -0.379 N 
HETATM    9  C11 UNL     1      20.895   1.051  52.264  1.00  0.00     0.128 A 
HETATM   10  C12 UNL     1      19.598   0.947  51.811  1.00  0.00     0.156 A 
HETATM   11  N3  UNL     1      19.005   2.118  51.539  1.00  0.00    -0.222 NA
HETATM   12  C18 UNL     1      19.589   3.313  51.683  1.00  0.00     0.238 A 
HETATM   13  N4  UNL     1      20.865   3.411  52.130  1.00  0.00    -0.215 NA
HETATM   14  C19 UNL     1      21.545   2.282  52.430  1.00  0.00     0.202 A 
HETATM   15  O2  UNL     1      22.844   2.543  52.877  1.00  0.00    -0.289 OA
HETATM   16  H11 UNL     1      21.029  -0.946  51.885  1.00  0.00     0.160 HD
ENDROOT
BRANCH  10  17
HETATM   17  N2  UNL     1      18.907  -0.282  51.644  1.00  0.00    -0.362 N 
HETATM   18  H12 UNL     1      18.956  -1.046  50.973  1.00  0.00     0.162 HD
BRANCH  17  19
HETATM   19  C13 UNL     1      17.890  -0.576  52.632  1.00  0.00     0.134 A 
HETATM   20  C14 UNL     1      18.296  -1.695  53.524  1.00  0.00     0.046 A 
HETATM   21  C15 UNL     1      17.418  -2.694  53.491  1.00  0.00     0.136 A 
HETATM   22  F1  UNL     1      17.257  -3.930  54.070  1.00  0.00    -0.205 F 
HETATM   23  C16 UNL     1      16.347  -2.311  52.565  1.00  0.00     0.070 A 
HETATM   24 CL1  UNL     1      14.875  -3.117  52.030  1.00  0.00    -0.081 Cl
HETATM   25  C17 UNL     1      16.629  -1.097  52.080  1.00  0.00     0.029 A 
ENDBRANCH  17  19
ENDBRANCH  10  17
BRANCH   6  26
HETATM   26  C9  UNL     1      27.387  -0.853  53.261  1.00  0.00     0.203 C 
BRANCH  26  27
HETATM   27  O1  UNL     1      27.141  -2.172  52.919  1.00  0.00    -0.396 OA
HETATM   28  H8  UNL     1      26.422  -2.502  53.509  1.00  0.00     0.209 HD
ENDBRANCH  26  27
ENDBRANCH   6  26
BRANCH   1  29
HETATM   29  C2  UNL     1      27.517   1.884  52.726  1.00  0.00    -0.014 C 
HETATM   30  C1  UNL     1      28.481   2.400  53.443  1.00  0.00     0.032 C 
ENDBRANCH   1  29
TORSDOF 5
ENDMDL
MODEL 3
REMARK VINA RESULT:      -8.3      7.352     10.874
REMARK  5 active torsions:
REMARK  status: ('A' for Active; 'I' for Inactive)
REMARK    1  A    between atoms: C2_2  and  C3_3 
REMARK    2  A    between atoms: C8_8  and  C9_9 
REMARK    3  A    between atoms: C9_9  and  O1_10 
REMARK    4  A    between atoms: C12_14  and  N2_15 
REMARK    5  A    between atoms: N2_15  and  C13_16 
ROOT
HETATM    1  C3  UNL     1      24.662   0.602  52.538  1.00  0.00    -0.029 A 
HETATM    2  C4  UNL     1      23.432   1.098  52.159  1.00  0.00     0.049 A 
HETATM    3  C5  UNL     1      22.325   0.658  52.894  1.00  0.00     0.086 A 
HETATM    4  C6  UNL     1      22.462  -0.226  53.944  1.00  0.00    -0.006 A 
HETATM    5  C7  UNL     1      23.738  -0.688  54.271  1.00  0.00     0.021 A 
HETATM    6  C8  UNL     1      24.881  -0.282  53.570  1.00  0.00    -0.024 A 
HETATM    7  C10 UNL     1      21.400  -0.791  54.821  1.00  0.00     0.161 C 
HETATM    8  N1  UNL     1      20.241  -1.211  54.038  1.00  0.00    -0.379 N 
HETATM    9  C11 UNL     1      19.449  -0.424  53.160  1.00  0.00     0.128 A 
HETATM   10  C12 UNL     1      18.152  -0.888  53.107  1.00  0.00     0.156 A 
HETATM   11  N3  UNL     1      17.345  -0.198  52.288  1.00  0.00    -0.222 NA
HETATM   12  C18 UNL     1      17.727   0.861  51.565  1.00  0.00     0.238 A 
HETATM   13  N4  UNL     1      19.003   1.314  51.621  1.00  0.00    -0.215 NA
HETATM   14  C19 UNL     1      19.891   0.681  52.420  1.00  0.00     0.202 A 
HETATM   15  O2  UNL     1      21.162   1.262  52.373  1.00  0.00    -0.289 OA
HETATM   16  H11 UNL     1      19.886  -2.197  54.063  1.00  0.00     0.160 HD
ENDROOT
BRANCH  10  17
HETATM   17  N2  UNL     1      17.669  -1.995  53.853  1.00  0.00    -0.362 N 
HETATM   18  H12 UNL     1      17.568  -2.201  54.844  1.00  0.00     0.162 HD
BRANCH  17  19
HETATM   19  C13 UNL     1      17.189  -3.120  53.077  1.00  0.00     0.134 A 
HETATM   20  C14 UNL     1      15.781  -2.925  52.640  1.00  0.00     0.046 A 
HETATM   21  C15 UNL     1      14.993  -3.910  53.066  1.00  0.00     0.136 A 
HETATM   22  F1  UNL     1      13.667  -4.263  52.983  1.00  0.00    -0.205 F 
HETATM   23  C16 UNL     1      15.827  -4.845  53.828  1.00  0.00     0.070 A 
HETATM   24 CL1  UNL     1      15.479  -6.352  54.673  1.00  0.00    -0.081 Cl
HETATM   25  C17 UNL     1      17.082  -4.382  53.827  1.00  0.00     0.029 A 
ENDBRANCH  17  19
ENDBRANCH  10  17
BRANCH   6  26
HETATM   26  C9  UNL     1      26.234  -0.779  53.928  1.00  0.00     0.203 C 
BRANCH  26  27
HETATM   27  O1  UNL     1      26.611  -0.383  55.200  1.00  0.00    -0.396 OA
HETATM   28  H8  UNL     1      27.562  -0.126  55.162  1.00  0.00     0.209 HD
ENDBRANCH  26  27
ENDBRANCH   6  26
BRANCH   1  29
HETATM   29  C2  UNL     1      25.844   1.010  51.821  1.00  0.00    -0.014 C 
HETATM   30  C1  UNL     1      26.751   1.952  51.868  1.00  0.00     0.032 C 
ENDBRANCH   1  29
TORSDOF 5
ENDMDL
MODEL 4
REMARK VINA RESULT:      -7.7      4.867      8.873
REMARK  5 active torsions:
REMARK  status: ('A' for Active; 'I' for Inactive)
REMARK    1  A    between atoms: C2_2  and  C3_3 
REMARK    2  A    between atoms: C8_8  and  C9_9 
REMARK    3  A    between atoms: C9_9  and  O1_10 
REMARK    4  A    between atoms: C12_14  and  N2_15 
REMARK    5  A    between atoms: N2_15  and  C13_16 
ROOT
HETATM    1  C3  UNL     1      26.426   5.537  48.926  1.00  0.00    -0.029 A 
HETATM    2  C4  UNL     1      26.825   4.386  49.571  1.00  0.00     0.049 A 
HETATM    3  C5  UNL     1      25.814   3.490  49.937  1.00  0.00     0.086 A 
HETATM    4  C6  UNL     1      24.487   3.748  49.662  1.00  0.00    -0.006 A 
HETATM    5  C7  UNL     1      24.156   4.936  49.007  1.00  0.00     0.021 A 
HETATM    6  C8  UNL     1      25.125   5.869  48.618  1.00  0.00    -0.024 A 
HETATM    7  C10 UNL     1      23.298   2.911  49.979  1.00  0.00     0.161 C 
HETATM    8  N1  UNL     1      23.374   2.386  51.340  1.00  0.00    -0.379 N 
HETATM    9  C11 UNL     1      24.401   1.588  51.911  1.00  0.00     0.128 A 
HETATM   10  C12 UNL     1      23.903   0.768  52.901  1.00  0.00     0.156 A 
HETATM   11  N3  UNL     1      24.819  -0.010  53.495  1.00  0.00    -0.222 NA
HETATM   12  C18 UNL     1      26.120  -0.021  53.182  1.00  0.00     0.238 A 
HETATM   13  N4  UNL     1      26.605   0.788  52.209  1.00  0.00    -0.215 NA
HETATM   14  C19 UNL     1      25.755   1.609  51.552  1.00  0.00     0.202 A 
HETATM   15  O2  UNL     1      26.400   2.379  50.579  1.00  0.00    -0.289 OA
HETATM   16  H11 UNL     1      22.624   2.577  52.048  1.00  0.00     0.160 HD
ENDROOT
BRANCH  10  17
HETATM   17  N2  UNL     1      22.536   0.713  53.280  1.00  0.00    -0.362 N 
HETATM   18  H12 UNL     1      21.950   1.241  53.923  1.00  0.00     0.162 HD
BRANCH  17  19
HETATM   19  C13 UNL     1      21.738  -0.304  52.627  1.00  0.00     0.134 A 
HETATM   20  C14 UNL     1      20.975   0.250  51.477  1.00  0.00     0.046 A 
HETATM   21  C15 UNL     1      19.666   0.053  51.614  1.00  0.00     0.136 A 
HETATM   22  F1  UNL     1      18.514   0.325  50.915  1.00  0.00    -0.205 F 
HETATM   23  C16 UNL     1      19.456  -0.655  52.881  1.00  0.00     0.070 A 
HETATM   24 CL1  UNL     1      18.013  -1.239  53.708  1.00  0.00    -0.081 Cl
HETATM   25  C17 UNL     1      20.649  -0.853  53.451  1.00  0.00     0.029 A 
ENDBRANCH  17  19
ENDBRANCH  10  17
BRANCH   6  26
HETATM   26  C9  UNL     1      24.762   7.128  47.920  1.00  0.00     0.203 C 
BRANCH  26  27
HETATM   27  O1  UNL     1      23.528   7.606  48.324  1.00  0.00    -0.396 OA
HETATM   28  H8  UNL     1      22.845   7.199  47.739  1.00  0.00     0.209 HD
ENDBRANCH  26  27
ENDBRANCH   6  26
BRANCH   1  29
HETATM   29  C2  UNL     1      27.416   6.506  48.524  1.00  0.00    -0.014 C 
HETATM   30  C1  UNL     1      28.584   6.539  47.936  1.00  0.00     0.032 C 
ENDBRANCH   1  29
TORSDOF 5
ENDMDL
MODEL 5
REMARK VINA RESULT:      -7.7      3.906      7.703
REMARK  5 active torsions:
REMARK  status: ('A' for Active; 'I' for Inactive)
REMARK    1  A    between atoms: C2_2  and  C3_3 
REMARK    2  A    between atoms: C8_8  and  C9_9 
REMARK    3  A    between atoms: C9_9  and  O1_10 
REMARK    4  A    between atoms: C12_14  and  N2_15 
REMARK    5  A    between atoms: N2_15  and  C13_16 
ROOT
HETATM    1  C3  UNL     1      26.101   7.995  48.188  1.00  0.00    -0.029 A 
HETATM    2  C4  UNL     1      25.164   7.048  47.836  1.00  0.00     0.049 A 
HETATM    3  C5  UNL     1      24.574   6.329  48.883  1.00  0.00     0.086 A 
HETATM    4  C6  UNL     1      24.916   6.562  50.199  1.00  0.00    -0.006 A 
HETATM    5  C7  UNL     1      25.875   7.537  50.482  1.00  0.00     0.021 A 
HETATM    6  C8  UNL     1      26.497   8.285  49.475  1.00  0.00    -0.024 A 
HETATM    7  C10 UNL     1      24.392   5.894  51.422  1.00  0.00     0.161 C 
HETATM    8  N1  UNL     1      24.310   4.448  51.236  1.00  0.00    -0.379 N 
HETATM    9  C11 UNL     1      23.595   3.736  50.236  1.00  0.00     0.128 A 
HETATM   10  C12 UNL     1      23.200   2.497  50.692  1.00  0.00     0.156 A 
HETATM   11  N3  UNL     1      22.526   1.761  49.797  1.00  0.00    -0.222 NA
HETATM   12  C18 UNL     1      22.239   2.159  48.552  1.00  0.00     0.238 A 
HETATM   13  N4  UNL     1      22.629   3.379  48.108  1.00  0.00    -0.215 NA
HETATM   14  C19 UNL     1      23.316   4.194  48.941  1.00  0.00     0.202 A 
HETATM   15  O2  UNL     1      23.648   5.413  48.343  1.00  0.00    -0.289 OA
HETATM   16  H11 UNL     1      24.813   3.781  51.869  1.00  0.00     0.160 HD
ENDROOT
BRANCH  10  17
HETATM   17  N2  UNL     1      23.455   2.009  52.001  1.00  0.00    -0.362 N 
HETATM   18  H12 UNL     1      23.201   2.310  52.939  1.00  0.00     0.162 HD
BRANCH  17  19
HETATM   19  C13 UNL     1      24.250   0.802  52.083  1.00  0.00     0.134 A 
HETATM   20  C14 UNL     1      24.078   0.118  53.392  1.00  0.00     0.046 A 
HETATM   21  C15 UNL     1      25.239  -0.032  54.025  1.00  0.00     0.136 A 
HETATM   22  F1  UNL     1      25.695  -0.562  55.209  1.00  0.00    -0.205 F 
HETATM   23  C16 UNL     1      26.284   0.549  53.175  1.00  0.00     0.070 A 
HETATM   24 CL1  UNL     1      28.029   0.711  53.356  1.00  0.00    -0.081 Cl
HETATM   25  C17 UNL     1      25.705   1.022  52.066  1.00  0.00     0.029 A 
ENDBRANCH  17  19
ENDBRANCH  10  17
BRANCH   6  26
HETATM   26  C9  UNL     1      27.515   9.321  49.787  1.00  0.00     0.203 C 
BRANCH  26  27
HETATM   27  O1  UNL     1      27.610   9.560  51.147  1.00  0.00    -0.396 OA
HETATM   28  H8  UNL     1      26.900  10.202  51.386  1.00  0.00     0.209 HD
ENDBRANCH  26  27
ENDBRANCH   6  26
BRANCH   1  29
HETATM   29  C2  UNL     1      26.751   8.769  47.159  1.00  0.00    -0.014 C 
HETATM   30  C1  UNL     1      27.683   8.622  46.254  1.00  0.00     0.032 C 
ENDBRANCH   1  29
TORSDOF 5
ENDMDL
MODEL 6
REMARK VINA RESULT:      -7.7      4.994      8.528
REMARK  5 active torsions:
REMARK  status: ('A' for Active; 'I' for Inactive)
REMARK    1  A    between atoms: C2_2  and  C3_3 
REMARK    2  A    between atoms: C8_8  and  C9_9 
REMARK    3  A    between atoms: C9_9  and  O1_10 
REMARK    4  A    between atoms: C12_14  and  N2_15 
REMARK    5  A    between atoms: N2_15  and  C13_16 
ROOT
HETATM    1  C3  UNL     1      26.489   6.305  48.484  1.00  0.00    -0.029 A 
HETATM    2  C4  UNL     1      25.204   6.493  48.947  1.00  0.00     0.049 A 
HETATM    3  C5  UNL     1      24.704   5.522  49.823  1.00  0.00     0.086 A 
HETATM    4  C6  UNL     1      25.463   4.434  50.202  1.00  0.00    -0.006 A 
HETATM    5  C7  UNL     1      26.757   4.308  49.693  1.00  0.00     0.021 A 
HETATM    6  C8  UNL     1      27.308   5.248  48.813  1.00  0.00    -0.024 A 
HETATM    7  C10 UNL     1      25.089   3.320  51.115  1.00  0.00     0.161 C 
HETATM    8  N1  UNL     1      23.739   2.840  50.831  1.00  0.00    -0.379 N 
HETATM    9  C11 UNL     1      22.530   3.584  50.837  1.00  0.00     0.128 A 
HETATM   10  C12 UNL     1      21.455   2.788  51.168  1.00  0.00     0.156 A 
HETATM   11  N3  UNL     1      20.273   3.421  51.183  1.00  0.00    -0.222 NA
HETATM   12  C18 UNL     1      20.107   4.720  50.906  1.00  0.00     0.238 A 
HETATM   13  N4  UNL     1      21.167   5.500  50.582  1.00  0.00    -0.215 NA
HETATM   14  C19 UNL     1      22.401   4.948  50.540  1.00  0.00     0.202 A 
HETATM   15  O2  UNL     1      23.389   5.874  50.192  1.00  0.00    -0.289 OA
HETATM   16  H11 UNL     1      23.550   1.840  50.581  1.00  0.00     0.160 HD
ENDROOT
BRANCH  10  17
HETATM   17  N2  UNL     1      21.552   1.407  51.485  1.00  0.00    -0.362 N 
HETATM   18  H12 UNL     1      21.850   0.576  50.980  1.00  0.00     0.162 HD
BRANCH  17  19
HETATM   19  C13 UNL     1      21.157   1.037  52.829  1.00  0.00     0.134 A 
HETATM   20  C14 UNL     1      22.074   0.022  53.411  1.00  0.00     0.046 A 
HETATM   21  C15 UNL     1      21.421  -1.079  53.776  1.00  0.00     0.136 A 
HETATM   22  F1  UNL     1      21.712  -2.297  54.344  1.00  0.00    -0.205 F 
HETATM   23  C16 UNL     1      20.003  -0.877  53.460  1.00  0.00     0.070 A 
HETATM   24 CL1  UNL     1      18.572  -1.885  53.659  1.00  0.00    -0.081 Cl
HETATM   25  C17 UNL     1      19.865   0.338  52.918  1.00  0.00     0.029 A 
ENDBRANCH  17  19
ENDBRANCH  10  17
BRANCH   6  26
HETATM   26  C9  UNL     1      28.686   5.104  48.278  1.00  0.00     0.203 C 
BRANCH  26  27
HETATM   27  O1  UNL     1      29.642   5.490  49.202  1.00  0.00    -0.396 OA
HETATM   28  H8  UNL     1      30.358   5.958  48.711  1.00  0.00     0.209 HD
ENDBRANCH  26  27
ENDBRANCH   6  26
BRANCH   1  29
HETATM   29  C2  UNL     1      27.065   7.265  47.576  1.00  0.00    -0.014 C 
HETATM   30  C1  UNL     1      27.088   8.560  47.392  1.00  0.00     0.032 C 
ENDBRANCH   1  29
TORSDOF 5
ENDMDL
MODEL 7
REMARK VINA RESULT:      -7.7      3.499      5.012
REMARK  5 active torsions:
REMARK  status: ('A' for Active; 'I' for Inactive)
REMARK    1  A    between atoms: C2_2  and  C3_3 
REMARK    2  A    between atoms: C8_8  and  C9_9 
REMARK    3  A    between atoms: C9_9  and  O1_10 
REMARK    4  A    between atoms: C12_14  and  N2_15 
REMARK    5  A    between atoms: N2_15  and  C13_16 
ROOT
HETATM    1  C3  UNL     1      26.168  -0.375  52.669  1.00  0.00    -0.029 A 
HETATM    2  C4  UNL     1      26.802   0.547  51.865  1.00  0.00     0.049 A 
HETATM    3  C5  UNL     1      26.279   1.846  51.866  1.00  0.00     0.086 A 
HETATM    4  C6  UNL     1      25.184   2.181  52.636  1.00  0.00    -0.006 A 
HETATM    5  C7  UNL     1      24.591   1.195  53.426  1.00  0.00     0.021 A 
HETATM    6  C8  UNL     1      25.072  -0.120  53.463  1.00  0.00    -0.024 A 
HETATM    7  C10 UNL     1      24.506   3.501  52.752  1.00  0.00     0.161 C 
HETATM    8  N1  UNL     1      24.330   4.118  51.440  1.00  0.00    -0.379 N 
HETATM    9  C11 UNL     1      25.330   4.435  50.483  1.00  0.00     0.128 A 
HETATM   10  C12 UNL     1      24.963   5.520  49.717  1.00  0.00     0.156 A 
HETATM   11  N3  UNL     1      25.856   5.872  48.782  1.00  0.00    -0.222 NA
HETATM   12  C18 UNL     1      27.023   5.249  48.577  1.00  0.00     0.238 A 
HETATM   13  N4  UNL     1      27.380   4.182  49.332  1.00  0.00    -0.215 NA
HETATM   14  C19 UNL     1      26.541   3.753  50.302  1.00  0.00     0.202 A 
HETATM   15  O2  UNL     1      27.046   2.648  50.995  1.00  0.00    -0.289 OA
HETATM   16  H11 UNL     1      23.383   4.388  51.080  1.00  0.00     0.160 HD
ENDROOT
BRANCH  10  17
HETATM   17  N2  UNL     1      23.750   6.240  49.883  1.00  0.00    -0.362 N 
HETATM   18  H12 UNL     1      23.441   6.990  50.498  1.00  0.00     0.162 HD
BRANCH  17  19
HETATM   19  C13 UNL     1      22.669   5.873  48.993  1.00  0.00     0.134 A 
HETATM   20  C14 UNL     1      21.492   5.356  49.741  1.00  0.00     0.046 A 
HETATM   21  C15 UNL     1      21.162   4.127  49.351  1.00  0.00     0.136 A 
HETATM   22  F1  UNL     1      20.215   3.179  49.658  1.00  0.00    -0.205 F 
HETATM   23  C16 UNL     1      22.106   3.729  48.301  1.00  0.00     0.070 A 
HETATM   24 CL1  UNL     1      22.282   2.265  47.336  1.00  0.00    -0.081 Cl
HETATM   25  C17 UNL     1      22.962   4.736  48.105  1.00  0.00     0.029 A 
ENDBRANCH  17  19
ENDBRANCH  10  17
BRANCH   6  26
HETATM   26  C9  UNL     1      24.435  -1.161  54.309  1.00  0.00     0.203 C 
BRANCH  26  27
HETATM   27  O1  UNL     1      24.989  -1.208  55.577  1.00  0.00    -0.396 OA
HETATM   28  H8  UNL     1      24.579  -0.485  56.107  1.00  0.00     0.209 HD
ENDBRANCH  26  27
ENDBRANCH   6  26
BRANCH   1  29
HETATM   29  C2  UNL     1      26.653  -1.732  52.714  1.00  0.00    -0.014 C 
HETATM   30  C1  UNL     1      27.792  -2.373  52.741  1.00  0.00     0.032 C 
ENDBRANCH   1  29
TORSDOF 5
ENDMDL
MODEL 8
REMARK VINA RESULT:      -7.6      5.383      9.037
REMARK  5 active torsions:
REMARK  status: ('A' for Active; 'I' for Inactive)
REMARK    1  A    between atoms: C2_2  and  C3_3 
REMARK    2  A    between atoms: C8_8  and  C9_9 
REMARK    3  A    between atoms: C9_9  and  O1_10 
REMARK    4  A    between atoms: C12_14  and  N2_15 
REMARK    5  A    between atoms: N2_15  and  C13_16 
ROOT
HETATM    1  C3  UNL     1      33.556   5.180  46.031  1.00  0.00    -0.029 A 
HETATM    2  C4  UNL     1      32.809   6.323  45.841  1.00  0.00     0.049 A 
HETATM    3  C5  UNL     1      31.999   6.728  46.909  1.00  0.00     0.086 A 
HETATM    4  C6  UNL     1      31.956   6.018  48.091  1.00  0.00    -0.006 A 
HETATM    5  C7  UNL     1      32.739   4.869  48.212  1.00  0.00     0.021 A 
HETATM    6  C8  UNL     1      33.566   4.416  47.177  1.00  0.00    -0.024 A 
HETATM    7  C10 UNL     1      31.158   6.307  49.313  1.00  0.00     0.161 C 
HETATM    8  N1  UNL     1      29.787   6.677  48.970  1.00  0.00    -0.379 N 
HETATM    9  C11 UNL     1      29.355   7.740  48.132  1.00  0.00     0.128 A 
HETATM   10  C12 UNL     1      28.115   8.204  48.515  1.00  0.00     0.156 A 
HETATM   11  N3  UNL     1      27.635   9.204  47.762  1.00  0.00    -0.222 NA
HETATM   12  C18 UNL     1      28.276   9.737  46.715  1.00  0.00     0.238 A 
HETATM   13  N4  UNL     1      29.495   9.277  46.342  1.00  0.00    -0.215 NA
HETATM   14  C19 UNL     1      30.061   8.269  47.043  1.00  0.00     0.202 A 
HETATM   15  O2  UNL     1      31.314   7.905  46.541  1.00  0.00    -0.289 OA
HETATM   16  H11 UNL     1      28.963   6.145  49.339  1.00  0.00     0.160 HD
ENDROOT
BRANCH  10  17
HETATM   17  N2  UNL     1      27.380   7.699  49.620  1.00  0.00    -0.362 N 
HETATM   18  H12 UNL     1      27.553   7.622  50.620  1.00  0.00     0.162 HD
BRANCH  17  19
HETATM   19  C13 UNL     1      26.069   7.164  49.317  1.00  0.00     0.134 A 
HETATM   20  C14 UNL     1      25.184   7.167  50.512  1.00  0.00     0.046 A 
HETATM   21  C15 UNL     1      24.735   5.946  50.795  1.00  0.00     0.136 A 
HETATM   22  F1  UNL     1      23.925   5.349  51.731  1.00  0.00    -0.205 F 
HETATM   23  C16 UNL     1      25.295   5.028  49.798  1.00  0.00     0.070 A 
HETATM   24 CL1  UNL     1      25.143   3.290  49.545  1.00  0.00    -0.081 Cl
HETATM   25  C17 UNL     1      26.056   5.737  48.958  1.00  0.00     0.029 A 
ENDBRANCH  17  19
ENDBRANCH  10  17
BRANCH   6  26
HETATM   26  C9  UNL     1      34.397   3.193  47.318  1.00  0.00     0.203 C 
BRANCH  26  27
HETATM   27  O1  UNL     1      35.054   3.152  48.535  1.00  0.00    -0.396 OA
HETATM   28  H8  UNL     1      34.702   3.889  49.088  1.00  0.00     0.209 HD
ENDBRANCH  26  27
ENDBRANCH   6  26
BRANCH   1  29
HETATM   29  C2  UNL     1      34.409   4.704  44.971  1.00  0.00    -0.014 C 
HETATM   30  C1  UNL     1      34.450   4.700  43.663  1.00  0.00     0.032 C 
ENDBRANCH   1  29
TORSDOF 5
ENDMDL
MODEL 9
REMARK VINA RESULT:      -7.6      7.597     10.014
REMARK  5 active torsions:
REMARK  status: ('A' for Active; 'I' for Inactive)
REMARK    1  A    between atoms: C2_2  and  C3_3 
REMARK    2  A    between atoms: C8_8  and  C9_9 
REMARK    3  A    between atoms: C9_9  and  O1_10 
REMARK    4  A    between atoms: C12_14  and  N2_15 
REMARK    5  A    between atoms: N2_15  and  C13_16 
ROOT
HETATM    1  C3  UNL     1      29.387  10.384  48.944  1.00  0.00    -0.029 A 
HETATM    2  C4  UNL     1      30.712  10.401  48.565  1.00  0.00     0.049 A 
HETATM    3  C5  UNL     1      31.304   9.160  48.298  1.00  0.00     0.086 A 
HETATM    4  C6  UNL     1      30.593   7.983  48.409  1.00  0.00    -0.006 A 
HETATM    5  C7  UNL     1      29.253   8.042  48.799  1.00  0.00     0.021 A 
HETATM    6  C8  UNL     1      28.610   9.254  49.079  1.00  0.00    -0.024 A 
HETATM    7  C10 UNL     1      31.064   6.593  48.165  1.00  0.00     0.161 C 
HETATM    8  N1  UNL     1      32.379   6.372  48.762  1.00  0.00    -0.379 N 
HETATM    9  C11 UNL     1      33.579   7.090  48.516  1.00  0.00     0.128 A 
HETATM   10  C12 UNL     1      34.686   6.288  48.697  1.00  0.00     0.156 A 
HETATM   11  N3  UNL     1      35.860   6.902  48.492  1.00  0.00    -0.222 NA
HETATM   12  C18 UNL     1      35.992   8.186  48.139  1.00  0.00     0.238 A 
HETATM   13  N4  UNL     1      34.901   8.970  47.961  1.00  0.00    -0.215 NA
HETATM   14  C19 UNL     1      33.671   8.439  48.146  1.00  0.00     0.202 A 
HETATM   15  O2  UNL     1      32.649   9.367  47.927  1.00  0.00    -0.289 OA
HETATM   16  H11 UNL     1      32.544   5.617  49.470  1.00  0.00     0.160 HD
ENDROOT
BRANCH  10  17
HETATM   17  N2  UNL     1      34.627   4.916  49.059  1.00  0.00    -0.362 N 
HETATM   18  H12 UNL     1      34.456   4.411  49.925  1.00  0.00     0.162 HD
BRANCH  17  19
HETATM   19  C13 UNL     1      34.847   3.968  47.986  1.00  0.00     0.134 A 
HETATM   20  C14 UNL     1      34.547   4.563  46.656  1.00  0.00     0.046 A 
HETATM   21  C15 UNL     1      33.619   3.867  46.004  1.00  0.00     0.136 A 
HETATM   22  F1  UNL     1      32.964   3.921  44.797  1.00  0.00    -0.205 F 
HETATM   23  C16 UNL     1      33.227   2.743  46.861  1.00  0.00     0.070 A 
HETATM   24 CL1  UNL     1      32.073   1.426  46.663  1.00  0.00    -0.081 Cl
HETATM   25  C17 UNL     1      33.937   2.812  47.992  1.00  0.00     0.029 A 
ENDBRANCH  17  19
ENDBRANCH  10  17
BRANCH   6  26
HETATM   26  C9  UNL     1      27.185   9.306  49.492  1.00  0.00     0.203 C 
BRANCH  26  27
HETATM   27  O1  UNL     1      26.947   8.546  50.626  1.00  0.00    -0.396 OA
HETATM   28  H8  UNL     1      27.524   8.897  51.345  1.00  0.00     0.209 HD
ENDBRANCH  26  27
ENDBRANCH   6  26
BRANCH   1  29
HETATM   29  C2  UNL     1      28.716  11.626  49.238  1.00  0.00    -0.014 C 
HETATM   30  C1  UNL     1      28.729  12.872  48.843  1.00  0.00     0.032 C 
ENDBRANCH   1  29
TORSDOF 5
ENDMDL
