MODEL 1
REMARK VINA RESULT:      -8.2      0.000      0.000
REMARK  6 active torsions:
REMARK  status: ('A' for Active; 'I' for Inactive)
REMARK    1  A    between atoms: C2_2  and  C3_3 
REMARK    2  A    between atoms: C3_3  and  C4_4 
REMARK    3  A    between atoms: C4_4  and  C5_5 
REMARK    4  A    between atoms: C5_5  and  C6_6 
REMARK    5  A    between atoms: C11_13  and  N3_14 
REMARK    6  A    between atoms: N3_14  and  C12_15 
ROOT
HETATM    1  C6  UNL     1      22.315   1.010  51.526  1.00  0.00    -0.073 A 
HETATM    2  C7  UNL     1      23.442   1.321  52.120  1.00  0.00     0.020 A 
HETATM    3  C8  UNL     1      24.243   2.250  51.312  1.00  0.00     0.035 A 
HETATM    4  C9  UNL     1      23.498   2.468  50.179  1.00  0.00     0.053 A 
HETATM    5  N1  UNL     1      23.988   3.281  49.256  1.00  0.00    -0.245 NA
HETATM    6  C10 UNL     1      25.185   3.865  49.446  1.00  0.00     0.235 A 
HETATM    7  N2  UNL     1      25.897   3.643  50.556  1.00  0.00    -0.224 NA
HETATM    8  C11 UNL     1      25.473   2.835  51.535  1.00  0.00     0.141 A 
HETATM    9  C18 UNL     1      22.232   1.710  50.221  1.00  0.00     0.094 A 
ENDROOT
BRANCH   8  10
HETATM   10  N3  UNL     1      26.159   2.546  52.731  1.00  0.00    -0.340 N 
HETATM   11  H14 UNL     1      25.963   3.162  53.573  1.00  0.00     0.167 HD
BRANCH  10  12
HETATM   12  C12 UNL     1      27.103   1.520  52.985  1.00  0.00     0.035 A 
HETATM   13  C13 UNL     1      28.360   1.799  53.516  1.00  0.00     0.032 A 
HETATM   14  C14 UNL     1      29.298   0.831  53.773  1.00  0.00     0.046 A 
HETATM   15  C15 UNL     1      29.028  -0.495  53.510  1.00  0.00     0.138 A 
HETATM   16  F1  UNL     1      29.974  -1.425  53.775  1.00  0.00    -0.204 F 
HETATM   17  C16 UNL     1      27.796  -0.823  52.984  1.00  0.00     0.074 A 
HETATM   18 CL1  UNL     1      27.465  -2.508  52.656  1.00  0.00    -0.081 Cl
HETATM   19  C17 UNL     1      26.902   0.195  52.750  1.00  0.00     0.056 A 
ENDBRANCH  10  12
ENDBRANCH   8  10
BRANCH   1  20
HETATM   20  C5  UNL     1      21.227   0.112  51.990  1.00  0.00     0.034 C 
BRANCH  20  21
HETATM   21  C4  UNL     1      20.404   0.784  53.056  1.00  0.00     0.004 C 
BRANCH  21  22
HETATM   22  C3  UNL     1      20.849   0.329  54.426  1.00  0.00    -0.000 C 
BRANCH  22  23
HETATM   23  C2  UNL     1      21.326  -1.114  54.348  1.00  0.00    -0.005 C 
HETATM   24  C1  UNL     1      22.620  -1.315  55.103  1.00  0.00     0.005 C 
ENDBRANCH  22  23
ENDBRANCH  21  22
ENDBRANCH  20  21
ENDBRANCH   1  20
TORSDOF 6
ENDMDL
MODEL 2
REMARK VINA RESULT:      -7.7      2.281      5.410
REMARK  6 active torsions:
REMARK  status: ('A' for Active; 'I' for Inactive)
REMARK    1  A    between atoms: C2_2  and  C3_3 
REMARK    2  A    between atoms: C3_3  and  C4_4 
REMARK    3  A    between atoms: C4_4  and  C5_5 
REMARK    4  A    between atoms: C5_5  and  C6_6 
REMARK    5  A    between atoms: C11_13  and  N3_14 
REMARK    6  A    between atoms: N3_14  and  C12_15 
ROOT
HETATM    1  C6  UNL     1      24.697   3.590  49.745  1.00  0.00    -0.073 A 
HETATM    2  C7  UNL     1      24.812   2.946  50.882  1.00  0.00     0.020 A 
HETATM    3  C8  UNL     1      23.697   2.015  51.094  1.00  0.00     0.035 A 
HETATM    4  C9  UNL     1      22.901   2.156  49.983  1.00  0.00     0.053 A 
HETATM    5  N1  UNL     1      21.801   1.422  49.906  1.00  0.00    -0.245 NA
HETATM    6  C10 UNL     1      21.495   0.570  50.899  1.00  0.00     0.235 A 
HETATM    7  N2  UNL     1      22.281   0.444  51.973  1.00  0.00    -0.224 NA
HETATM    8  C11 UNL     1      23.408   1.149  52.128  1.00  0.00     0.141 A 
HETATM    9  C18 UNL     1      23.462   3.153  49.050  1.00  0.00     0.094 A 
ENDROOT
BRANCH   8  10
HETATM   10  N3  UNL     1      24.290   1.077  53.225  1.00  0.00    -0.340 N 
HETATM   11  H14 UNL     1      23.961   1.481  54.149  1.00  0.00     0.167 HD
BRANCH  10  12
HETATM   12  C12 UNL     1      25.595   0.526  53.276  1.00  0.00     0.035 A 
HETATM   13  C13 UNL     1      25.862  -0.763  52.821  1.00  0.00     0.032 A 
HETATM   14  C14 UNL     1      27.112  -1.327  52.856  1.00  0.00     0.046 A 
HETATM   15  C15 UNL     1      28.186  -0.624  53.357  1.00  0.00     0.138 A 
HETATM   16  F1  UNL     1      29.405  -1.209  53.378  1.00  0.00    -0.204 F 
HETATM   17  C16 UNL     1      27.973   0.658  53.820  1.00  0.00     0.074 A 
HETATM   18 CL1  UNL     1      29.344   1.541  54.452  1.00  0.00    -0.081 Cl
HETATM   19  C17 UNL     1      26.696   1.164  53.756  1.00  0.00     0.056 A 
ENDBRANCH  10  12
ENDBRANCH   8  10
BRANCH   1  20
HETATM   20  C5  UNL     1      25.597   4.611  49.150  1.00  0.00     0.034 C 
BRANCH  20  21
HETATM   21  C4  UNL     1      27.024   4.133  49.163  1.00  0.00     0.004 C 
BRANCH  21  22
HETATM   22  C3  UNL     1      27.926   5.161  48.522  1.00  0.00    -0.000 C 
BRANCH  22  23
HETATM   23  C2  UNL     1      27.189   6.488  48.424  1.00  0.00    -0.005 C 
HETATM   24  C1  UNL     1      27.876   7.439  47.470  1.00  0.00     0.005 C 
ENDBRANCH  22  23
ENDBRANCH  21  22
ENDBRANCH  20  21
ENDBRANCH   1  20
TORSDOF 6
ENDMDL
MODEL 3
REMARK VINA RESULT:      -7.7      3.350      5.452
REMARK  6 active torsions:
REMARK  status: ('A' for Active; 'I' for Inactive)
REMARK    1  A    between atoms: C2_2  and  C3_3 
REMARK    2  A    between atoms: C3_3  and  C4_4 
REMARK    3  A    between atoms: C4_4  and  C5_5 
REMARK    4  A    between atoms: C5_5  and  C6_6 
REMARK    5  A    between atoms: C11_13  and  N3_14 
REMARK    6  A    between atoms: N3_14  and  C12_15 
ROOT
HETATM    1  C6  UNL     1      24.738  -0.365  54.241  1.00  0.00    -0.073 A 
HETATM    2  C7  UNL     1      25.112   0.261  53.151  1.00  0.00     0.020 A 
HETATM    3  C8  UNL     1      26.467   0.814  53.280  1.00  0.00     0.035 A 
HETATM    4  C9  UNL     1      26.873   0.465  54.546  1.00  0.00     0.053 A 
HETATM    5  N1  UNL     1      28.080   0.842  54.941  1.00  0.00    -0.245 NA
HETATM    6  C10 UNL     1      28.866   1.545  54.107  1.00  0.00     0.235 A 
HETATM    7  N2  UNL     1      28.456   1.875  52.878  1.00  0.00    -0.224 NA
HETATM    8  C11 UNL     1      27.252   1.534  52.404  1.00  0.00     0.141 A 
HETATM    9  C18 UNL     1      25.824  -0.300  55.249  1.00  0.00     0.094 A 
ENDROOT
BRANCH   8  10
HETATM   10  N3  UNL     1      26.743   1.841  51.126  1.00  0.00    -0.340 N 
HETATM   11  H14 UNL     1      26.895   1.132  50.352  1.00  0.00     0.167 HD
BRANCH  10  12
HETATM   12  C12 UNL     1      26.035   2.996  50.710  1.00  0.00     0.035 A 
HETATM   13  C13 UNL     1      26.486   3.790  49.658  1.00  0.00     0.032 A 
HETATM   14  C14 UNL     1      25.825   4.914  49.230  1.00  0.00     0.046 A 
HETATM   15  C15 UNL     1      24.656   5.315  49.838  1.00  0.00     0.138 A 
HETATM   16  F1  UNL     1      24.030   6.428  49.392  1.00  0.00    -0.204 F 
HETATM   17  C16 UNL     1      24.168   4.562  50.884  1.00  0.00     0.074 A 
HETATM   18 CL1  UNL     1      22.683   5.081  51.648  1.00  0.00    -0.081 Cl
HETATM   19  C17 UNL     1      24.878   3.447  51.265  1.00  0.00     0.056 A 
ENDBRANCH  10  12
ENDBRANCH   8  10
BRANCH   1  20
HETATM   20  C5  UNL     1      23.458  -1.061  54.530  1.00  0.00     0.034 C 
BRANCH  20  21
HETATM   21  C4  UNL     1      22.456  -0.805  53.437  1.00  0.00     0.004 C 
BRANCH  21  22
HETATM   22  C3  UNL     1      21.533   0.326  53.826  1.00  0.00    -0.000 C 
BRANCH  22  23
HETATM   23  C2  UNL     1      21.585   1.410  52.760  1.00  0.00    -0.005 C 
HETATM   24  C1  UNL     1      21.881   0.834  51.394  1.00  0.00     0.005 C 
ENDBRANCH  22  23
ENDBRANCH  21  22
ENDBRANCH  20  21
ENDBRANCH   1  20
TORSDOF 6
ENDMDL
MODEL 4
REMARK VINA RESULT:      -7.6      2.442      4.597
REMARK  6 active torsions:
REMARK  status: ('A' for Active; 'I' for Inactive)
REMARK    1  A    between atoms: C2_2  and  C3_3 
REMARK    2  A    between atoms: C3_3  and  C4_4 
REMARK    3  A    between atoms: C4_4  and  C5_5 
REMARK    4  A    between atoms: C5_5  and  C6_6 
REMARK    5  A    between atoms: C11_13  and  N3_14 
REMARK    6  A    between atoms: N3_14  and  C12_15 
ROOT
HETATM    1  C6  UNL     1      20.962   0.154  52.193  1.00  0.00    -0.073 A 
HETATM    2  C7  UNL     1      22.268   0.262  52.214  1.00  0.00     0.020 A 
HETATM    3  C8  UNL     1      22.847  -0.354  53.415  1.00  0.00     0.035 A 
HETATM    4  C9  UNL     1      21.770  -0.842  54.115  1.00  0.00     0.053 A 
HETATM    5  N1  UNL     1      22.000  -1.460  55.264  1.00  0.00    -0.245 NA
HETATM    6  C10 UNL     1      23.262  -1.593  55.710  1.00  0.00     0.235 A 
HETATM    7  N2  UNL     1      24.299  -1.113  55.015  1.00  0.00    -0.224 NA
HETATM    8  C11 UNL     1      24.151  -0.476  53.847  1.00  0.00     0.141 A 
HETATM    9  C18 UNL     1      20.505  -0.564  53.408  1.00  0.00     0.094 A 
ENDROOT
BRANCH   8  10
HETATM   10  N3  UNL     1      25.185   0.059  53.055  1.00  0.00    -0.340 N 
HETATM   11  H14 UNL     1      24.909   0.614  52.194  1.00  0.00     0.167 HD
BRANCH  10  12
HETATM   12  C12 UNL     1      26.586  -0.037  53.245  1.00  0.00     0.035 A 
HETATM   13  C13 UNL     1      27.287  -1.201  52.934  1.00  0.00     0.032 A 
HETATM   14  C14 UNL     1      28.642  -1.328  53.106  1.00  0.00     0.046 A 
HETATM   15  C15 UNL     1      29.388  -0.283  53.606  1.00  0.00     0.138 A 
HETATM   16  F1  UNL     1      30.722  -0.442  53.764  1.00  0.00    -0.204 F 
HETATM   17  C16 UNL     1      28.741   0.891  53.928  1.00  0.00     0.074 A 
HETATM   18 CL1  UNL     1      29.697   2.210  54.561  1.00  0.00    -0.081 Cl
HETATM   19  C17 UNL     1      27.381   0.953  53.732  1.00  0.00     0.056 A 
ENDBRANCH  10  12
ENDBRANCH   8  10
BRANCH   1  20
HETATM   20  C5  UNL     1      19.997   0.635  51.172  1.00  0.00     0.034 C 
BRANCH  20  21
HETATM   21  C4  UNL     1      20.587   1.767  50.376  1.00  0.00     0.004 C 
BRANCH  21  22
HETATM   22  C3  UNL     1      20.803   1.343  48.943  1.00  0.00    -0.000 C 
BRANCH  22  23
HETATM   23  C2  UNL     1      22.208   1.729  48.508  1.00  0.00    -0.005 C 
HETATM   24  C1  UNL     1      22.245   3.118  47.910  1.00  0.00     0.005 C 
ENDBRANCH  22  23
ENDBRANCH  21  22
ENDBRANCH  20  21
ENDBRANCH   1  20
TORSDOF 6
ENDMDL
MODEL 5
REMARK VINA RESULT:      -7.5      3.556      6.464
REMARK  6 active torsions:
REMARK  status: ('A' for Active; 'I' for Inactive)
REMARK    1  A    between atoms: C2_2  and  C3_3 
REMARK    2  A    between atoms: C3_3  and  C4_4 
REMARK    3  A    between atoms: C4_4  and  C5_5 
REMARK    4  A    between atoms: C5_5  and  C6_6 
REMARK    5  A    between atoms: C11_13  and  N3_14 
REMARK    6  A    between atoms: N3_14  and  C12_15 
ROOT
HETATM    1  C6  UNL     1      25.197  -0.415  54.507  1.00  0.00    -0.073 A 
HETATM    2  C7  UNL     1      24.535   0.077  53.488  1.00  0.00     0.020 A 
HETATM    3  C8  UNL     1      23.112  -0.282  53.539  1.00  0.00     0.035 A 
HETATM    4  C9  UNL     1      22.978  -1.035  54.681  1.00  0.00     0.053 A 
HETATM    5  N1  UNL     1      21.777  -1.503  54.983  1.00  0.00    -0.245 NA
HETATM    6  C10 UNL     1      20.733  -1.235  54.179  1.00  0.00     0.235 A 
HETATM    7  N2  UNL     1      20.881  -0.500  53.071  1.00  0.00    -0.224 NA
HETATM    8  C11 UNL     1      22.060   0.008  52.695  1.00  0.00     0.141 A 
HETATM    9  C18 UNL     1      24.271  -1.179  55.378  1.00  0.00     0.094 A 
ENDROOT
BRANCH   8  10
HETATM   10  N3  UNL     1      22.302   0.789  51.548  1.00  0.00    -0.340 N 
HETATM   11  H14 UNL     1      22.054   0.371  50.606  1.00  0.00     0.167 HD
BRANCH  10  12
HETATM   12  C12 UNL     1      22.846   2.095  51.465  1.00  0.00     0.035 A 
HETATM   13  C13 UNL     1      22.375   3.135  52.264  1.00  0.00     0.032 A 
HETATM   14  C14 UNL     1      22.878   4.410  52.210  1.00  0.00     0.046 A 
HETATM   15  C15 UNL     1      23.898   4.726  51.339  1.00  0.00     0.138 A 
HETATM   16  F1  UNL     1      24.372   5.992  51.310  1.00  0.00    -0.204 F 
HETATM   17  C16 UNL     1      24.400   3.731  50.527  1.00  0.00     0.074 A 
HETATM   18 CL1  UNL     1      25.695   4.142  49.427  1.00  0.00    -0.081 Cl
HETATM   19  C17 UNL     1      23.851   2.474  50.631  1.00  0.00     0.056 A 
ENDBRANCH  10  12
ENDBRANCH   8  10
BRANCH   1  20
HETATM   20  C5  UNL     1      26.640  -0.290  54.836  1.00  0.00     0.034 C 
BRANCH  20  21
HETATM   21  C4  UNL     1      27.447  -0.025  53.594  1.00  0.00     0.004 C 
BRANCH  21  22
HETATM   22  C3  UNL     1      28.609   0.886  53.909  1.00  0.00    -0.000 C 
BRANCH  22  23
HETATM   23  C2  UNL     1      28.296   2.292  53.420  1.00  0.00    -0.005 C 
HETATM   24  C1  UNL     1      27.285   2.278  52.296  1.00  0.00     0.005 C 
ENDBRANCH  22  23
ENDBRANCH  21  22
ENDBRANCH  20  21
ENDBRANCH   1  20
TORSDOF 6
ENDMDL
MODEL 6
REMARK VINA RESULT:      -7.5      3.767      6.877
REMARK  6 active torsions:
REMARK  status: ('A' for Active; 'I' for Inactive)
REMARK    1  A    between atoms: C2_2  and  C3_3 
REMARK    2  A    between atoms: C3_3  and  C4_4 
REMARK    3  A    between atoms: C4_4  and  C5_5 
REMARK    4  A    between atoms: C5_5  and  C6_6 
REMARK    5  A    between atoms: C11_13  and  N3_14 
REMARK    6  A    between atoms: N3_14  and  C12_15 
ROOT
HETATM    1  C6  UNL     1      25.402   0.402  52.590  1.00  0.00    -0.073 A 
HETATM    2  C7  UNL     1      24.291   1.025  52.280  1.00  0.00     0.020 A 
HETATM    3  C8  UNL     1      23.154   0.533  53.069  1.00  0.00     0.035 A 
HETATM    4  C9  UNL     1      23.681  -0.443  53.880  1.00  0.00     0.053 A 
HETATM    5  N1  UNL     1      22.866  -1.071  54.713  1.00  0.00    -0.245 NA
HETATM    6  C10 UNL     1      21.562  -0.744  54.746  1.00  0.00     0.235 A 
HETATM    7  N2  UNL     1      21.065   0.209  53.950  1.00  0.00    -0.224 NA
HETATM    8  C11 UNL     1      21.821   0.890  53.081  1.00  0.00     0.141 A 
HETATM    9  C18 UNL     1      25.130  -0.603  53.645  1.00  0.00     0.094 A 
ENDROOT
BRANCH   8  10
HETATM   10  N3  UNL     1      21.379   1.904  52.209  1.00  0.00    -0.340 N 
HETATM   11  H14 UNL     1      20.758   2.664  52.612  1.00  0.00     0.167 HD
BRANCH  10  12
HETATM   12  C12 UNL     1      21.650   2.064  50.827  1.00  0.00     0.035 A 
HETATM   13  C13 UNL     1      21.362   1.060  49.905  1.00  0.00     0.032 A 
HETATM   14  C14 UNL     1      21.612   1.181  48.562  1.00  0.00     0.046 A 
HETATM   15  C15 UNL     1      22.173   2.332  48.053  1.00  0.00     0.138 A 
HETATM   16  F1  UNL     1      22.406   2.419  46.724  1.00  0.00    -0.204 F 
HETATM   17  C16 UNL     1      22.475   3.356  48.925  1.00  0.00     0.074 A 
HETATM   18 CL1  UNL     1      23.186   4.812  48.268  1.00  0.00    -0.081 Cl
HETATM   19  C17 UNL     1      22.200   3.171  50.260  1.00  0.00     0.056 A 
ENDBRANCH  10  12
ENDBRANCH   8  10
BRANCH   1  20
HETATM   20  C5  UNL     1      26.768   0.591  52.037  1.00  0.00     0.034 C 
BRANCH  20  21
HETATM   21  C4  UNL     1      27.216   2.017  52.205  1.00  0.00     0.004 C 
BRANCH  21  22
HETATM   22  C3  UNL     1      28.020   2.167  53.475  1.00  0.00    -0.000 C 
BRANCH  22  23
HETATM   23  C2  UNL     1      28.967   0.985  53.615  1.00  0.00    -0.005 C 
HETATM   24  C1  UNL     1      28.702   0.204  54.882  1.00  0.00     0.005 C 
ENDBRANCH  22  23
ENDBRANCH  21  22
ENDBRANCH  20  21
ENDBRANCH   1  20
TORSDOF 6
ENDMDL
MODEL 7
REMARK VINA RESULT:      -7.4      3.461      5.876
REMARK  6 active torsions:
REMARK  status: ('A' for Active; 'I' for Inactive)
REMARK    1  A    between atoms: C2_2  and  C3_3 
REMARK    2  A    between atoms: C3_3  and  C4_4 
REMARK    3  A    between atoms: C4_4  and  C5_5 
REMARK    4  A    between atoms: C5_5  and  C6_6 
REMARK    5  A    between atoms: C11_13  and  N3_14 
REMARK    6  A    between atoms: N3_14  and  C12_15 
ROOT
HETATM    1  C6  UNL     1      24.857   0.356  53.661  1.00  0.00    -0.073 A 
HETATM    2  C7  UNL     1      24.767   1.545  53.115  1.00  0.00     0.020 A 
HETATM    3  C8  UNL     1      23.527   1.696  52.344  1.00  0.00     0.035 A 
HETATM    4  C9  UNL     1      22.879   0.491  52.475  1.00  0.00     0.053 A 
HETATM    5  N1  UNL     1      21.711   0.341  51.869  1.00  0.00    -0.245 NA
HETATM    6  C10 UNL     1      21.194   1.355  51.152  1.00  0.00     0.235 A 
HETATM    7  N2  UNL     1      21.837   2.521  51.036  1.00  0.00    -0.224 NA
HETATM    8  C11 UNL     1      23.021   2.753  51.615  1.00  0.00     0.141 A 
HETATM    9  C18 UNL     1      23.659  -0.444  53.309  1.00  0.00     0.094 A 
ENDROOT
BRANCH   8  10
HETATM   10  N3  UNL     1      23.763   3.948  51.543  1.00  0.00    -0.340 N 
HETATM   11  H14 UNL     1      23.519   4.722  52.226  1.00  0.00     0.167 HD
BRANCH  10  12
HETATM   12  C12 UNL     1      24.823   4.280  50.663  1.00  0.00     0.035 A 
HETATM   13  C13 UNL     1      25.753   3.328  50.249  1.00  0.00     0.032 A 
HETATM   14  C14 UNL     1      26.792   3.614  49.399  1.00  0.00     0.046 A 
HETATM   15  C15 UNL     1      26.963   4.889  48.904  1.00  0.00     0.138 A 
HETATM   16  F1  UNL     1      27.997   5.138  48.068  1.00  0.00    -0.204 F 
HETATM   17  C16 UNL     1      26.068   5.866  49.284  1.00  0.00     0.074 A 
HETATM   18 CL1  UNL     1      26.295   7.480  48.649  1.00  0.00    -0.081 Cl
HETATM   19  C17 UNL     1      25.050   5.514  50.139  1.00  0.00     0.056 A 
ENDBRANCH  10  12
ENDBRANCH   8  10
BRANCH   1  20
HETATM   20  C5  UNL     1      25.938  -0.206  54.512  1.00  0.00     0.034 C 
BRANCH  20  21
HETATM   21  C4  UNL     1      27.267  -0.109  53.814  1.00  0.00     0.004 C 
BRANCH  21  22
HETATM   22  C3  UNL     1      28.367   0.147  54.816  1.00  0.00    -0.000 C 
BRANCH  22  23
HETATM   23  C2  UNL     1      29.210   1.325  54.351  1.00  0.00    -0.005 C 
HETATM   24  C1  UNL     1      28.410   2.278  53.491  1.00  0.00     0.005 C 
ENDBRANCH  22  23
ENDBRANCH  21  22
ENDBRANCH  20  21
ENDBRANCH   1  20
TORSDOF 6
ENDMDL
MODEL 8
REMARK VINA RESULT:      -7.4      3.527      5.572
REMARK  6 active torsions:
REMARK  status: ('A' for Active; 'I' for Inactive)
REMARK    1  A    between atoms: C2_2  and  C3_3 
REMARK    2  A    between atoms: C3_3  and  C4_4 
REMARK    3  A    between atoms: C4_4  and  C5_5 
REMARK    4  A    between atoms: C5_5  and  C6_6 
REMARK    5  A    between atoms: C11_13  and  N3_14 
REMARK    6  A    between atoms: N3_14  and  C12_15 
ROOT
HETATM    1  C6  UNL     1      22.972  -0.863  54.383  1.00  0.00    -0.073 A 
HETATM    2  C7  UNL     1      23.471  -0.107  53.436  1.00  0.00     0.020 A 
HETATM    3  C8  UNL     1      24.912   0.112  53.618  1.00  0.00     0.035 A 
HETATM    4  C9  UNL     1      25.233  -0.579  54.761  1.00  0.00     0.053 A 
HETATM    5  N1  UNL     1      26.492  -0.555  55.173  1.00  0.00    -0.245 NA
HETATM    6  C10 UNL     1      27.411   0.133  54.473  1.00  0.00     0.235 A 
HETATM    7  N2  UNL     1      27.082   0.800  53.361  1.00  0.00    -0.224 NA
HETATM    8  C11 UNL     1      25.833   0.827  52.880  1.00  0.00     0.141 A 
HETATM    9  C18 UNL     1      24.046  -1.244  55.332  1.00  0.00     0.094 A 
ENDROOT
BRANCH   8  10
HETATM   10  N3  UNL     1      25.402   1.502  51.721  1.00  0.00    -0.340 N 
HETATM   11  H14 UNL     1      25.807   1.192  50.791  1.00  0.00     0.167 HD
BRANCH  10  12
HETATM   12  C12 UNL     1      24.476   2.570  51.612  1.00  0.00     0.035 A 
HETATM   13  C13 UNL     1      24.222   3.428  52.680  1.00  0.00     0.032 A 
HETATM   14  C14 UNL     1      23.332   4.470  52.609  1.00  0.00     0.046 A 
HETATM   15  C15 UNL     1      22.634   4.719  51.447  1.00  0.00     0.138 A 
HETATM   16  F1  UNL     1      21.765   5.755  51.410  1.00  0.00    -0.204 F 
HETATM   17  C16 UNL     1      22.852   3.898  50.361  1.00  0.00     0.074 A 
HETATM   18 CL1  UNL     1      21.961   4.225  48.892  1.00  0.00    -0.081 Cl
HETATM   19  C17 UNL     1      23.756   2.871  50.498  1.00  0.00     0.056 A 
ENDBRANCH  10  12
ENDBRANCH   8  10
BRANCH   1  20
HETATM   20  C5  UNL     1      21.573  -1.324  54.575  1.00  0.00     0.034 C 
BRANCH  20  21
HETATM   21  C4  UNL     1      20.607  -0.187  54.379  1.00  0.00     0.004 C 
BRANCH  21  22
HETATM   22  C3  UNL     1      19.768  -0.419  53.145  1.00  0.00    -0.000 C 
BRANCH  22  23
HETATM   23  C2  UNL     1      19.934   0.755  52.193  1.00  0.00    -0.005 C 
HETATM   24  C1  UNL     1      20.880   0.425  51.060  1.00  0.00     0.005 C 
ENDBRANCH  22  23
ENDBRANCH  21  22
ENDBRANCH  20  21
ENDBRANCH   1  20
TORSDOF 6
ENDMDL
MODEL 9
REMARK VINA RESULT:      -7.2      2.976      4.553
REMARK  6 active torsions:
REMARK  status: ('A' for Active; 'I' for Inactive)
REMARK    1  A    between atoms: C2_2  and  C3_3 
REMARK    2  A    between atoms: C3_3  and  C4_4 
REMARK    3  A    between atoms: C4_4  and  C5_5 
REMARK    4  A    between atoms: C5_5  and  C6_6 
REMARK    5  A    between atoms: C11_13  and  N3_14 
REMARK    6  A    between atoms: N3_14  and  C12_15 
ROOT
HETATM    1  C6  UNL     1      20.244   0.323  52.053  1.00  0.00    -0.073 A 
HETATM    2  C7  UNL     1      21.552   0.417  52.017  1.00  0.00     0.020 A 
HETATM    3  C8  UNL     1      22.175  -0.235  53.176  1.00  0.00     0.035 A 
HETATM    4  C9  UNL     1      21.125  -0.728  53.913  1.00  0.00     0.053 A 
HETATM    5  N1  UNL     1      21.399  -1.376  55.035  1.00  0.00    -0.245 NA
HETATM    6  C10 UNL     1      22.678  -1.533  55.421  1.00  0.00     0.235 A 
HETATM    7  N2  UNL     1      23.688  -1.048  54.691  1.00  0.00    -0.224 NA
HETATM    8  C11 UNL     1      23.496  -0.381  53.547  1.00  0.00     0.141 A 
HETATM    9  C18 UNL     1      19.833  -0.418  53.270  1.00  0.00     0.094 A 
ENDROOT
BRANCH   8  10
HETATM   10  N3  UNL     1      24.500   0.162  52.721  1.00  0.00    -0.340 N 
HETATM   11  H14 UNL     1      24.194   0.668  51.841  1.00  0.00     0.167 HD
BRANCH  10  12
HETATM   12  C12 UNL     1      25.906   0.130  52.900  1.00  0.00     0.035 A 
HETATM   13  C13 UNL     1      26.626  -1.060  52.823  1.00  0.00     0.032 A 
HETATM   14  C14 UNL     1      27.986  -1.127  52.991  1.00  0.00     0.046 A 
HETATM   15  C15 UNL     1      28.717   0.011  53.251  1.00  0.00     0.138 A 
HETATM   16  F1  UNL     1      30.057  -0.089  53.411  1.00  0.00    -0.204 F 
HETATM   17  C16 UNL     1      28.051   1.216  53.336  1.00  0.00     0.074 A 
HETATM   18 CL1  UNL     1      28.990   2.653  53.664  1.00  0.00    -0.081 Cl
HETATM   19  C17 UNL     1      26.687   1.213  53.158  1.00  0.00     0.056 A 
ENDBRANCH  10  12
ENDBRANCH   8  10
BRANCH   1  20
HETATM   20  C5  UNL     1      19.240   0.839  51.088  1.00  0.00     0.034 C 
BRANCH  20  21
HETATM   21  C4  UNL     1      18.014  -0.033  51.081  1.00  0.00     0.004 C 
BRANCH  21  22
HETATM   22  C3  UNL     1      16.848   0.699  51.703  1.00  0.00    -0.000 C 
BRANCH  22  23
HETATM   23  C2  UNL     1      16.020  -0.277  52.525  1.00  0.00    -0.005 C 
HETATM   24  C1  UNL     1      14.708   0.334  52.961  1.00  0.00     0.005 C 
ENDBRANCH  22  23
ENDBRANCH  21  22
ENDBRANCH  20  21
ENDBRANCH   1  20
TORSDOF 6
ENDMDL
