MODEL 1
REMARK VINA RESULT:      -8.0      0.000      0.000
REMARK  5 active torsions:
REMARK  status: ('A' for Active; 'I' for Inactive)
REMARK    1  A    between atoms: C4_7  and  N4_8 
REMARK    2  A    between atoms: N4_8  and  C5_9 
REMARK    3  A    between atoms: C5_9  and  C6_10 
REMARK    4  A    between atoms: C6_10  and  C7_11 
REMARK    5  A    between atoms: C7_11  and  C8_12 
ROOT
HETATM    1  C1  UNL     1      21.440   4.088  52.279  1.00  0.00     0.005 C 
HETATM    2  C2  UNL     1      20.420   3.161  52.260  1.00  0.00     0.110 C 
HETATM    3  N1  UNL     1      20.734   2.173  51.196  1.00  0.00    -0.265 N 
HETATM    4  N2  UNL     1      21.184   0.974  51.892  1.00  0.00    -0.165 NA
HETATM    5  C3  UNL     1      22.468   0.811  52.344  1.00  0.00     0.257 C 
HETATM    6  N3  UNL     1      23.492   1.772  52.789  1.00  0.00    -0.227 NA
HETATM    7  C4  UNL     1      23.665   2.983  52.262  1.00  0.00     0.109 C 
HETATM    8  C14 UNL     1      22.914   4.210  51.953  1.00  0.00     0.084 C 
HETATM    9  C15 UNL     1      23.176   4.866  50.652  1.00  0.00     0.069 C 
HETATM   10  P1  UNL     1      23.631   3.886  49.208  1.00  0.00    -0.033 P 
HETATM   11  N5  UNL     1      22.371   3.818  47.893  1.00  0.00    -0.386 N 
HETATM   12  C16 UNL     1      21.430   2.889  48.525  1.00  0.00     0.065 A 
HETATM   13  C17 UNL     1      22.080   1.738  48.225  1.00  0.00    -0.011 A 
HETATM   14  C18 UNL     1      21.335   1.575  49.362  1.00  0.00     0.074 A 
HETATM   15  C19 UNL     1      20.627   2.644  49.788  1.00  0.00     0.086 A 
HETATM   16  C20 UNL     1      20.053   3.859  49.938  1.00  0.00    -0.009 A 
HETATM   17  C21 UNL     1      20.795   4.049  48.800  1.00  0.00     0.074 A 
HETATM   18  H19 UNL     1      24.255   2.625  49.437  1.00  0.00     0.080 HD
HETATM   19  H20 UNL     1      23.009   4.482  47.400  1.00  0.00     0.159 HD
ENDROOT
BRANCH   7  20
HETATM   20  N4  UNL     1      25.023   3.264  51.842  1.00  0.00    -0.378 N 
HETATM   21  H4  UNL     1      25.431   4.212  51.733  1.00  0.00     0.160 HD
BRANCH  20  22
HETATM   22  C5  UNL     1      25.921   2.138  51.539  1.00  0.00     0.121 C 
BRANCH  22  23
HETATM   23  C6  UNL     1      27.154   2.155  52.409  1.00  0.00     0.024 C 
BRANCH  23  24
HETATM   24  C7  UNL     1      26.882   1.225  53.586  1.00  0.00     0.040 C 
BRANCH  24  25
HETATM   25  C8  UNL     1      27.497  -0.112  53.360  1.00  0.00    -0.058 A 
HETATM   26  C9  UNL     1      26.862  -1.240  52.893  1.00  0.00     0.007 A 
HETATM   27  C10 UNL     1      27.577  -2.424  52.736  1.00  0.00     0.001 A 
HETATM   28  C11 UNL     1      28.923  -2.509  53.036  1.00  0.00     0.000 A 
HETATM   29  C12 UNL     1      29.573  -1.386  53.506  1.00  0.00     0.001 A 
HETATM   30  C13 UNL     1      28.854  -0.224  53.656  1.00  0.00     0.007 A 
ENDBRANCH  24  25
ENDBRANCH  23  24
ENDBRANCH  22  23
ENDBRANCH  20  22
ENDBRANCH   7  20
TORSDOF 5
ENDMDL
MODEL 2
REMARK VINA RESULT:      -7.9      1.726      3.350
REMARK  5 active torsions:
REMARK  status: ('A' for Active; 'I' for Inactive)
REMARK    1  A    between atoms: C4_7  and  N4_8 
REMARK    2  A    between atoms: N4_8  and  C5_9 
REMARK    3  A    between atoms: C5_9  and  C6_10 
REMARK    4  A    between atoms: C6_10  and  C7_11 
REMARK    5  A    between atoms: C7_11  and  C8_12 
ROOT
HETATM    1  C1  UNL     1      20.420   4.031  50.697  1.00  0.00     0.005 C 
HETATM    2  C2  UNL     1      20.426   3.973  49.319  1.00  0.00     0.110 C 
HETATM    3  N1  UNL     1      21.736   3.409  48.901  1.00  0.00    -0.265 N 
HETATM    4  N2  UNL     1      21.463   2.036  48.495  1.00  0.00    -0.165 NA
HETATM    5  C3  UNL     1      21.366   0.999  49.386  1.00  0.00     0.257 C 
HETATM    6  N3  UNL     1      20.951   0.941  50.799  1.00  0.00    -0.227 NA
HETATM    7  C4  UNL     1      21.202   1.894  51.695  1.00  0.00     0.109 C 
HETATM    8  C14 UNL     1      21.035   3.342  51.898  1.00  0.00     0.084 C 
HETATM    9  C15 UNL     1      22.168   4.088  52.488  1.00  0.00     0.069 C 
HETATM   10  P1  UNL     1      23.868   3.571  52.174  1.00  0.00    -0.033 P 
HETATM   11  N5  UNL     1      24.840   4.707  51.132  1.00  0.00    -0.386 N 
HETATM   12  C16 UNL     1      24.248   4.387  49.830  1.00  0.00     0.065 A 
HETATM   13  C17 UNL     1      24.951   3.254  49.583  1.00  0.00    -0.011 A 
HETATM   14  C18 UNL     1      23.746   3.210  48.935  1.00  0.00     0.074 A 
HETATM   15  C19 UNL     1      22.931   4.277  49.088  1.00  0.00     0.086 A 
HETATM   16  C20 UNL     1      22.372   5.460  49.429  1.00  0.00    -0.009 A 
HETATM   17  C21 UNL     1      23.571   5.525  50.093  1.00  0.00     0.074 A 
HETATM   18  H19 UNL     1      24.090   2.201  51.849  1.00  0.00     0.080 HD
HETATM   19  H20 UNL     1      25.294   4.970  52.035  1.00  0.00     0.159 HD
ENDROOT
BRANCH   7  20
HETATM   20  N4  UNL     1      21.841   1.422  52.907  1.00  0.00    -0.378 N 
HETATM   21  H4  UNL     1      22.443   1.995  53.527  1.00  0.00     0.160 HD
BRANCH  20  22
HETATM   22  C5  UNL     1      21.638   0.024  53.318  1.00  0.00     0.121 C 
BRANCH  22  23
HETATM   23  C6  UNL     1      22.873  -0.813  53.091  1.00  0.00     0.024 C 
BRANCH  23  24
HETATM   24  C7  UNL     1      23.755  -0.650  54.324  1.00  0.00     0.040 C 
BRANCH  24  25
HETATM   25  C8  UNL     1      25.123  -0.203  53.944  1.00  0.00    -0.058 A 
HETATM   26  C9  UNL     1      26.179   0.028  54.796  1.00  0.00     0.007 A 
HETATM   27  C10 UNL     1      27.404   0.448  54.285  1.00  0.00     0.001 A 
HETATM   28  C11 UNL     1      27.602   0.644  52.932  1.00  0.00     0.000 A 
HETATM   29  C12 UNL     1      26.552   0.417  52.065  1.00  0.00     0.001 A 
HETATM   30  C13 UNL     1      25.348   0.003  52.584  1.00  0.00     0.007 A 
ENDBRANCH  24  25
ENDBRANCH  23  24
ENDBRANCH  22  23
ENDBRANCH  20  22
ENDBRANCH   7  20
TORSDOF 5
ENDMDL
MODEL 3
REMARK VINA RESULT:      -7.9      1.671      3.608
REMARK  5 active torsions:
REMARK  status: ('A' for Active; 'I' for Inactive)
REMARK    1  A    between atoms: C4_7  and  N4_8 
REMARK    2  A    between atoms: N4_8  and  C5_9 
REMARK    3  A    between atoms: C5_9  and  C6_10 
REMARK    4  A    between atoms: C6_10  and  C7_11 
REMARK    5  A    between atoms: C7_11  and  C8_12 
ROOT
HETATM    1  C1  UNL     1      20.574   4.677  50.163  1.00  0.00     0.005 C 
HETATM    2  C2  UNL     1      20.867   4.994  48.853  1.00  0.00     0.110 C 
HETATM    3  N1  UNL     1      22.345   4.973  48.708  1.00  0.00    -0.265 N 
HETATM    4  N2  UNL     1      22.653   3.742  47.991  1.00  0.00    -0.165 NA
HETATM    5  C3  UNL     1      22.754   2.523  48.611  1.00  0.00     0.257 C 
HETATM    6  N3  UNL     1      22.121   1.970  49.820  1.00  0.00    -0.227 NA
HETATM    7  C4  UNL     1      21.845   2.678  50.914  1.00  0.00     0.109 C 
HETATM    8  C14 UNL     1      21.146   3.904  51.333  1.00  0.00     0.084 C 
HETATM    9  C15 UNL     1      21.810   4.763  52.338  1.00  0.00     0.069 C 
HETATM   10  P1  UNL     1      23.609   4.871  52.405  1.00  0.00    -0.033 P 
HETATM   11  N5  UNL     1      24.306   6.478  51.900  1.00  0.00    -0.386 N 
HETATM   12  C16 UNL     1      24.127   6.359  50.450  1.00  0.00     0.065 A 
HETATM   13  C17 UNL     1      25.215   5.591  50.195  1.00  0.00    -0.011 A 
HETATM   14  C18 UNL     1      24.251   5.371  49.247  1.00  0.00     0.074 A 
HETATM   15  C19 UNL     1      23.102   6.070  49.371  1.00  0.00     0.086 A 
HETATM   16  C20 UNL     1      22.110   6.901  49.765  1.00  0.00    -0.009 A 
HETATM   17  C21 UNL     1      23.057   7.134  50.729  1.00  0.00     0.074 A 
HETATM   18  H19 UNL     1      24.355   3.766  51.901  1.00  0.00     0.080 HD
HETATM   19  H20 UNL     1      24.454   6.610  52.925  1.00  0.00     0.159 HD
ENDROOT
BRANCH   7  20
HETATM   20  N4  UNL     1      22.360   2.108  52.142  1.00  0.00    -0.378 N 
HETATM   21  H4  UNL     1      22.312   2.557  53.076  1.00  0.00     0.160 HD
BRANCH  20  22
HETATM   22  C5  UNL     1      23.010   0.788  52.094  1.00  0.00     0.121 C 
BRANCH  22  23
HETATM   23  C6  UNL     1      24.293   0.766  52.888  1.00  0.00     0.024 C 
BRANCH  23  24
HETATM   24  C7  UNL     1      25.396   1.279  51.968  1.00  0.00     0.040 C 
BRANCH  24  25
HETATM   25  C8  UNL     1      26.731   1.136  52.608  1.00  0.00    -0.058 A 
HETATM   26  C9  UNL     1      27.532   2.154  53.075  1.00  0.00     0.007 A 
HETATM   27  C10 UNL     1      28.764   1.859  53.651  1.00  0.00     0.001 A 
HETATM   28  C11 UNL     1      29.221   0.560  53.774  1.00  0.00     0.000 A 
HETATM   29  C12 UNL     1      28.428  -0.470  53.310  1.00  0.00     0.001 A 
HETATM   30  C13 UNL     1      27.214  -0.164  52.743  1.00  0.00     0.007 A 
ENDBRANCH  24  25
ENDBRANCH  23  24
ENDBRANCH  22  23
ENDBRANCH  20  22
ENDBRANCH   7  20
TORSDOF 5
ENDMDL
MODEL 4
REMARK VINA RESULT:      -7.8      6.730      8.952
REMARK  5 active torsions:
REMARK  status: ('A' for Active; 'I' for Inactive)
REMARK    1  A    between atoms: C4_7  and  N4_8 
REMARK    2  A    between atoms: N4_8  and  C5_9 
REMARK    3  A    between atoms: C5_9  and  C6_10 
REMARK    4  A    between atoms: C6_10  and  C7_11 
REMARK    5  A    between atoms: C7_11  and  C8_12 
ROOT
HETATM    1  C1  UNL     1      29.043   7.751  46.127  1.00  0.00     0.005 C 
HETATM    2  C2  UNL     1      30.396   7.793  45.864  1.00  0.00     0.110 C 
HETATM    3  N1  UNL     1      31.087   8.139  47.133  1.00  0.00    -0.265 N 
HETATM    4  N2  UNL     1      31.689   6.898  47.604  1.00  0.00    -0.165 NA
HETATM    5  C3  UNL     1      30.993   5.951  48.309  1.00  0.00     0.257 C 
HETATM    6  N3  UNL     1      29.569   5.571  48.320  1.00  0.00    -0.227 NA
HETATM    7  C4  UNL     1      28.562   6.430  48.176  1.00  0.00     0.109 C 
HETATM    8  C14 UNL     1      28.082   7.484  47.268  1.00  0.00     0.084 C 
HETATM    9  C15 UNL     1      27.534   8.717  47.875  1.00  0.00     0.069 C 
HETATM   10  P1  UNL     1      28.170   9.323  49.450  1.00  0.00    -0.033 P 
HETATM   11  N5  UNL     1      29.119  10.877  49.353  1.00  0.00    -0.386 N 
HETATM   12  C16 UNL     1      30.361  10.351  48.779  1.00  0.00     0.065 A 
HETATM   13  C17 UNL     1      30.902   9.869  49.926  1.00  0.00    -0.011 A 
HETATM   14  C18 UNL     1      31.372   9.163  48.851  1.00  0.00     0.074 A 
HETATM   15  C19 UNL     1      30.919   9.531  47.632  1.00  0.00     0.086 A 
HETATM   16  C20 UNL     1      30.296  10.132  46.593  1.00  0.00    -0.009 A 
HETATM   17  C21 UNL     1      29.807  10.850  47.654  1.00  0.00     0.074 A 
HETATM   18  H19 UNL     1      28.762   8.372  50.332  1.00  0.00     0.080 HD
HETATM   19  H20 UNL     1      28.256  11.299  49.762  1.00  0.00     0.159 HD
ENDROOT
BRANCH   7  20
HETATM   20  N4  UNL     1      27.555   6.352  49.215  1.00  0.00    -0.378 N 
HETATM   21  H4  UNL     1      27.624   6.799  50.149  1.00  0.00     0.160 HD
BRANCH  20  22
HETATM   22  C5  UNL     1      26.326   5.585  48.957  1.00  0.00     0.121 C 
BRANCH  22  23
HETATM   23  C6  UNL     1      26.462   4.146  49.389  1.00  0.00     0.024 C 
BRANCH  23  24
HETATM   24  C7  UNL     1      25.246   3.822  50.251  1.00  0.00     0.040 C 
BRANCH  24  25
HETATM   25  C8  UNL     1      25.476   2.590  51.052  1.00  0.00    -0.058 A 
HETATM   26  C9  UNL     1      26.685   1.975  51.288  1.00  0.00     0.007 A 
HETATM   27  C10 UNL     1      26.738   0.820  52.061  1.00  0.00     0.001 A 
HETATM   28  C11 UNL     1      25.602   0.256  52.611  1.00  0.00     0.000 A 
HETATM   29  C12 UNL     1      24.382   0.861  52.383  1.00  0.00     0.001 A 
HETATM   30  C13 UNL     1      24.345   2.002  51.617  1.00  0.00     0.007 A 
ENDBRANCH  24  25
ENDBRANCH  23  24
ENDBRANCH  22  23
ENDBRANCH  20  22
ENDBRANCH   7  20
TORSDOF 5
ENDMDL
MODEL 5
REMARK VINA RESULT:      -7.8      2.027      4.454
REMARK  5 active torsions:
REMARK  status: ('A' for Active; 'I' for Inactive)
REMARK    1  A    between atoms: C4_7  and  N4_8 
REMARK    2  A    between atoms: N4_8  and  C5_9 
REMARK    3  A    between atoms: C5_9  and  C6_10 
REMARK    4  A    between atoms: C6_10  and  C7_11 
REMARK    5  A    between atoms: C7_11  and  C8_12 
ROOT
HETATM    1  C1  UNL     1      20.623   6.036  49.619  1.00  0.00     0.005 C 
HETATM    2  C2  UNL     1      21.073   6.579  48.434  1.00  0.00     0.110 C 
HETATM    3  N1  UNL     1      22.524   6.278  48.327  1.00  0.00    -0.265 N 
HETATM    4  N2  UNL     1      22.633   5.210  47.341  1.00  0.00    -0.165 NA
HETATM    5  C3  UNL     1      22.440   3.888  47.648  1.00  0.00     0.257 C 
HETATM    6  N3  UNL     1      21.617   3.217  48.669  1.00  0.00    -0.227 NA
HETATM    7  C4  UNL     1      21.405   3.694  49.895  1.00  0.00     0.109 C 
HETATM    8  C14 UNL     1      20.936   4.909  50.581  1.00  0.00     0.084 C 
HETATM    9  C15 UNL     1      21.679   5.350  51.782  1.00  0.00     0.069 C 
HETATM   10  P1  UNL     1      23.453   5.054  51.921  1.00  0.00    -0.033 P 
HETATM   11  N5  UNL     1      24.494   6.547  51.840  1.00  0.00    -0.386 N 
HETATM   12  C16 UNL     1      24.407   6.809  50.400  1.00  0.00     0.065 A 
HETATM   13  C17 UNL     1      25.336   5.908  49.995  1.00  0.00    -0.011 A 
HETATM   14  C18 UNL     1      24.424   6.125  48.997  1.00  0.00     0.074 A 
HETATM   15  C19 UNL     1      23.431   7.004  49.257  1.00  0.00     0.086 A 
HETATM   16  C20 UNL     1      22.599   7.912  49.814  1.00  0.00    -0.009 A 
HETATM   17  C21 UNL     1      23.497   7.708  50.831  1.00  0.00     0.074 A 
HETATM   18  H19 UNL     1      23.999   3.963  51.183  1.00  0.00     0.080 HD
HETATM   19  H20 UNL     1      24.587   6.403  52.870  1.00  0.00     0.159 HD
ENDROOT
BRANCH   7  20
HETATM   20  N4  UNL     1      21.700   2.758  50.961  1.00  0.00    -0.378 N 
HETATM   21  H4  UNL     1      21.842   3.012  51.957  1.00  0.00     0.160 HD
BRANCH  20  22
HETATM   22  C5  UNL     1      21.813   1.327  50.638  1.00  0.00     0.121 C 
BRANCH  22  23
HETATM   23  C6  UNL     1      21.981   0.484  51.878  1.00  0.00     0.024 C 
BRANCH  23  24
HETATM   24  C7  UNL     1      22.918   1.244  52.811  1.00  0.00     0.040 C 
BRANCH  24  25
HETATM   25  C8  UNL     1      24.329   0.815  52.611  1.00  0.00    -0.058 A 
HETATM   26  C9  UNL     1      25.296   1.479  51.889  1.00  0.00     0.007 A 
HETATM   27  C10 UNL     1      26.578   0.946  51.793  1.00  0.00     0.001 A 
HETATM   28  C11 UNL     1      26.922  -0.244  52.406  1.00  0.00     0.000 A 
HETATM   29  C12 UNL     1      25.963  -0.920  53.133  1.00  0.00     0.001 A 
HETATM   30  C13 UNL     1      24.701  -0.382  53.219  1.00  0.00     0.007 A 
ENDBRANCH  24  25
ENDBRANCH  23  24
ENDBRANCH  22  23
ENDBRANCH  20  22
ENDBRANCH   7  20
TORSDOF 5
ENDMDL
MODEL 6
REMARK VINA RESULT:      -7.8      2.313      4.501
REMARK  5 active torsions:
REMARK  status: ('A' for Active; 'I' for Inactive)
REMARK    1  A    between atoms: C4_7  and  N4_8 
REMARK    2  A    between atoms: N4_8  and  C5_9 
REMARK    3  A    between atoms: C5_9  and  C6_10 
REMARK    4  A    between atoms: C6_10  and  C7_11 
REMARK    5  A    between atoms: C7_11  and  C8_12 
ROOT
HETATM    1  C1  UNL     1      21.043   4.841  49.053  1.00  0.00     0.005 C 
HETATM    2  C2  UNL     1      21.764   4.495  47.929  1.00  0.00     0.110 C 
HETATM    3  N1  UNL     1      22.824   3.544  48.354  1.00  0.00    -0.265 N 
HETATM    4  N2  UNL     1      22.378   2.231  47.904  1.00  0.00    -0.165 NA
HETATM    5  C3  UNL     1      21.487   1.464  48.609  1.00  0.00     0.257 C 
HETATM    6  N3  UNL     1      20.390   1.811  49.529  1.00  0.00    -0.227 NA
HETATM    7  C4  UNL     1      20.420   2.835  50.380  1.00  0.00     0.109 C 
HETATM    8  C14 UNL     1      20.656   4.288  50.408  1.00  0.00     0.084 C 
HETATM    9  C15 UNL     1      21.468   4.829  51.520  1.00  0.00     0.069 C 
HETATM   10  P1  UNL     1      22.792   3.846  52.251  1.00  0.00    -0.033 P 
HETATM   11  N5  UNL     1      24.478   4.453  51.922  1.00  0.00    -0.386 N 
HETATM   12  C16 UNL     1      24.607   4.027  50.525  1.00  0.00     0.065 A 
HETATM   13  C17 UNL     1      24.915   2.727  50.760  1.00  0.00    -0.011 A 
HETATM   14  C18 UNL     1      24.308   2.855  49.539  1.00  0.00     0.074 A 
HETATM   15  C19 UNL     1      23.940   4.101  49.166  1.00  0.00     0.086 A 
HETATM   16  C20 UNL     1      23.710   5.431  49.092  1.00  0.00    -0.009 A 
HETATM   17  C21 UNL     1      24.311   5.328  50.320  1.00  0.00     0.074 A 
HETATM   18  H19 UNL     1      22.689   2.427  52.152  1.00  0.00     0.080 HD
HETATM   19  H20 UNL     1      24.435   4.777  52.914  1.00  0.00     0.159 HD
ENDROOT
BRANCH   7  20
HETATM   20  N4  UNL     1      20.116   2.483  51.752  1.00  0.00    -0.378 N 
HETATM   21  H4  UNL     1      20.227   3.112  52.569  1.00  0.00     0.160 HD
BRANCH  20  22
HETATM   22  C5  UNL     1      19.608   1.132  52.042  1.00  0.00     0.121 C 
BRANCH  22  23
HETATM   23  C6  UNL     1      20.452   0.425  53.073  1.00  0.00     0.024 C 
BRANCH  23  24
HETATM   24  C7  UNL     1      21.700  -0.081  52.357  1.00  0.00     0.040 C 
BRANCH  24  25
HETATM   25  C8  UNL     1      22.784  -0.388  53.330  1.00  0.00    -0.058 A 
HETATM   26  C9  UNL     1      24.124  -0.111  53.182  1.00  0.00     0.007 A 
HETATM   27  C10 UNL     1      25.020  -0.464  54.186  1.00  0.00     0.001 A 
HETATM   28  C11 UNL     1      24.608  -1.092  55.346  1.00  0.00     0.000 A 
HETATM   29  C12 UNL     1      23.266  -1.376  55.508  1.00  0.00     0.001 A 
HETATM   30  C13 UNL     1      22.393  -1.021  54.508  1.00  0.00     0.007 A 
ENDBRANCH  24  25
ENDBRANCH  23  24
ENDBRANCH  22  23
ENDBRANCH  20  22
ENDBRANCH   7  20
TORSDOF 5
ENDMDL
MODEL 7
REMARK VINA RESULT:      -7.8      7.874     10.806
REMARK  5 active torsions:
REMARK  status: ('A' for Active; 'I' for Inactive)
REMARK    1  A    between atoms: C4_7  and  N4_8 
REMARK    2  A    between atoms: N4_8  and  C5_9 
REMARK    3  A    between atoms: C5_9  and  C6_10 
REMARK    4  A    between atoms: C6_10  and  C7_11 
REMARK    5  A    between atoms: C7_11  and  C8_12 
ROOT
HETATM    1  C1  UNL     1      32.619   9.389  47.684  1.00  0.00     0.005 C 
HETATM    2  C2  UNL     1      33.069   9.222  46.391  1.00  0.00     0.110 C 
HETATM    3  N1  UNL     1      32.703   7.847  45.964  1.00  0.00    -0.265 N 
HETATM    4  N2  UNL     1      31.573   8.004  45.057  1.00  0.00    -0.165 NA
HETATM    5  C3  UNL     1      30.281   8.151  45.492  1.00  0.00     0.257 C 
HETATM    6  N3  UNL     1      29.709   8.722  46.723  1.00  0.00    -0.227 NA
HETATM    7  C4  UNL     1      30.268   8.623  47.928  1.00  0.00     0.109 C 
HETATM    8  C14 UNL     1      31.541   8.883  48.620  1.00  0.00     0.084 C 
HETATM    9  C15 UNL     1      32.023   7.863  49.577  1.00  0.00     0.069 C 
HETATM   10  P1  UNL     1      31.663   6.116  49.311  1.00  0.00    -0.033 P 
HETATM   11  N5  UNL     1      33.105   5.087  48.883  1.00  0.00    -0.386 N 
HETATM   12  C16 UNL     1      33.282   5.509  47.490  1.00  0.00     0.065 A 
HETATM   13  C17 UNL     1      32.320   4.727  46.940  1.00  0.00    -0.011 A 
HETATM   14  C18 UNL     1      32.513   5.846  46.174  1.00  0.00     0.074 A 
HETATM   15  C19 UNL     1      33.447   6.725  46.601  1.00  0.00     0.086 A 
HETATM   16  C20 UNL     1      34.420   7.377  47.276  1.00  0.00    -0.009 A 
HETATM   17  C21 UNL     1      34.242   6.267  48.061  1.00  0.00     0.074 A 
HETATM   18  H19 UNL     1      30.508   5.790  48.542  1.00  0.00     0.080 HD
HETATM   19  H20 UNL     1      33.021   4.754  49.869  1.00  0.00     0.159 HD
ENDROOT
BRANCH   7  20
HETATM   20  N4  UNL     1      29.388   8.105  48.955  1.00  0.00    -0.378 N 
HETATM   21  H4  UNL     1      29.569   7.259  49.528  1.00  0.00     0.160 HD
BRANCH  20  22
HETATM   22  C5  UNL     1      28.128   8.813  49.234  1.00  0.00     0.121 C 
BRANCH  22  23
HETATM   23  C6  UNL     1      26.954   7.866  49.291  1.00  0.00     0.024 C 
BRANCH  23  24
HETATM   24  C7  UNL     1      27.303   6.668  48.414  1.00  0.00     0.040 C 
BRANCH  24  25
HETATM   25  C8  UNL     1      26.550   5.458  48.842  1.00  0.00    -0.058 A 
HETATM   26  C9  UNL     1      27.082   4.233  49.176  1.00  0.00     0.007 A 
HETATM   27  C10 UNL     1      26.241   3.192  49.558  1.00  0.00     0.001 A 
HETATM   28  C11 UNL     1      24.869   3.345  49.615  1.00  0.00     0.000 A 
HETATM   29  C12 UNL     1      24.321   4.568  49.283  1.00  0.00     0.001 A 
HETATM   30  C13 UNL     1      25.163   5.587  48.908  1.00  0.00     0.007 A 
ENDBRANCH  24  25
ENDBRANCH  23  24
ENDBRANCH  22  23
ENDBRANCH  20  22
ENDBRANCH   7  20
TORSDOF 5
ENDMDL
MODEL 8
REMARK VINA RESULT:      -7.7      9.997     12.686
REMARK  5 active torsions:
REMARK  status: ('A' for Active; 'I' for Inactive)
REMARK    1  A    between atoms: C4_7  and  N4_8 
REMARK    2  A    between atoms: N4_8  and  C5_9 
REMARK    3  A    between atoms: C5_9  and  C6_10 
REMARK    4  A    between atoms: C6_10  and  C7_11 
REMARK    5  A    between atoms: C7_11  and  C8_12 
ROOT
HETATM    1  C1  UNL     1      32.106   6.619  48.258  1.00  0.00     0.005 C 
HETATM    2  C2  UNL     1      32.693   5.726  49.129  1.00  0.00     0.110 C 
HETATM    3  N1  UNL     1      33.822   5.079  48.413  1.00  0.00    -0.265 N 
HETATM    4  N2  UNL     1      35.032   5.686  48.954  1.00  0.00    -0.165 NA
HETATM    5  C3  UNL     1      35.521   6.891  48.520  1.00  0.00     0.257 C 
HETATM    6  N3  UNL     1      34.865   8.080  47.949  1.00  0.00    -0.227 NA
HETATM    7  C4  UNL     1      33.810   8.038  47.137  1.00  0.00     0.109 C 
HETATM    8  C14 UNL     1      32.451   7.479  47.060  1.00  0.00     0.084 C 
HETATM    9  C15 UNL     1      32.021   6.893  45.771  1.00  0.00     0.069 C 
HETATM   10  P1  UNL     1      33.218   6.091  44.686  1.00  0.00    -0.033 P 
HETATM   11  N5  UNL     1      33.034   4.284  44.534  1.00  0.00    -0.386 N 
HETATM   12  C16 UNL     1      33.586   3.888  45.833  1.00  0.00     0.065 A 
HETATM   13  C17 UNL     1      34.900   3.974  45.506  1.00  0.00    -0.011 A 
HETATM   14  C18 UNL     1      34.734   4.179  46.850  1.00  0.00     0.074 A 
HETATM   15  C19 UNL     1      33.471   4.124  47.326  1.00  0.00     0.086 A 
HETATM   16  C20 UNL     1      32.133   4.002  47.477  1.00  0.00    -0.009 A 
HETATM   17  C21 UNL     1      32.272   3.798  46.128  1.00  0.00     0.074 A 
HETATM   18  H19 UNL     1      34.580   6.498  44.793  1.00  0.00     0.080 HD
HETATM   19  H20 UNL     1      32.633   4.516  43.598  1.00  0.00     0.159 HD
ENDROOT
BRANCH   7  20
HETATM   20  N4  UNL     1      33.977   8.776  45.901  1.00  0.00    -0.378 N 
HETATM   21  H4  UNL     1      34.007   8.357  44.953  1.00  0.00     0.160 HD
BRANCH  20  22
HETATM   22  C5  UNL     1      34.117  10.240  45.963  1.00  0.00     0.121 C 
BRANCH  22  23
HETATM   23  C6  UNL     1      32.813  10.941  45.672  1.00  0.00     0.024 C 
BRANCH  23  24
HETATM   24  C7  UNL     1      32.284  11.469  47.002  1.00  0.00     0.040 C 
BRANCH  24  25
HETATM   25  C8  UNL     1      31.104  10.684  47.454  1.00  0.00    -0.058 A 
HETATM   26  C9  UNL     1      30.068  10.230  46.668  1.00  0.00     0.007 A 
HETATM   27  C10 UNL     1      29.028   9.506  47.241  1.00  0.00     0.001 A 
HETATM   28  C11 UNL     1      28.995   9.220  48.593  1.00  0.00     0.000 A 
HETATM   29  C12 UNL     1      30.026   9.670  49.393  1.00  0.00     0.001 A 
HETATM   30  C13 UNL     1      31.047  10.384  48.813  1.00  0.00     0.007 A 
ENDBRANCH  24  25
ENDBRANCH  23  24
ENDBRANCH  22  23
ENDBRANCH  20  22
ENDBRANCH   7  20
TORSDOF 5
ENDMDL
MODEL 9
REMARK VINA RESULT:      -7.7      1.733      2.817
REMARK  5 active torsions:
REMARK  status: ('A' for Active; 'I' for Inactive)
REMARK    1  A    between atoms: C4_7  and  N4_8 
REMARK    2  A    between atoms: N4_8  and  C5_9 
REMARK    3  A    between atoms: C5_9  and  C6_10 
REMARK    4  A    between atoms: C6_10  and  C7_11 
REMARK    5  A    between atoms: C7_11  and  C8_12 
ROOT
HETATM    1  C1  UNL     1      23.623   4.645  48.995  1.00  0.00     0.005 C 
HETATM    2  C2  UNL     1      22.940   5.818  49.239  1.00  0.00     0.110 C 
HETATM    3  N1  UNL     1      21.613   5.453  49.799  1.00  0.00    -0.265 N 
HETATM    4  N2  UNL     1      21.692   5.747  51.224  1.00  0.00    -0.165 NA
HETATM    5  C3  UNL     1      22.248   4.885  52.134  1.00  0.00     0.257 C 
HETATM    6  N3  UNL     1      23.308   3.869  52.017  1.00  0.00    -0.227 NA
HETATM    7  C4  UNL     1      23.503   3.107  50.942  1.00  0.00     0.109 C 
HETATM    8  C14 UNL     1      23.704   3.216  49.488  1.00  0.00     0.084 C 
HETATM    9  C15 UNL     1      22.987   2.253  48.623  1.00  0.00     0.069 C 
HETATM   10  P1  UNL     1      21.371   1.614  49.106  1.00  0.00    -0.033 P 
HETATM   11  N5  UNL     1      19.976   2.186  48.082  1.00  0.00    -0.386 N 
HETATM   12  C16 UNL     1      19.858   3.552  48.600  1.00  0.00     0.065 A 
HETATM   13  C17 UNL     1      19.160   3.260  49.726  1.00  0.00    -0.011 A 
HETATM   14  C18 UNL     1      19.888   4.406  49.907  1.00  0.00     0.074 A 
HETATM   15  C19 UNL     1      20.639   4.824  48.864  1.00  0.00     0.086 A 
HETATM   16  C20 UNL     1      21.257   4.970  47.671  1.00  0.00    -0.009 A 
HETATM   17  C21 UNL     1      20.541   3.818  47.467  1.00  0.00     0.074 A 
HETATM   18  H19 UNL     1      21.060   1.593  50.497  1.00  0.00     0.080 HD
HETATM   19  H20 UNL     1      20.020   1.223  47.681  1.00  0.00     0.159 HD
ENDROOT
BRANCH   7  20
HETATM   20  N4  UNL     1      23.561   1.686  51.219  1.00  0.00    -0.378 N 
HETATM   21  H4  UNL     1      23.570   0.937  50.501  1.00  0.00     0.160 HD
BRANCH  20  22
HETATM   22  C5  UNL     1      23.613   1.236  52.619  1.00  0.00     0.121 C 
BRANCH  22  23
HETATM   23  C6  UNL     1      24.756   0.279  52.858  1.00  0.00     0.024 C 
BRANCH  23  24
HETATM   24  C7  UNL     1      26.018   0.952  52.330  1.00  0.00     0.040 C 
BRANCH  24  25
HETATM   25  C8  UNL     1      27.236   0.225  52.781  1.00  0.00    -0.058 A 
HETATM   26  C9  UNL     1      27.430  -1.139  52.772  1.00  0.00     0.007 A 
HETATM   27  C10 UNL     1      28.631  -1.671  53.230  1.00  0.00     0.001 A 
HETATM   28  C11 UNL     1      29.653  -0.870  53.702  1.00  0.00     0.000 A 
HETATM   29  C12 UNL     1      29.472   0.498  53.718  1.00  0.00     0.001 A 
HETATM   30  C13 UNL     1      28.281   1.011  53.262  1.00  0.00     0.007 A 
ENDBRANCH  24  25
ENDBRANCH  23  24
ENDBRANCH  22  23
ENDBRANCH  20  22
ENDBRANCH   7  20
TORSDOF 5
ENDMDL
