MODEL 1
REMARK VINA RESULT:      -7.2      0.000      0.000
REMARK  4 active torsions:
REMARK  status: ('A' for Active; 'I' for Inactive)
REMARK    1  A    between atoms: O1_2  and  C2_3 
REMARK    2  A    between atoms: C6_8  and  C7_9 
REMARK    3  A    between atoms: C8_10  and  C9_11 
REMARK    4  A    between atoms: C9_11  and  N2_12 
ROOT
HETATM    1  C2  UNL     1      23.652   2.847  51.509  1.00  0.00     0.090 C 
HETATM    2  C3  UNL     1      24.893   3.269  51.345  1.00  0.00     0.012 C 
HETATM    3  C4  UNL     1      25.834   2.222  51.839  1.00  0.00     0.049 C 
HETATM    4  C5  UNL     1      25.148   1.722  53.099  1.00  0.00     0.124 C 
HETATM    5  N1  UNL     1      24.140   0.775  52.634  1.00  0.00    -0.374 N 
HETATM    6  C6  UNL     1      24.360  -0.478  53.105  1.00  0.00     0.105 C 
HETATM    7  C10 UNL     1      23.814  -0.878  54.480  1.00  0.00     0.029 C 
HETATM    8  C11 UNL     1      22.351  -0.618  54.668  1.00  0.00     0.006 C 
HETATM    9  C12 UNL     1      21.366  -1.292  53.811  1.00  0.00     0.027 C 
HETATM   10  C13 UNL     1      20.083  -0.477  53.639  1.00  0.00    -0.022 C 
HETATM   11  C14 UNL     1      20.313   0.201  52.440  1.00  0.00    -0.064 C 
HETATM   12  C15 UNL     1      19.323   1.139  51.861  1.00  0.00     0.045 C 
HETATM   13  C16 UNL     1      21.417   0.136  51.466  1.00  0.00     0.204 C 
HETATM   14  O2  UNL     1      22.259   1.099  51.081  1.00  0.00    -0.357 OA
HETATM   15  C17 UNL     1      23.173   1.560  52.081  1.00  0.00     0.277 C 
ENDROOT
BRANCH   6  16
HETATM   16  C7  UNL     1      25.832  -0.670  53.312  1.00  0.00    -0.001 C 
HETATM   17  C8  UNL     1      26.644  -1.479  52.667  1.00  0.00     0.016 C 
BRANCH  17  18
HETATM   18  C9  UNL     1      28.033  -1.443  53.096  1.00  0.00     0.107 C 
BRANCH  18  19
HETATM   19  N2  UNL     1      29.187  -1.535  53.599  1.00  0.00    -0.312 NA
HETATM   20  H13 UNL     1      29.333  -1.692  54.629  1.00  0.00     0.186 HD
ENDBRANCH  18  19
ENDBRANCH  17  18
ENDBRANCH   6  16
BRANCH   1  21
HETATM   21  O1  UNL     1      22.670   3.711  51.097  1.00  0.00    -0.356 OA
HETATM   22  C1  UNL     1      21.908   4.487  52.024  1.00  0.00     0.209 C 
ENDBRANCH   1  21
TORSDOF 4
ENDMDL
MODEL 2
REMARK VINA RESULT:      -7.1      2.335      4.021
REMARK  4 active torsions:
REMARK  status: ('A' for Active; 'I' for Inactive)
REMARK    1  A    between atoms: O1_2  and  C2_3 
REMARK    2  A    between atoms: C6_8  and  C7_9 
REMARK    3  A    between atoms: C8_10  and  C9_11 
REMARK    4  A    between atoms: C9_11  and  N2_12 
ROOT
HETATM    1  C2  UNL     1      21.134   3.731  51.844  1.00  0.00     0.090 C 
HETATM    2  C3  UNL     1      21.242   4.899  51.234  1.00  0.00     0.012 C 
HETATM    3  C4  UNL     1      22.617   5.032  50.674  1.00  0.00     0.049 C 
HETATM    4  C5  UNL     1      23.486   4.437  51.769  1.00  0.00     0.124 C 
HETATM    5  N1  UNL     1      23.410   2.993  51.573  1.00  0.00    -0.374 N 
HETATM    6  C6  UNL     1      24.621   2.450  51.294  1.00  0.00     0.105 C 
HETATM    7  C10 UNL     1      25.553   2.045  52.442  1.00  0.00     0.029 C 
HETATM    8  C11 UNL     1      24.926   1.148  53.465  1.00  0.00     0.006 C 
HETATM    9  C12 UNL     1      24.428  -0.179  53.077  1.00  0.00     0.027 C 
HETATM   10  C13 UNL     1      23.276  -0.655  53.964  1.00  0.00    -0.022 C 
HETATM   11  C14 UNL     1      22.150  -0.276  53.228  1.00  0.00    -0.064 C 
HETATM   12  C15 UNL     1      20.772  -0.532  53.708  1.00  0.00     0.045 C 
HETATM   13  C16 UNL     1      22.002   0.327  51.892  1.00  0.00     0.204 C 
HETATM   14  O2  UNL     1      21.456   1.497  51.552  1.00  0.00    -0.357 OA
HETATM   15  C17 UNL     1      22.157   2.662  51.997  1.00  0.00     0.277 C 
ENDROOT
BRANCH   6  16
HETATM   16  C7  UNL     1      25.461   3.470  50.588  1.00  0.00    -0.001 C 
HETATM   17  C8  UNL     1      26.417   3.266  49.707  1.00  0.00     0.016 C 
BRANCH  17  18
HETATM   18  C9  UNL     1      27.057   4.466  49.191  1.00  0.00     0.107 C 
BRANCH  18  19
HETATM   19  N2  UNL     1      27.732   5.489  48.888  1.00  0.00    -0.312 NA
HETATM   20  H13 UNL     1      28.469   5.466  48.137  1.00  0.00     0.186 HD
ENDBRANCH  18  19
ENDBRANCH  17  18
ENDBRANCH   6  16
BRANCH   1  21
HETATM   21  O1  UNL     1      19.914   3.466  52.412  1.00  0.00    -0.356 OA
HETATM   22  C1  UNL     1      18.705   3.497  51.653  1.00  0.00     0.209 C 
ENDBRANCH   1  21
TORSDOF 4
ENDMDL
MODEL 3
REMARK VINA RESULT:      -7.0      1.911      4.268
REMARK  4 active torsions:
REMARK  status: ('A' for Active; 'I' for Inactive)
REMARK    1  A    between atoms: O1_2  and  C2_3 
REMARK    2  A    between atoms: C6_8  and  C7_9 
REMARK    3  A    between atoms: C8_10  and  C9_11 
REMARK    4  A    between atoms: C9_11  and  N2_12 
ROOT
HETATM    1  C2  UNL     1      20.364  -0.411  53.414  1.00  0.00     0.090 C 
HETATM    2  C3  UNL     1      20.824  -1.361  54.209  1.00  0.00     0.012 C 
HETATM    3  C4  UNL     1      22.282  -1.145  54.436  1.00  0.00     0.049 C 
HETATM    4  C5  UNL     1      22.776  -0.719  53.064  1.00  0.00     0.124 C 
HETATM    5  N1  UNL     1      22.452   0.700  52.966  1.00  0.00    -0.374 N 
HETATM    6  C6  UNL     1      23.560   1.470  52.825  1.00  0.00     0.105 C 
HETATM    7  C10 UNL     1      24.143   1.709  51.427  1.00  0.00     0.029 C 
HETATM    8  C11 UNL     1      23.157   2.220  50.422  1.00  0.00     0.006 C 
HETATM    9  C12 UNL     1      22.490   3.513  50.632  1.00  0.00     0.027 C 
HETATM   10  C13 UNL     1      21.112   3.576  49.971  1.00  0.00    -0.022 C 
HETATM   11  C14 UNL     1      20.256   3.230  51.019  1.00  0.00    -0.064 C 
HETATM   12  C15 UNL     1      18.787   3.151  50.845  1.00  0.00     0.045 C 
HETATM   13  C16 UNL     1      20.503   2.963  52.447  1.00  0.00     0.204 C 
HETATM   14  O2  UNL     1      20.282   1.847  53.146  1.00  0.00    -0.357 OA
HETATM   15  C17 UNL     1      21.099   0.725  52.798  1.00  0.00     0.277 C 
ENDROOT
BRANCH   6  16
HETATM   16  C7  UNL     1      24.712   0.793  53.504  1.00  0.00    -0.001 C 
HETATM   17  C8  UNL     1      25.903   1.287  53.769  1.00  0.00     0.016 C 
BRANCH  17  18
HETATM   18  C9  UNL     1      26.819   0.382  54.444  1.00  0.00     0.107 C 
BRANCH  18  19
HETATM   19  N2  UNL     1      27.749  -0.290  54.970  1.00  0.00    -0.312 NA
HETATM   20  H13 UNL     1      28.749  -0.193  54.657  1.00  0.00     0.186 HD
ENDBRANCH  18  19
ENDBRANCH  17  18
ENDBRANCH   6  16
BRANCH   1  21
HETATM   21  O1  UNL     1      19.027  -0.481  53.115  1.00  0.00    -0.356 OA
HETATM   22  C1  UNL     1      18.241  -1.631  53.432  1.00  0.00     0.209 C 
ENDBRANCH   1  21
TORSDOF 4
ENDMDL
MODEL 4
REMARK VINA RESULT:      -6.8      2.608      5.098
REMARK  4 active torsions:
REMARK  status: ('A' for Active; 'I' for Inactive)
REMARK    1  A    between atoms: O1_2  and  C2_3 
REMARK    2  A    between atoms: C6_8  and  C7_9 
REMARK    3  A    between atoms: C8_10  and  C9_11 
REMARK    4  A    between atoms: C9_11  and  N2_12 
ROOT
HETATM    1  C2  UNL     1      26.255   0.502  52.722  1.00  0.00     0.090 C 
HETATM    2  C3  UNL     1      27.455   1.055  52.687  1.00  0.00     0.012 C 
HETATM    3  C4  UNL     1      27.355   2.399  52.050  1.00  0.00     0.049 C 
HETATM    4  C5  UNL     1      26.375   2.161  50.914  1.00  0.00     0.124 C 
HETATM    5  N1  UNL     1      25.055   2.216  51.532  1.00  0.00    -0.374 N 
HETATM    6  C6  UNL     1      24.298   3.225  51.032  1.00  0.00     0.105 C 
HETATM    7  C10 UNL     1      23.474   2.996  49.760  1.00  0.00     0.029 C 
HETATM    8  C11 UNL     1      22.580   1.794  49.807  1.00  0.00     0.006 C 
HETATM    9  C12 UNL     1      21.508   1.710  50.809  1.00  0.00     0.027 C 
HETATM   10  C13 UNL     1      21.167   0.267  51.183  1.00  0.00    -0.022 C 
HETATM   11  C14 UNL     1      21.936   0.061  52.331  1.00  0.00    -0.064 C 
HETATM   12  C15 UNL     1      21.935  -1.229  53.061  1.00  0.00     0.045 C 
HETATM   13  C16 UNL     1      22.795   0.963  53.118  1.00  0.00     0.204 C 
HETATM   14  O2  UNL     1      24.105   0.877  53.364  1.00  0.00    -0.357 OA
HETATM   15  C17 UNL     1      24.963   1.051  52.233  1.00  0.00     0.277 C 
ENDROOT
BRANCH   6  16
HETATM   16  C7  UNL     1      25.199   4.339  50.594  1.00  0.00    -0.001 C 
HETATM   17  C8  UNL     1      25.059   5.137  49.557  1.00  0.00     0.016 C 
BRANCH  17  18
HETATM   18  C9  UNL     1      26.106   6.132  49.388  1.00  0.00     0.107 C 
BRANCH  18  19
HETATM   19  N2  UNL     1      27.011   7.011  49.428  1.00  0.00    -0.312 NA
HETATM   20  H13 UNL     1      27.356   7.411  50.338  1.00  0.00     0.186 HD
ENDBRANCH  18  19
ENDBRANCH  17  18
ENDBRANCH   6  16
BRANCH   1  21
HETATM   21  O1  UNL     1      26.191  -0.747  53.286  1.00  0.00    -0.356 OA
HETATM   22  C1  UNL     1      26.823  -1.879  52.686  1.00  0.00     0.209 C 
ENDBRANCH   1  21
TORSDOF 4
ENDMDL
MODEL 5
REMARK VINA RESULT:      -6.8      1.732      4.315
REMARK  4 active torsions:
REMARK  status: ('A' for Active; 'I' for Inactive)
REMARK    1  A    between atoms: O1_2  and  C2_3 
REMARK    2  A    between atoms: C6_8  and  C7_9 
REMARK    3  A    between atoms: C8_10  and  C9_11 
REMARK    4  A    between atoms: C9_11  and  N2_12 
ROOT
HETATM    1  C2  UNL     1      22.965   0.629  53.111  1.00  0.00     0.090 C 
HETATM    2  C3  UNL     1      23.521  -0.371  53.771  1.00  0.00     0.012 C 
HETATM    3  C4  UNL     1      25.003  -0.208  53.749  1.00  0.00     0.049 C 
HETATM    4  C5  UNL     1      25.267   0.272  52.332  1.00  0.00     0.124 C 
HETATM    5  N1  UNL     1      24.983   1.703  52.355  1.00  0.00    -0.374 N 
HETATM    6  C6  UNL     1      26.077   2.447  52.056  1.00  0.00     0.105 C 
HETATM    7  C10 UNL     1      26.417   2.740  50.591  1.00  0.00     0.029 C 
HETATM    8  C11 UNL     1      25.291   3.328  49.797  1.00  0.00     0.006 C 
HETATM    9  C12 UNL     1      24.718   4.626  50.177  1.00  0.00     0.027 C 
HETATM   10  C13 UNL     1      23.250   4.761  49.769  1.00  0.00    -0.022 C 
HETATM   11  C14 UNL     1      22.576   4.387  50.935  1.00  0.00    -0.064 C 
HETATM   12  C15 UNL     1      21.097   4.357  51.017  1.00  0.00     0.045 C 
HETATM   13  C16 UNL     1      23.057   4.043  52.285  1.00  0.00     0.204 C 
HETATM   14  O2  UNL     1      22.920   2.899  52.961  1.00  0.00    -0.357 OA
HETATM   15  C17 UNL     1      23.623   1.774  52.427  1.00  0.00     0.277 C 
ENDROOT
BRANCH   6  16
HETATM   16  C7  UNL     1      27.304   1.706  52.494  1.00  0.00    -0.001 C 
HETATM   17  C8  UNL     1      28.157   2.034  53.441  1.00  0.00     0.016 C 
BRANCH  17  18
HETATM   18  C9  UNL     1      29.260   1.107  53.636  1.00  0.00     0.107 C 
BRANCH  18  19
HETATM   19  N2  UNL     1      30.168   0.230  53.641  1.00  0.00    -0.312 NA
HETATM   20  H13 UNL     1      30.349  -0.386  52.808  1.00  0.00     0.186 HD
ENDBRANCH  18  19
ENDBRANCH  17  18
ENDBRANCH   6  16
BRANCH   1  21
HETATM   21  O1  UNL     1      21.595   0.612  53.047  1.00  0.00    -0.356 OA
HETATM   22  C1  UNL     1      20.792   0.232  54.166  1.00  0.00     0.209 C 
ENDBRANCH   1  21
TORSDOF 4
ENDMDL
MODEL 6
REMARK VINA RESULT:      -6.8      2.188      5.269
REMARK  4 active torsions:
REMARK  status: ('A' for Active; 'I' for Inactive)
REMARK    1  A    between atoms: O1_2  and  C2_3 
REMARK    2  A    between atoms: C6_8  and  C7_9 
REMARK    3  A    between atoms: C8_10  and  C9_11 
REMARK    4  A    between atoms: C9_11  and  N2_12 
ROOT
HETATM    1  C2  UNL     1      24.276   3.120  50.971  1.00  0.00     0.090 C 
HETATM    2  C3  UNL     1      23.110   3.370  50.401  1.00  0.00     0.012 C 
HETATM    3  C4  UNL     1      22.061   2.530  51.046  1.00  0.00     0.049 C 
HETATM    4  C5  UNL     1      22.769   1.199  51.240  1.00  0.00     0.124 C 
HETATM    5  N1  UNL     1      23.561   1.363  52.453  1.00  0.00    -0.374 N 
HETATM    6  C6  UNL     1      23.184   0.501  53.431  1.00  0.00     0.105 C 
HETATM    7  C10 UNL     1      23.781  -0.910  53.469  1.00  0.00     0.029 C 
HETATM    8  C11 UNL     1      25.279  -0.952  53.438  1.00  0.00     0.006 C 
HETATM    9  C12 UNL     1      26.057  -0.331  54.518  1.00  0.00     0.027 C 
HETATM   10  C13 UNL     1      27.435   0.143  54.050  1.00  0.00    -0.022 C 
HETATM   11  C14 UNL     1      27.208   1.490  53.756  1.00  0.00    -0.064 C 
HETATM   12  C15 UNL     1      28.281   2.377  53.248  1.00  0.00     0.045 C 
HETATM   13  C16 UNL     1      26.024   2.350  53.920  1.00  0.00     0.204 C 
HETATM   14  O2  UNL     1      25.318   2.999  52.990  1.00  0.00    -0.357 OA
HETATM   15  C17 UNL     1      24.589   2.176  52.077  1.00  0.00     0.277 C 
ENDROOT
BRANCH   6  16
HETATM   16  C7  UNL     1      21.726   0.192  53.272  1.00  0.00    -0.001 C 
HETATM   17  C8  UNL     1      21.001  -0.672  53.948  1.00  0.00     0.016 C 
BRANCH  17  18
HETATM   18  C9  UNL     1      19.601  -0.750  53.563  1.00  0.00     0.107 C 
BRANCH  18  19
HETATM   19  N2  UNL     1      18.365  -0.929  53.377  1.00  0.00    -0.312 NA
HETATM   20  H13 UNL     1      17.980  -1.220  52.442  1.00  0.00     0.186 HD
ENDBRANCH  18  19
ENDBRANCH  17  18
ENDBRANCH   6  16
BRANCH   1  21
HETATM   21  O1  UNL     1      25.344   3.826  50.478  1.00  0.00    -0.356 OA
HETATM   22  C1  UNL     1      26.363   3.205  49.694  1.00  0.00     0.209 C 
ENDBRANCH   1  21
TORSDOF 4
ENDMDL
MODEL 7
REMARK VINA RESULT:      -6.6      2.427      5.726
REMARK  4 active torsions:
REMARK  status: ('A' for Active; 'I' for Inactive)
REMARK    1  A    between atoms: O1_2  and  C2_3 
REMARK    2  A    between atoms: C6_8  and  C7_9 
REMARK    3  A    between atoms: C8_10  and  C9_11 
REMARK    4  A    between atoms: C9_11  and  N2_12 
ROOT
HETATM    1  C2  UNL     1      24.304   0.701  52.862  1.00  0.00     0.090 C 
HETATM    2  C3  UNL     1      24.208  -0.410  53.572  1.00  0.00     0.012 C 
HETATM    3  C4  UNL     1      22.788  -0.864  53.577  1.00  0.00     0.049 C 
HETATM    4  C5  UNL     1      22.019   0.438  53.724  1.00  0.00     0.124 C 
HETATM    5  N1  UNL     1      21.965   1.002  52.380  1.00  0.00    -0.374 N 
HETATM    6  C6  UNL     1      20.692   1.123  51.926  1.00  0.00     0.105 C 
HETATM    7  C10 UNL     1      19.880   2.377  52.271  1.00  0.00     0.029 C 
HETATM    8  C11 UNL     1      20.561   3.669  51.935  1.00  0.00     0.006 C 
HETATM    9  C12 UNL     1      20.909   3.980  50.542  1.00  0.00     0.027 C 
HETATM   10  C13 UNL     1      22.123   4.904  50.434  1.00  0.00    -0.022 C 
HETATM   11  C14 UNL     1      23.175   4.003  50.249  1.00  0.00    -0.064 C 
HETATM   12  C15 UNL     1      24.580   4.450  50.097  1.00  0.00     0.045 C 
HETATM   13  C16 UNL     1      23.202   2.540  50.079  1.00  0.00     0.204 C 
HETATM   14  O2  UNL     1      23.786   1.613  50.843  1.00  0.00    -0.357 OA
HETATM   15  C17 UNL     1      23.232   1.448  52.151  1.00  0.00     0.277 C 
ENDROOT
BRANCH   6  16
HETATM   16  C7  UNL     1      19.848   0.054  52.553  1.00  0.00    -0.001 C 
HETATM   17  C8  UNL     1      18.578  -0.209  52.337  1.00  0.00     0.016 C 
BRANCH  17  18
HETATM   18  C9  UNL     1      18.030  -1.319  53.100  1.00  0.00     0.107 C 
BRANCH  18  19
HETATM   19  N2  UNL     1      17.617  -2.190  53.914  1.00  0.00    -0.312 NA
HETATM   20  H13 UNL     1      17.236  -3.116  53.591  1.00  0.00     0.186 HD
ENDBRANCH  18  19
ENDBRANCH  17  18
ENDBRANCH   6  16
BRANCH   1  21
HETATM   21  O1  UNL     1      25.562   1.240  52.767  1.00  0.00    -0.356 OA
HETATM   22  C1  UNL     1      26.108   2.070  53.794  1.00  0.00     0.209 C 
ENDBRANCH   1  21
TORSDOF 4
ENDMDL
MODEL 8
REMARK VINA RESULT:      -6.6      1.860      2.322
REMARK  4 active torsions:
REMARK  status: ('A' for Active; 'I' for Inactive)
REMARK    1  A    between atoms: O1_2  and  C2_3 
REMARK    2  A    between atoms: C6_8  and  C7_9 
REMARK    3  A    between atoms: C8_10  and  C9_11 
REMARK    4  A    between atoms: C9_11  and  N2_12 
ROOT
HETATM    1  C2  UNL     1      23.881   3.501  49.612  1.00  0.00     0.090 C 
HETATM    2  C3  UNL     1      25.153   3.832  49.744  1.00  0.00     0.012 C 
HETATM    3  C4  UNL     1      25.785   2.947  50.764  1.00  0.00     0.049 C 
HETATM    4  C5  UNL     1      24.706   2.836  51.827  1.00  0.00     0.124 C 
HETATM    5  N1  UNL     1      23.785   1.819  51.331  1.00  0.00    -0.374 N 
HETATM    6  C6  UNL     1      23.717   0.744  52.156  1.00  0.00     0.105 C 
HETATM    7  C10 UNL     1      22.747   0.759  53.343  1.00  0.00     0.029 C 
HETATM    8  C11 UNL     1      21.331   1.093  52.984  1.00  0.00     0.006 C 
HETATM    9  C12 UNL     1      20.578   0.227  52.067  1.00  0.00     0.027 C 
HETATM   10  C13 UNL     1      19.501   0.989  51.292  1.00  0.00    -0.022 C 
HETATM   11  C14 UNL     1      20.150   1.297  50.094  1.00  0.00    -0.064 C 
HETATM   12  C15 UNL     1      19.485   2.056  49.009  1.00  0.00     0.045 C 
HETATM   13  C16 UNL     1      21.480   0.937  49.571  1.00  0.00     0.204 C 
HETATM   14  O2  UNL     1      22.498   1.734  49.236  1.00  0.00    -0.357 OA
HETATM   15  C17 UNL     1      23.117   2.437  50.316  1.00  0.00     0.277 C 
ENDROOT
BRANCH   6  16
HETATM   16  C7  UNL     1      25.031   0.586  52.860  1.00  0.00    -0.001 C 
HETATM   17  C8  UNL     1      25.298  -0.131  53.930  1.00  0.00     0.016 C 
BRANCH  17  18
HETATM   18  C9  UNL     1      26.678  -0.086  54.384  1.00  0.00     0.107 C 
BRANCH  18  19
HETATM   19  N2  UNL     1      27.840  -0.210  54.862  1.00  0.00    -0.312 NA
HETATM   20  H13 UNL     1      28.098  -1.011  55.494  1.00  0.00     0.186 HD
ENDBRANCH  18  19
ENDBRANCH  17  18
ENDBRANCH   6  16
BRANCH   1  21
HETATM   21  O1  UNL     1      23.166   4.236  48.700  1.00  0.00    -0.356 OA
HETATM   22  C1  UNL     1      23.568   5.549  48.307  1.00  0.00     0.209 C 
ENDBRANCH   1  21
TORSDOF 4
ENDMDL
MODEL 9
REMARK VINA RESULT:      -6.4      2.494      5.470
REMARK  4 active torsions:
REMARK  status: ('A' for Active; 'I' for Inactive)
REMARK    1  A    between atoms: O1_2  and  C2_3 
REMARK    2  A    between atoms: C6_8  and  C7_9 
REMARK    3  A    between atoms: C8_10  and  C9_11 
REMARK    4  A    between atoms: C9_11  and  N2_12 
ROOT
HETATM    1  C2  UNL     1      22.003   2.053  48.983  1.00  0.00     0.090 C 
HETATM    2  C3  UNL     1      20.768   1.733  48.639  1.00  0.00     0.012 C 
HETATM    3  C4  UNL     1      20.064   1.162  49.823  1.00  0.00     0.049 C 
HETATM    4  C5  UNL     1      21.135   0.298  50.466  1.00  0.00     0.124 C 
HETATM    5  N1  UNL     1      21.954   1.222  51.242  1.00  0.00    -0.374 N 
HETATM    6  C6  UNL     1      21.928   0.940  52.569  1.00  0.00     0.105 C 
HETATM    7  C10 UNL     1      22.903  -0.094  53.143  1.00  0.00     0.029 C 
HETATM    8  C11 UNL     1      24.342   0.153  52.803  1.00  0.00     0.006 C 
HETATM    9  C12 UNL     1      25.005   1.385  53.249  1.00  0.00     0.027 C 
HETATM   10  C13 UNL     1      26.143   1.809  52.318  1.00  0.00    -0.022 C 
HETATM   11  C14 UNL     1      25.517   2.730  51.473  1.00  0.00    -0.064 C 
HETATM   12  C15 UNL     1      26.242   3.416  50.379  1.00  0.00     0.045 C 
HETATM   13  C16 UNL     1      24.156   3.295  51.466  1.00  0.00     0.204 C 
HETATM   14  O2  UNL     1      23.214   3.210  50.523  1.00  0.00    -0.357 OA
HETATM   15  C17 UNL     1      22.670   1.906  50.304  1.00  0.00     0.277 C 
ENDROOT
BRANCH   6  16
HETATM   16  C7  UNL     1      20.610   0.311  52.906  1.00  0.00    -0.001 C 
HETATM   17  C8  UNL     1      20.388  -0.789  53.593  1.00  0.00     0.016 C 
BRANCH  17  18
HETATM   18  C9  UNL     1      18.989  -1.150  53.758  1.00  0.00     0.107 C 
BRANCH  18  19
HETATM   19  N2  UNL     1      17.752  -1.290  53.969  1.00  0.00    -0.312 NA
HETATM   20  H13 UNL     1      17.371  -2.100  54.522  1.00  0.00     0.186 HD
ENDBRANCH  18  19
ENDBRANCH  17  18
ENDBRANCH   6  16
BRANCH   1  21
HETATM   21  O1  UNL     1      22.777   2.595  47.988  1.00  0.00    -0.356 OA
HETATM   22  C1  UNL     1      22.202   3.274  46.870  1.00  0.00     0.209 C 
ENDBRANCH   1  21
TORSDOF 4
ENDMDL
