MODEL 1
REMARK VINA RESULT:      -7.4      0.000      0.000
REMARK  8 active torsions:
REMARK  status: ('A' for Active; 'I' for Inactive)
REMARK    1  A    between atoms: C2_2  and  C3_3 
REMARK    2  A    between atoms: C3_3  and  C4_4 
REMARK    3  A    between atoms: C4_4  and  N1_5 
REMARK    4  A    between atoms: N1_5  and  C5_6 
REMARK       I    between atoms: N1_5  and  C15_17 
REMARK    5  A    between atoms: C5_6  and  C6_7 
REMARK    6  A    between atoms: C7_8  and  C8_9 
REMARK    7  A    between atoms: C14_15  and  O1_16 
REMARK       I    between atoms: C15_17  and  N2_19 
REMARK    8  A    between atoms: N2_19  and  C16_20 
ROOT
HETATM    1  N1  UNL     1      23.502   0.453  53.299  1.00  0.00    -0.330 N 
HETATM    2  C15 UNL     1      24.910   0.336  53.444  1.00  0.00     0.324 C 
HETATM    3  O2  UNL     1      25.071  -0.840  53.932  1.00  0.00    -0.247 OA
HETATM    4  N2  UNL     1      26.079   1.081  53.219  1.00  0.00    -0.289 N 
HETATM    5  H25 UNL     1      25.766   2.007  52.807  1.00  0.00     0.172 HD
ENDROOT
BRANCH   1   6
HETATM    6  C4  UNL     1      22.767  -0.756  53.685  1.00  0.00     0.128 C 
BRANCH   6   7
HETATM    7  C3  UNL     1      21.503  -0.443  54.419  1.00  0.00     0.020 C 
BRANCH   7   8
HETATM    8  C2  UNL     1      20.416  -1.406  54.019  1.00  0.00    -0.003 C 
HETATM    9  C1  UNL     1      19.244  -0.745  53.378  1.00  0.00     0.005 C 
ENDBRANCH   7   8
ENDBRANCH   6   7
ENDBRANCH   1   6
BRANCH   1  10
HETATM   10  C5  UNL     1      22.641   1.562  52.869  1.00  0.00     0.169 C 
BRANCH  10  11
HETATM   11  C6  UNL     1      22.839   1.982  51.489  1.00  0.00    -0.004 A 
HETATM   12  C7  UNL     1      22.163   1.504  50.422  1.00  0.00    -0.069 A 
HETATM   13  C10 UNL     1      22.271   1.842  48.974  1.00  0.00     0.039 A 
HETATM   14  C11 UNL     1      23.281   2.891  48.673  1.00  0.00     0.041 A 
HETATM   15  C12 UNL     1      24.016   3.410  49.848  1.00  0.00    -0.050 A 
HETATM   16  C13 UNL     1      24.988   4.430  49.414  1.00  0.00     0.046 C 
HETATM   17  C14 UNL     1      23.794   2.986  51.062  1.00  0.00     0.075 A 
BRANCH  12  18
HETATM   18  C8  UNL     1      21.102   0.467  50.478  1.00  0.00     0.030 C 
HETATM   19  C9  UNL     1      19.758   1.116  50.118  1.00  0.00     0.010 C 
ENDBRANCH  12  18
BRANCH  17  20
HETATM   20  O1  UNL     1      24.619   3.637  51.961  1.00  0.00    -0.360 OA
HETATM   21  H24 UNL     1      24.300   4.458  52.497  1.00  0.00     0.217 HD
ENDBRANCH  17  20
ENDBRANCH  10  11
ENDBRANCH   1  10
BRANCH   4  22
HETATM   22  C16 UNL     1      27.317   0.465  53.558  1.00  0.00     0.150 A 
HETATM   23  C17 UNL     1      28.143  -0.473  53.011  1.00  0.00     0.058 A 
HETATM   24  C18 UNL     1      29.206  -0.609  53.879  1.00  0.00     0.029 A 
HETATM   25  C19 UNL     1      28.967   0.271  54.930  1.00  0.00     0.144 A 
HETATM   26  O3  UNL     1      27.844   0.886  54.704  1.00  0.00    -0.306 OA
ENDBRANCH   4  22
TORSDOF 8
ENDMDL
MODEL 2
REMARK VINA RESULT:      -7.3      1.736      4.835
REMARK  8 active torsions:
REMARK  status: ('A' for Active; 'I' for Inactive)
REMARK    1  A    between atoms: C2_2  and  C3_3 
REMARK    2  A    between atoms: C3_3  and  C4_4 
REMARK    3  A    between atoms: C4_4  and  N1_5 
REMARK    4  A    between atoms: N1_5  and  C5_6 
REMARK       I    between atoms: N1_5  and  C15_17 
REMARK    5  A    between atoms: C5_6  and  C6_7 
REMARK    6  A    between atoms: C7_8  and  C8_9 
REMARK    7  A    between atoms: C14_15  and  O1_16 
REMARK       I    between atoms: C15_17  and  N2_19 
REMARK    8  A    between atoms: N2_19  and  C16_20 
ROOT
HETATM    1  N1  UNL     1      25.221   3.337  50.963  1.00  0.00    -0.330 N 
HETATM    2  C15 UNL     1      26.173   2.747  51.836  1.00  0.00     0.324 C 
HETATM    3  O2  UNL     1      27.220   2.618  51.107  1.00  0.00    -0.247 OA
HETATM    4  N2  UNL     1      26.282   2.303  53.165  1.00  0.00    -0.289 N 
HETATM    5  H25 UNL     1      25.343   2.494  53.619  1.00  0.00     0.172 HD
ENDROOT
BRANCH   1   6
HETATM    6  C4  UNL     1      25.748   3.627  49.626  1.00  0.00     0.128 C 
BRANCH   6   7
HETATM    7  C3  UNL     1      25.345   4.980  49.136  1.00  0.00     0.020 C 
BRANCH   7   8
HETATM    8  C2  UNL     1      26.562   5.788  48.772  1.00  0.00    -0.003 C 
HETATM    9  C1  UNL     1      27.789   4.963  48.582  1.00  0.00     0.005 C 
ENDBRANCH   7   8
ENDBRANCH   6   7
ENDBRANCH   1   6
BRANCH   1  10
HETATM   10  C5  UNL     1      23.804   3.683  51.133  1.00  0.00     0.169 C 
BRANCH  10  11
HETATM   11  C6  UNL     1      22.888   2.557  51.017  1.00  0.00    -0.004 A 
HETATM   12  C7  UNL     1      22.131   2.274  49.936  1.00  0.00    -0.069 A 
HETATM   13  C10 UNL     1      21.161   1.168  49.692  1.00  0.00     0.039 A 
HETATM   14  C11 UNL     1      21.029   0.221  50.831  1.00  0.00     0.041 A 
HETATM   15  C12 UNL     1      21.862   0.539  52.012  1.00  0.00    -0.050 A 
HETATM   16  C13 UNL     1      21.631  -0.465  53.067  1.00  0.00     0.046 C 
HETATM   17  C14 UNL     1      22.662   1.569  52.054  1.00  0.00     0.075 A 
BRANCH  12  18
HETATM   18  C8  UNL     1      22.107   3.065  48.679  1.00  0.00     0.030 C 
HETATM   19  C9  UNL     1      22.576   2.170  47.523  1.00  0.00     0.010 C 
ENDBRANCH  12  18
BRANCH  17  20
HETATM   20  O1  UNL     1      23.315   1.626  53.272  1.00  0.00    -0.360 OA
HETATM   21  H24 UNL     1      23.194   2.422  53.917  1.00  0.00     0.217 HD
ENDBRANCH  17  20
ENDBRANCH  10  11
ENDBRANCH   1  10
BRANCH   4  22
HETATM   22  C16 UNL     1      27.533   1.754  53.564  1.00  0.00     0.150 A 
HETATM   23  C17 UNL     1      28.143   0.534  53.522  1.00  0.00     0.058 A 
HETATM   24  C18 UNL     1      29.386   0.699  54.094  1.00  0.00     0.029 A 
HETATM   25  C19 UNL     1      29.471   2.039  54.463  1.00  0.00     0.144 A 
HETATM   26  O3  UNL     1      28.360   2.628  54.134  1.00  0.00    -0.306 OA
ENDBRANCH   4  22
TORSDOF 8
ENDMDL
MODEL 3
REMARK VINA RESULT:      -6.8      1.715      4.546
REMARK  8 active torsions:
REMARK  status: ('A' for Active; 'I' for Inactive)
REMARK    1  A    between atoms: C2_2  and  C3_3 
REMARK    2  A    between atoms: C3_3  and  C4_4 
REMARK    3  A    between atoms: C4_4  and  N1_5 
REMARK    4  A    between atoms: N1_5  and  C5_6 
REMARK       I    between atoms: N1_5  and  C15_17 
REMARK    5  A    between atoms: C5_6  and  C6_7 
REMARK    6  A    between atoms: C7_8  and  C8_9 
REMARK    7  A    between atoms: C14_15  and  O1_16 
REMARK       I    between atoms: C15_17  and  N2_19 
REMARK    8  A    between atoms: N2_19  and  C16_20 
ROOT
HETATM    1  N1  UNL     1      24.999   1.949  52.221  1.00  0.00    -0.330 N 
HETATM    2  C15 UNL     1      26.150   1.232  52.641  1.00  0.00     0.324 C 
HETATM    3  O2  UNL     1      26.787   1.007  51.550  1.00  0.00    -0.247 OA
HETATM    4  N2  UNL     1      26.742   0.742  53.818  1.00  0.00    -0.289 N 
HETATM    5  H25 UNL     1      26.098   1.025  54.612  1.00  0.00     0.172 HD
ENDROOT
BRANCH   1   6
HETATM    6  C4  UNL     1      24.964   2.215  50.779  1.00  0.00     0.128 C 
BRANCH   6   7
HETATM    7  C3  UNL     1      24.511   3.605  50.467  1.00  0.00     0.020 C 
BRANCH   7   8
HETATM    8  C2  UNL     1      25.693   4.476  50.131  1.00  0.00    -0.003 C 
HETATM    9  C1  UNL     1      26.754   3.767  49.361  1.00  0.00     0.005 C 
ENDBRANCH   7   8
ENDBRANCH   6   7
ENDBRANCH   1   6
BRANCH   1  10
HETATM   10  C5  UNL     1      23.824   2.447  52.947  1.00  0.00     0.169 C 
BRANCH  10  11
HETATM   11  C6  UNL     1      22.674   1.554  52.923  1.00  0.00    -0.004 A 
HETATM   12  C7  UNL     1      21.507   1.799  52.289  1.00  0.00    -0.069 A 
HETATM   13  C10 UNL     1      20.265   0.980  52.191  1.00  0.00     0.039 A 
HETATM   14  C11 UNL     1      20.346  -0.325  52.899  1.00  0.00     0.041 A 
HETATM   15  C12 UNL     1      21.628  -0.585  53.591  1.00  0.00    -0.050 A 
HETATM   16  C13 UNL     1      21.574  -1.899  54.258  1.00  0.00     0.046 C 
HETATM   17  C14 UNL     1      22.622   0.261  53.578  1.00  0.00     0.075 A 
BRANCH  12  18
HETATM   18  C8  UNL     1      21.202   3.024  51.507  1.00  0.00     0.030 C 
HETATM   19  C9  UNL     1      19.768   3.470  51.827  1.00  0.00     0.010 C 
ENDBRANCH  12  18
BRANCH  17  20
HETATM   20  O1  UNL     1      23.690  -0.235  54.303  1.00  0.00    -0.360 OA
HETATM   21  H24 UNL     1      24.225  -1.058  53.988  1.00  0.00     0.217 HD
ENDBRANCH  17  20
ENDBRANCH  10  11
ENDBRANCH   1  10
BRANCH   4  22
HETATM   22  C16 UNL     1      27.975   0.046  53.682  1.00  0.00     0.150 A 
HETATM   23  C17 UNL     1      29.303   0.357  53.730  1.00  0.00     0.058 A 
HETATM   24  C18 UNL     1      29.987  -0.820  53.511  1.00  0.00     0.029 A 
HETATM   25  C19 UNL     1      29.021  -1.807  53.338  1.00  0.00     0.144 A 
HETATM   26  O3  UNL     1      27.847  -1.257  53.446  1.00  0.00    -0.306 OA
ENDBRANCH   4  22
TORSDOF 8
ENDMDL
MODEL 4
REMARK VINA RESULT:      -6.7      1.680      2.749
REMARK  8 active torsions:
REMARK  status: ('A' for Active; 'I' for Inactive)
REMARK    1  A    between atoms: C2_2  and  C3_3 
REMARK    2  A    between atoms: C3_3  and  C4_4 
REMARK    3  A    between atoms: C4_4  and  N1_5 
REMARK    4  A    between atoms: N1_5  and  C5_6 
REMARK       I    between atoms: N1_5  and  C15_17 
REMARK    5  A    between atoms: C5_6  and  C6_7 
REMARK    6  A    between atoms: C7_8  and  C8_9 
REMARK    7  A    between atoms: C14_15  and  O1_16 
REMARK       I    between atoms: C15_17  and  N2_19 
REMARK    8  A    between atoms: N2_19  and  C16_20 
ROOT
HETATM    1  N1  UNL     1      24.167   1.549  52.024  1.00  0.00    -0.330 N 
HETATM    2  C15 UNL     1      25.456   1.132  52.448  1.00  0.00     0.324 C 
HETATM    3  O2  UNL     1      25.269   0.738  53.655  1.00  0.00    -0.247 OA
HETATM    4  N2  UNL     1      26.769   1.034  51.958  1.00  0.00    -0.289 N 
HETATM    5  H25 UNL     1      26.739   1.385  50.958  1.00  0.00     0.172 HD
ENDROOT
BRANCH   1   6
HETATM    6  C4  UNL     1      23.121   1.348  53.032  1.00  0.00     0.128 C 
BRANCH   6   7
HETATM    7  C3  UNL     1      22.032   0.446  52.550  1.00  0.00     0.020 C 
BRANCH   7   8
HETATM    8  C2  UNL     1      21.281  -0.137  53.719  1.00  0.00    -0.003 C 
HETATM    9  C1  UNL     1      22.162  -0.801  54.720  1.00  0.00     0.005 C 
ENDBRANCH   7   8
ENDBRANCH   6   7
ENDBRANCH   1   6
BRANCH   1  10
HETATM   10  C5  UNL     1      23.687   2.171  50.784  1.00  0.00     0.169 C 
BRANCH  10  11
HETATM   11  C6  UNL     1      24.260   3.479  50.500  1.00  0.00    -0.004 A 
HETATM   12  C7  UNL     1      23.719   4.664  50.855  1.00  0.00    -0.069 A 
HETATM   13  C10 UNL     1      24.196   6.057  50.625  1.00  0.00     0.039 A 
HETATM   14  C11 UNL     1      25.492   6.138  49.900  1.00  0.00     0.041 A 
HETATM   15  C12 UNL     1      26.079   4.835  49.515  1.00  0.00    -0.050 A 
HETATM   16  C13 UNL     1      27.348   5.055  48.797  1.00  0.00     0.046 C 
HETATM   17  C14 UNL     1      25.509   3.695  49.796  1.00  0.00     0.075 A 
BRANCH  12  18
HETATM   18  C8  UNL     1      22.443   4.831  51.597  1.00  0.00     0.030 C 
HETATM   19  C9  UNL     1      21.767   6.128  51.131  1.00  0.00     0.010 C 
ENDBRANCH  12  18
BRANCH  17  20
HETATM   20  O1  UNL     1      26.271   2.643  49.319  1.00  0.00    -0.360 OA
HETATM   21  H24 UNL     1      26.256   1.714  49.766  1.00  0.00     0.217 HD
ENDBRANCH  17  20
ENDBRANCH  10  11
ENDBRANCH   1  10
BRANCH   4  22
HETATM   22  C16 UNL     1      27.755   0.517  52.845  1.00  0.00     0.150 A 
HETATM   23  C17 UNL     1      28.242  -0.712  53.183  1.00  0.00     0.058 A 
HETATM   24  C18 UNL     1      29.218  -0.496  54.133  1.00  0.00     0.029 A 
HETATM   25  C19 UNL     1      29.275   0.880  54.329  1.00  0.00     0.144 A 
HETATM   26  O3  UNL     1      28.399   1.444  53.551  1.00  0.00    -0.306 OA
ENDBRANCH   4  22
TORSDOF 8
ENDMDL
MODEL 5
REMARK VINA RESULT:      -6.7      1.281      2.346
REMARK  8 active torsions:
REMARK  status: ('A' for Active; 'I' for Inactive)
REMARK    1  A    between atoms: C2_2  and  C3_3 
REMARK    2  A    between atoms: C3_3  and  C4_4 
REMARK    3  A    between atoms: C4_4  and  N1_5 
REMARK    4  A    between atoms: N1_5  and  C5_6 
REMARK       I    between atoms: N1_5  and  C15_17 
REMARK    5  A    between atoms: C5_6  and  C6_7 
REMARK    6  A    between atoms: C7_8  and  C8_9 
REMARK    7  A    between atoms: C14_15  and  O1_16 
REMARK       I    between atoms: C15_17  and  N2_19 
REMARK    8  A    between atoms: N2_19  and  C16_20 
ROOT
HETATM    1  N1  UNL     1      23.203   0.357  53.221  1.00  0.00    -0.330 N 
HETATM    2  C15 UNL     1      24.612   0.285  53.383  1.00  0.00     0.324 C 
HETATM    3  O2  UNL     1      24.816  -0.922  53.767  1.00  0.00    -0.247 OA
HETATM    4  N2  UNL     1      25.751   1.097  53.251  1.00  0.00    -0.289 N 
HETATM    5  H25 UNL     1      25.404   2.042  52.918  1.00  0.00     0.172 HD
ENDROOT
BRANCH   1   6
HETATM    6  C4  UNL     1      22.515  -0.912  53.480  1.00  0.00     0.128 C 
BRANCH   6   7
HETATM    7  C3  UNL     1      21.447  -0.779  54.517  1.00  0.00     0.020 C 
BRANCH   7   8
HETATM    8  C2  UNL     1      20.206  -1.515  54.087  1.00  0.00    -0.003 C 
HETATM    9  C1  UNL     1      19.289  -0.694  53.247  1.00  0.00     0.005 C 
ENDBRANCH   7   8
ENDBRANCH   6   7
ENDBRANCH   1   6
BRANCH   1  10
HETATM   10  C5  UNL     1      22.302   1.463  52.875  1.00  0.00     0.169 C 
BRANCH  10  11
HETATM   11  C6  UNL     1      22.594   2.106  51.602  1.00  0.00    -0.004 A 
HETATM   12  C7  UNL     1      23.259   3.271  51.449  1.00  0.00    -0.069 A 
HETATM   13  C10 UNL     1      23.617   4.030  50.217  1.00  0.00     0.039 A 
HETATM   14  C11 UNL     1      23.175   3.377  48.956  1.00  0.00     0.041 A 
HETATM   15  C12 UNL     1      22.446   2.100  49.133  1.00  0.00    -0.050 A 
HETATM   16  C13 UNL     1      22.058   1.565  47.815  1.00  0.00     0.046 C 
HETATM   17  C14 UNL     1      22.212   1.578  50.306  1.00  0.00     0.075 A 
BRANCH  12  18
HETATM   18  C8  UNL     1      23.808   4.092  52.558  1.00  0.00     0.030 C 
HETATM   19  C9  UNL     1      23.676   5.576  52.185  1.00  0.00     0.010 C 
ENDBRANCH  12  18
BRANCH  17  20
HETATM   20  O1  UNL     1      21.516   0.391  50.177  1.00  0.00    -0.360 OA
HETATM   21  H24 UNL     1      21.543  -0.165  49.309  1.00  0.00     0.217 HD
ENDBRANCH  17  20
ENDBRANCH  10  11
ENDBRANCH   1  10
BRANCH   4  22
HETATM   22  C16 UNL     1      27.008   0.504  53.559  1.00  0.00     0.150 A 
HETATM   23  C17 UNL     1      27.891  -0.331  52.940  1.00  0.00     0.058 A 
HETATM   24  C18 UNL     1      28.939  -0.512  53.818  1.00  0.00     0.029 A 
HETATM   25  C19 UNL     1      28.633   0.239  54.950  1.00  0.00     0.144 A 
HETATM   26  O3  UNL     1      27.487   0.823  54.758  1.00  0.00    -0.306 OA
ENDBRANCH   4  22
TORSDOF 8
ENDMDL
MODEL 6
REMARK VINA RESULT:      -6.5      1.575      2.193
REMARK  8 active torsions:
REMARK  status: ('A' for Active; 'I' for Inactive)
REMARK    1  A    between atoms: C2_2  and  C3_3 
REMARK    2  A    between atoms: C3_3  and  C4_4 
REMARK    3  A    between atoms: C4_4  and  N1_5 
REMARK    4  A    between atoms: N1_5  and  C5_6 
REMARK       I    between atoms: N1_5  and  C15_17 
REMARK    5  A    between atoms: C5_6  and  C6_7 
REMARK    6  A    between atoms: C7_8  and  C8_9 
REMARK    7  A    between atoms: C14_15  and  O1_16 
REMARK       I    between atoms: C15_17  and  N2_19 
REMARK    8  A    between atoms: N2_19  and  C16_20 
ROOT
HETATM    1  N1  UNL     1      23.308   1.976  52.729  1.00  0.00    -0.330 N 
HETATM    2  C15 UNL     1      24.648   1.740  53.135  1.00  0.00     0.324 C 
HETATM    3  O2  UNL     1      24.660   0.495  53.444  1.00  0.00    -0.247 OA
HETATM    4  N2  UNL     1      25.865   2.428  53.279  1.00  0.00    -0.289 N 
HETATM    5  H25 UNL     1      25.678   3.426  52.971  1.00  0.00     0.172 HD
ENDROOT
BRANCH   1   6
HETATM    6  C4  UNL     1      22.465   0.776  52.752  1.00  0.00     0.128 C 
BRANCH   6   7
HETATM    7  C3  UNL     1      21.053   1.079  53.137  1.00  0.00     0.020 C 
BRANCH   7   8
HETATM    8  C2  UNL     1      20.610   0.171  54.253  1.00  0.00    -0.003 C 
HETATM    9  C1  UNL     1      21.704  -0.684  54.794  1.00  0.00     0.005 C 
ENDBRANCH   7   8
ENDBRANCH   6   7
ENDBRANCH   1   6
BRANCH   1  10
HETATM   10  C5  UNL     1      22.598   3.195  52.323  1.00  0.00     0.169 C 
BRANCH  10  11
HETATM   11  C6  UNL     1      23.212   3.913  51.215  1.00  0.00    -0.004 A 
HETATM   12  C7  UNL     1      23.200   3.517  49.924  1.00  0.00    -0.069 A 
HETATM   13  C10 UNL     1      23.787   4.150  48.709  1.00  0.00     0.039 A 
HETATM   14  C11 UNL     1      24.483   5.437  48.976  1.00  0.00     0.041 A 
HETATM   15  C12 UNL     1      24.492   5.863  50.394  1.00  0.00    -0.050 A 
HETATM   16  C13 UNL     1      25.218   7.140  50.523  1.00  0.00     0.046 C 
HETATM   17  C14 UNL     1      23.925   5.169  51.343  1.00  0.00     0.075 A 
BRANCH  12  18
HETATM   18  C8  UNL     1      22.555   2.279  49.417  1.00  0.00     0.030 C 
HETATM   19  C9  UNL     1      22.515   2.336  47.883  1.00  0.00     0.010 C 
ENDBRANCH  12  18
BRANCH  17  20
HETATM   20  O1  UNL     1      24.086   5.797  52.564  1.00  0.00    -0.360 OA
HETATM   21  H24 UNL     1      23.667   5.422  53.428  1.00  0.00     0.217 HD
ENDBRANCH  17  20
ENDBRANCH  10  11
ENDBRANCH   1  10
BRANCH   4  22
HETATM   22  C16 UNL     1      26.979   1.682  53.755  1.00  0.00     0.150 A 
HETATM   23  C17 UNL     1      27.186   0.644  54.616  1.00  0.00     0.058 A 
HETATM   24  C18 UNL     1      28.544   0.405  54.620  1.00  0.00     0.029 A 
HETATM   25  C19 UNL     1      29.105   1.329  53.744  1.00  0.00     0.144 A 
HETATM   26  O3  UNL     1      28.151   2.064  53.254  1.00  0.00    -0.306 OA
ENDBRANCH   4  22
TORSDOF 8
ENDMDL
MODEL 7
REMARK VINA RESULT:      -6.4      2.410      5.695
REMARK  8 active torsions:
REMARK  status: ('A' for Active; 'I' for Inactive)
REMARK    1  A    between atoms: C2_2  and  C3_3 
REMARK    2  A    between atoms: C3_3  and  C4_4 
REMARK    3  A    between atoms: C4_4  and  N1_5 
REMARK    4  A    between atoms: N1_5  and  C5_6 
REMARK       I    between atoms: N1_5  and  C15_17 
REMARK    5  A    between atoms: C5_6  and  C6_7 
REMARK    6  A    between atoms: C7_8  and  C8_9 
REMARK    7  A    between atoms: C14_15  and  O1_16 
REMARK       I    between atoms: C15_17  and  N2_19 
REMARK    8  A    between atoms: N2_19  and  C16_20 
ROOT
HETATM    1  N1  UNL     1      23.487   3.837  50.822  1.00  0.00    -0.330 N 
HETATM    2  C15 UNL     1      24.504   4.596  50.184  1.00  0.00     0.324 C 
HETATM    3  O2  UNL     1      24.181   4.561  48.943  1.00  0.00    -0.247 OA
HETATM    4  N2  UNL     1      25.667   5.317  50.503  1.00  0.00    -0.289 N 
HETATM    5  H25 UNL     1      25.775   5.253  51.557  1.00  0.00     0.172 HD
ENDROOT
BRANCH   1   6
HETATM    6  C4  UNL     1      22.452   3.351  49.903  1.00  0.00     0.128 C 
BRANCH   6   7
HETATM    7  C3  UNL     1      22.614   1.900  49.582  1.00  0.00     0.020 C 
BRANCH   7   8
HETATM    8  C2  UNL     1      21.388   1.382  48.876  1.00  0.00    -0.003 C 
HETATM    9  C1  UNL     1      20.292   0.983  49.803  1.00  0.00     0.005 C 
ENDBRANCH   7   8
ENDBRANCH   6   7
ENDBRANCH   1   6
BRANCH   1  10
HETATM   10  C5  UNL     1      23.290   3.421  52.216  1.00  0.00     0.169 C 
BRANCH  10  11
HETATM   11  C6  UNL     1      23.905   2.147  52.560  1.00  0.00    -0.004 A 
HETATM   12  C7  UNL     1      23.240   1.038  52.950  1.00  0.00    -0.069 A 
HETATM   13  C10 UNL     1      23.744  -0.312  53.330  1.00  0.00     0.039 A 
HETATM   14  C11 UNL     1      25.222  -0.451  53.245  1.00  0.00     0.041 A 
HETATM   15  C12 UNL     1      25.943   0.769  52.816  1.00  0.00    -0.050 A 
HETATM   16  C13 UNL     1      27.393   0.503  52.783  1.00  0.00     0.046 C 
HETATM   17  C14 UNL     1      25.331   1.885  52.526  1.00  0.00     0.075 A 
BRANCH  12  18
HETATM   18  C8  UNL     1      21.766   0.933  53.093  1.00  0.00     0.030 C 
HETATM   19  C9  UNL     1      21.400  -0.530  53.379  1.00  0.00     0.010 C 
ENDBRANCH  12  18
BRANCH  17  20
HETATM   20  O1  UNL     1      26.244   2.856  52.159  1.00  0.00    -0.360 OA
HETATM   21  H24 UNL     1      26.939   3.229  52.824  1.00  0.00     0.217 HD
ENDBRANCH  17  20
ENDBRANCH  10  11
ENDBRANCH   1  10
BRANCH   4  22
HETATM   22  C16 UNL     1      26.369   5.927  49.426  1.00  0.00     0.150 A 
HETATM   23  C17 UNL     1      27.386   5.587  48.582  1.00  0.00     0.058 A 
HETATM   24  C18 UNL     1      27.578   6.668  47.749  1.00  0.00     0.029 A 
HETATM   25  C19 UNL     1      26.649   7.630  48.135  1.00  0.00     0.144 A 
HETATM   26  O3  UNL     1      25.954   7.156  49.127  1.00  0.00    -0.306 OA
ENDBRANCH   4  22
TORSDOF 8
ENDMDL
MODEL 8
REMARK VINA RESULT:      -6.2      1.671      4.538
REMARK  8 active torsions:
REMARK  status: ('A' for Active; 'I' for Inactive)
REMARK    1  A    between atoms: C2_2  and  C3_3 
REMARK    2  A    between atoms: C3_3  and  C4_4 
REMARK    3  A    between atoms: C4_4  and  N1_5 
REMARK    4  A    between atoms: N1_5  and  C5_6 
REMARK       I    between atoms: N1_5  and  C15_17 
REMARK    5  A    between atoms: C5_6  and  C6_7 
REMARK    6  A    between atoms: C7_8  and  C8_9 
REMARK    7  A    between atoms: C14_15  and  O1_16 
REMARK       I    between atoms: C15_17  and  N2_19 
REMARK    8  A    between atoms: N2_19  and  C16_20 
ROOT
HETATM    1  N1  UNL     1      23.784   1.686  52.117  1.00  0.00    -0.330 N 
HETATM    2  C15 UNL     1      25.078   1.393  52.622  1.00  0.00     0.324 C 
HETATM    3  O2  UNL     1      25.392   2.443  53.289  1.00  0.00    -0.247 OA
HETATM    4  N2  UNL     1      26.032   0.361  52.602  1.00  0.00    -0.289 N 
HETATM    5  H25 UNL     1      25.608  -0.422  52.026  1.00  0.00     0.172 HD
ENDROOT
BRANCH   1   6
HETATM    6  C4  UNL     1      23.263   2.987  52.550  1.00  0.00     0.128 C 
BRANCH   6   7
HETATM    7  C3  UNL     1      22.830   3.837  51.400  1.00  0.00     0.020 C 
BRANCH   7   8
HETATM    8  C2  UNL     1      24.024   4.489  50.754  1.00  0.00    -0.003 C 
HETATM    9  C1  UNL     1      24.300   3.991  49.376  1.00  0.00     0.005 C 
ENDBRANCH   7   8
ENDBRANCH   6   7
ENDBRANCH   1   6
BRANCH   1  10
HETATM   10  C5  UNL     1      22.882   0.951  51.222  1.00  0.00     0.169 C 
BRANCH  10  11
HETATM   11  C6  UNL     1      21.672   0.451  51.858  1.00  0.00    -0.004 A 
HETATM   12  C7  UNL     1      21.633  -0.373  52.926  1.00  0.00    -0.069 A 
HETATM   13  C10 UNL     1      20.474  -0.955  53.662  1.00  0.00     0.039 A 
HETATM   14  C11 UNL     1      19.150  -0.536  53.131  1.00  0.00     0.041 A 
HETATM   15  C12 UNL     1      19.202   0.368  51.959  1.00  0.00    -0.050 A 
HETATM   16  C13 UNL     1      17.831   0.697  51.527  1.00  0.00     0.046 C 
HETATM   17  C14 UNL     1      20.324   0.776  51.433  1.00  0.00     0.075 A 
BRANCH  12  18
HETATM   18  C8  UNL     1      22.823  -0.909  53.634  1.00  0.00     0.030 C 
HETATM   19  C9  UNL     1      22.430  -1.240  55.081  1.00  0.00     0.010 C 
ENDBRANCH  12  18
BRANCH  17  20
HETATM   20  O1  UNL     1      20.078   1.606  50.354  1.00  0.00    -0.360 OA
HETATM   21  H24 UNL     1      19.310   2.295  50.361  1.00  0.00     0.217 HD
ENDBRANCH  17  20
ENDBRANCH  10  11
ENDBRANCH   1  10
BRANCH   4  22
HETATM   22  C16 UNL     1      27.245   0.585  53.312  1.00  0.00     0.150 A 
HETATM   23  C17 UNL     1      28.349   1.374  53.170  1.00  0.00     0.058 A 
HETATM   24  C18 UNL     1      29.171   1.090  54.240  1.00  0.00     0.029 A 
HETATM   25  C19 UNL     1      28.512   0.123  54.993  1.00  0.00     0.144 A 
HETATM   26  O3  UNL     1      27.379  -0.149  54.414  1.00  0.00    -0.306 OA
ENDBRANCH   4  22
TORSDOF 8
ENDMDL
MODEL 9
REMARK VINA RESULT:      -6.2      2.466      7.318
REMARK  8 active torsions:
REMARK  status: ('A' for Active; 'I' for Inactive)
REMARK    1  A    between atoms: C2_2  and  C3_3 
REMARK    2  A    between atoms: C3_3  and  C4_4 
REMARK    3  A    between atoms: C4_4  and  N1_5 
REMARK    4  A    between atoms: N1_5  and  C5_6 
REMARK       I    between atoms: N1_5  and  C15_17 
REMARK    5  A    between atoms: C5_6  and  C6_7 
REMARK    6  A    between atoms: C7_8  and  C8_9 
REMARK    7  A    between atoms: C14_15  and  O1_16 
REMARK       I    between atoms: C15_17  and  N2_19 
REMARK    8  A    between atoms: N2_19  and  C16_20 
ROOT
HETATM    1  N1  UNL     1      24.641   3.117  50.632  1.00  0.00    -0.330 N 
HETATM    2  C15 UNL     1      23.368   3.115  50.003  1.00  0.00     0.324 C 
HETATM    3  O2  UNL     1      23.643   3.234  48.755  1.00  0.00    -0.247 OA
HETATM    4  N2  UNL     1      22.006   3.024  50.333  1.00  0.00    -0.289 N 
HETATM    5  H25 UNL     1      21.964   2.918  51.388  1.00  0.00     0.172 HD
ENDROOT
BRANCH   1   6
HETATM    6  C4  UNL     1      25.763   3.197  49.692  1.00  0.00     0.128 C 
BRANCH   6   7
HETATM    7  C3  UNL     1      26.378   4.559  49.653  1.00  0.00     0.020 C 
BRANCH   7   8
HETATM    8  C2  UNL     1      27.546   4.578  48.702  1.00  0.00    -0.003 C 
HETATM    9  C1  UNL     1      28.024   5.951  48.376  1.00  0.00     0.005 C 
ENDBRANCH   7   8
ENDBRANCH   6   7
ENDBRANCH   1   6
BRANCH   1  10
HETATM   10  C5  UNL     1      25.047   3.088  52.043  1.00  0.00     0.169 C 
BRANCH  10  11
HETATM   11  C6  UNL     1      25.690   1.851  52.462  1.00  0.00    -0.004 A 
HETATM   12  C7  UNL     1      25.055   0.685  52.712  1.00  0.00    -0.069 A 
HETATM   13  C10 UNL     1      25.588  -0.637  53.147  1.00  0.00     0.039 A 
HETATM   14  C11 UNL     1      27.066  -0.667  53.312  1.00  0.00     0.041 A 
HETATM   15  C12 UNL     1      27.754   0.615  53.036  1.00  0.00    -0.050 A 
HETATM   16  C13 UNL     1      29.205   0.454  53.245  1.00  0.00     0.046 C 
HETATM   17  C14 UNL     1      27.117   1.692  52.667  1.00  0.00     0.075 A 
BRANCH  12  18
HETATM   18  C8  UNL     1      23.590   0.470  52.600  1.00  0.00     0.030 C 
HETATM   19  C9  UNL     1      23.189  -0.693  53.518  1.00  0.00     0.010 C 
ENDBRANCH  12  18
BRANCH  17  20
HETATM   20  O1  UNL     1      28.002   2.738  52.479  1.00  0.00    -0.360 OA
HETATM   21  H24 UNL     1      28.105   3.495  53.173  1.00  0.00     0.217 HD
ENDBRANCH  17  20
ENDBRANCH  10  11
ENDBRANCH   1  10
BRANCH   4  22
HETATM   22  C16 UNL     1      21.073   3.078  49.260  1.00  0.00     0.150 A 
HETATM   23  C17 UNL     1      20.494   2.191  48.400  1.00  0.00     0.058 A 
HETATM   24  C18 UNL     1      19.659   2.926  47.585  1.00  0.00     0.029 A 
HETATM   25  C19 UNL     1      19.775   4.249  48.000  1.00  0.00     0.144 A 
HETATM   26  O3  UNL     1      20.617   4.299  48.989  1.00  0.00    -0.306 OA
ENDBRANCH   4  22
TORSDOF 8
ENDMDL
