MODEL 1
REMARK VINA RESULT:      -7.3      0.000      0.000
REMARK  4 active torsions:
REMARK  status: ('A' for Active; 'I' for Inactive)
REMARK    1  A    between atoms: O1_2  and  C2_3 
REMARK    2  A    between atoms: C8_11  and  C9_12 
REMARK    3  A    between atoms: C9_12  and  N3_13 
REMARK    4  A    between atoms: N3_13  and  C10_14 
ROOT
HETATM    1  C2  UNL     1      27.131   0.826  53.204  1.00  0.00     0.077 A 
HETATM    2  C3  UNL     1      26.663   0.036  54.151  1.00  0.00     0.065 A 
HETATM    3  C4  UNL     1      25.254  -0.328  54.292  1.00  0.00     0.053 A 
HETATM    4  N1  UNL     1      24.957  -1.111  55.275  1.00  0.00    -0.178 NA
HETATM    5  C5  UNL     1      23.594  -1.457  55.404  1.00  0.00     0.206 C 
HETATM    6  N2  UNL     1      22.479  -1.740  55.507  1.00  0.00    -0.170 NA
HETATM    7  C6  UNL     1      24.245   0.198  53.335  1.00  0.00     0.088 A 
HETATM    8  C7  UNL     1      24.959   1.053  52.362  1.00  0.00    -0.009 A 
HETATM    9  C8  UNL     1      26.234   1.393  52.220  1.00  0.00    -0.011 A 
ENDROOT
BRANCH   1  10
HETATM   10  O1  UNL     1      28.470   1.123  53.135  1.00  0.00    -0.355 OA
HETATM   11  C1  UNL     1      29.332   0.322  53.959  1.00  0.00     0.210 C 
ENDBRANCH   1  10
BRANCH   9  12
HETATM   12  C9  UNL     1      26.718   2.261  51.160  1.00  0.00     0.160 C 
BRANCH  12  13
HETATM   13  N3  UNL     1      26.108   3.591  51.103  1.00  0.00    -0.390 N 
HETATM   14  H10 UNL     1      26.614   4.254  51.772  1.00  0.00     0.159 HD
BRANCH  13  15
HETATM   15  C10 UNL     1      24.981   3.925  50.249  1.00  0.00     0.011 A 
HETATM   16  C11 UNL     1      24.207   4.110  49.228  1.00  0.00     0.031 A 
HETATM   17  C12 UNL     1      23.310   2.948  48.998  1.00  0.00     0.020 C 
HETATM   18  C16 UNL     1      24.247   5.544  48.831  1.00  0.00     0.107 C 
HETATM   19  C14 UNL     1      23.688   4.462  50.835  1.00  0.00     0.098 A 
HETATM   20  C13 UNL     1      22.639   3.438  50.399  1.00  0.00     0.026 C 
HETATM   21  N4  UNL     1      23.578   5.798  50.218  1.00  0.00    -0.309 N 
HETATM   22  C15 UNL     1      24.556   6.611  50.897  1.00  0.00     0.111 C 
ENDBRANCH  13  15
ENDBRANCH  12  13
ENDBRANCH   9  12
TORSDOF 4
ENDMDL
MODEL 2
REMARK VINA RESULT:      -7.1      2.295      3.719
REMARK  4 active torsions:
REMARK  status: ('A' for Active; 'I' for Inactive)
REMARK    1  A    between atoms: O1_2  and  C2_3 
REMARK    2  A    between atoms: C8_11  and  C9_12 
REMARK    3  A    between atoms: C9_12  and  N3_13 
REMARK    4  A    between atoms: N3_13  and  C10_14 
ROOT
HETATM    1  C2  UNL     1      24.562   0.459  52.982  1.00  0.00     0.077 A 
HETATM    2  C3  UNL     1      25.459  -0.501  53.089  1.00  0.00     0.065 A 
HETATM    3  C4  UNL     1      26.887  -0.267  53.302  1.00  0.00     0.053 A 
HETATM    4  N1  UNL     1      27.636  -1.316  53.385  1.00  0.00    -0.178 NA
HETATM    5  C5  UNL     1      29.013  -1.081  53.590  1.00  0.00     0.206 C 
HETATM    6  N2  UNL     1      30.139  -0.888  53.759  1.00  0.00    -0.170 NA
HETATM    7  C6  UNL     1      27.411   1.120  53.410  1.00  0.00     0.088 A 
HETATM    8  C7  UNL     1      26.263   2.041  53.264  1.00  0.00    -0.009 A 
HETATM    9  C8  UNL     1      24.965   1.846  53.071  1.00  0.00    -0.011 A 
ENDROOT
BRANCH   1  10
HETATM   10  O1  UNL     1      23.235   0.162  52.782  1.00  0.00    -0.355 OA
HETATM   11  C1  UNL     1      22.706  -0.907  53.583  1.00  0.00     0.210 C 
ENDBRANCH   1  10
BRANCH   9  12
HETATM   12  C9  UNL     1      24.000   2.928  52.963  1.00  0.00     0.160 C 
BRANCH  12  13
HETATM   13  N3  UNL     1      24.494   4.156  52.335  1.00  0.00    -0.390 N 
HETATM   14  H10 UNL     1      24.693   4.893  53.083  1.00  0.00     0.159 HD
BRANCH  13  15
HETATM   15  C10 UNL     1      24.677   4.311  50.902  1.00  0.00     0.011 A 
HETATM   16  C11 UNL     1      24.774   4.799  49.707  1.00  0.00     0.031 A 
HETATM   17  C12 UNL     1      26.184   5.105  49.349  1.00  0.00     0.020 C 
HETATM   18  C16 UNL     1      23.493   4.585  48.981  1.00  0.00     0.107 C 
HETATM   19  C14 UNL     1      24.997   3.117  50.021  1.00  0.00     0.098 A 
HETATM   20  C13 UNL     1      26.339   3.484  49.386  1.00  0.00     0.026 C 
HETATM   21  N4  UNL     1      23.843   3.069  49.103  1.00  0.00    -0.309 N 
HETATM   22  C15 UNL     1      22.752   2.555  49.892  1.00  0.00     0.111 C 
ENDBRANCH  13  15
ENDBRANCH  12  13
ENDBRANCH   9  12
TORSDOF 4
ENDMDL
MODEL 3
REMARK VINA RESULT:      -7.0      2.846      6.240
REMARK  4 active torsions:
REMARK  status: ('A' for Active; 'I' for Inactive)
REMARK    1  A    between atoms: O1_2  and  C2_3 
REMARK    2  A    between atoms: C8_11  and  C9_12 
REMARK    3  A    between atoms: C9_12  and  N3_13 
REMARK    4  A    between atoms: N3_13  and  C10_14 
ROOT
HETATM    1  C2  UNL     1      22.837   1.541  52.231  1.00  0.00     0.077 A 
HETATM    2  C3  UNL     1      22.274   1.230  51.079  1.00  0.00     0.065 A 
HETATM    3  C4  UNL     1      22.466   1.989  49.843  1.00  0.00     0.053 A 
HETATM    4  N1  UNL     1      21.843   1.555  48.799  1.00  0.00    -0.178 NA
HETATM    5  C5  UNL     1      22.033   2.294  47.610  1.00  0.00     0.206 C 
HETATM    6  N2  UNL     1      22.191   2.897  46.639  1.00  0.00    -0.170 NA
HETATM    7  C6  UNL     1      23.339   3.193  49.831  1.00  0.00     0.088 A 
HETATM    8  C7  UNL     1      23.868   3.371  51.200  1.00  0.00    -0.009 A 
HETATM    9  C8  UNL     1      23.705   2.694  52.329  1.00  0.00    -0.011 A 
ENDROOT
BRANCH   1  10
HETATM   10  O1  UNL     1      22.609   0.779  53.351  1.00  0.00    -0.355 OA
HETATM   11  C1  UNL     1      22.145  -0.560  53.115  1.00  0.00     0.210 C 
ENDBRANCH   1  10
BRANCH   9  12
HETATM   12  C9  UNL     1      24.345   3.059  53.582  1.00  0.00     0.160 C 
BRANCH  12  13
HETATM   13  N3  UNL     1      25.781   2.781  53.663  1.00  0.00    -0.390 N 
HETATM   14  H10 UNL     1      26.329   3.698  53.694  1.00  0.00     0.159 HD
BRANCH  13  15
HETATM   15  C10 UNL     1      26.342   1.441  53.697  1.00  0.00     0.011 A 
HETATM   16  C11 UNL     1      26.616   0.217  54.014  1.00  0.00     0.031 A 
HETATM   17  C12 UNL     1      25.813  -0.751  53.223  1.00  0.00     0.020 C 
HETATM   18  C16 UNL     1      27.867   0.183  54.820  1.00  0.00     0.107 C 
HETATM   19  C14 UNL     1      27.376   1.000  52.678  1.00  0.00     0.098 A 
HETATM   20  C13 UNL     1      26.720  -0.197  51.989  1.00  0.00     0.026 C 
HETATM   21  N4  UNL     1      28.552   0.695  53.515  1.00  0.00    -0.309 N 
HETATM   22  C15 UNL     1      29.076   1.978  53.914  1.00  0.00     0.111 C 
ENDBRANCH  13  15
ENDBRANCH  12  13
ENDBRANCH   9  12
TORSDOF 4
ENDMDL
MODEL 4
REMARK VINA RESULT:      -7.0      2.178      3.557
REMARK  4 active torsions:
REMARK  status: ('A' for Active; 'I' for Inactive)
REMARK    1  A    between atoms: O1_2  and  C2_3 
REMARK    2  A    between atoms: C8_11  and  C9_12 
REMARK    3  A    between atoms: C9_12  and  N3_13 
REMARK    4  A    between atoms: N3_13  and  C10_14 
ROOT
HETATM    1  C2  UNL     1      24.248   0.018  53.527  1.00  0.00     0.077 A 
HETATM    2  C3  UNL     1      25.322  -0.469  54.117  1.00  0.00     0.065 A 
HETATM    3  C4  UNL     1      26.689  -0.231  53.655  1.00  0.00     0.053 A 
HETATM    4  N1  UNL     1      27.633  -0.780  54.343  1.00  0.00    -0.178 NA
HETATM    5  C5  UNL     1      28.950  -0.545  53.889  1.00  0.00     0.206 C 
HETATM    6  N2  UNL     1      30.026  -0.351  53.518  1.00  0.00    -0.170 NA
HETATM    7  C6  UNL     1      26.938   0.605  52.450  1.00  0.00     0.088 A 
HETATM    8  C7  UNL     1      25.623   1.050  51.940  1.00  0.00    -0.009 A 
HETATM    9  C8  UNL     1      24.377   0.844  52.346  1.00  0.00    -0.011 A 
ENDROOT
BRANCH   1  10
HETATM   10  O1  UNL     1      22.994  -0.249  54.020  1.00  0.00    -0.355 OA
HETATM   11  C1  UNL     1      22.928  -1.236  55.063  1.00  0.00     0.210 C 
ENDBRANCH   1  10
BRANCH   9  12
HETATM   12  C9  UNL     1      23.213   1.401  51.676  1.00  0.00     0.160 C 
BRANCH  12  13
HETATM   13  N3  UNL     1      22.958   2.821  51.928  1.00  0.00    -0.390 N 
HETATM   14  H10 UNL     1      22.248   2.930  52.720  1.00  0.00     0.159 HD
BRANCH  13  15
HETATM   15  C10 UNL     1      23.598   3.898  51.192  1.00  0.00     0.011 A 
HETATM   16  C11 UNL     1      24.422   4.812  50.793  1.00  0.00     0.031 A 
HETATM   17  C12 UNL     1      25.338   4.307  49.737  1.00  0.00     0.020 C 
HETATM   18  C16 UNL     1      23.964   6.140  51.285  1.00  0.00     0.107 C 
HETATM   19  C14 UNL     1      22.946   4.497  49.959  1.00  0.00     0.098 A 
HETATM   20  C13 UNL     1      23.973   4.255  48.851  1.00  0.00     0.026 C 
HETATM   21  N4  UNL     1      22.739   5.905  50.348  1.00  0.00    -0.309 N 
HETATM   22  C15 UNL     1      21.633   5.884  51.273  1.00  0.00     0.111 C 
ENDBRANCH  13  15
ENDBRANCH  12  13
ENDBRANCH   9  12
TORSDOF 4
ENDMDL
MODEL 5
REMARK VINA RESULT:      -6.9      2.520      6.179
REMARK  4 active torsions:
REMARK  status: ('A' for Active; 'I' for Inactive)
REMARK    1  A    between atoms: O1_2  and  C2_3 
REMARK    2  A    between atoms: C8_11  and  C9_12 
REMARK    3  A    between atoms: C9_12  and  N3_13 
REMARK    4  A    between atoms: N3_13  and  C10_14 
ROOT
HETATM    1  C2  UNL     1      24.912   3.785  50.105  1.00  0.00     0.077 A 
HETATM    2  C3  UNL     1      23.643   4.138  50.039  1.00  0.00     0.065 A 
HETATM    3  C4  UNL     1      22.613   3.669  50.965  1.00  0.00     0.053 A 
HETATM    4  N1  UNL     1      21.415   4.107  50.764  1.00  0.00    -0.178 NA
HETATM    5  C5  UNL     1      20.427   3.649  51.663  1.00  0.00     0.206 C 
HETATM    6  N2  UNL     1      19.620   3.275  52.399  1.00  0.00    -0.170 NA
HETATM    7  C6  UNL     1      22.966   2.735  52.067  1.00  0.00     0.088 A 
HETATM    8  C7  UNL     1      24.416   2.463  51.972  1.00  0.00    -0.009 A 
HETATM    9  C8  UNL     1      25.362   2.879  51.140  1.00  0.00    -0.011 A 
ENDROOT
BRANCH   1  10
HETATM   10  O1  UNL     1      25.824   4.267  49.198  1.00  0.00    -0.355 OA
HETATM   11  C1  UNL     1      26.094   5.677  49.271  1.00  0.00     0.210 C 
ENDBRANCH   1  10
BRANCH   9  12
HETATM   12  C9  UNL     1      26.755   2.476  51.245  1.00  0.00     0.160 C 
BRANCH  12  13
HETATM   13  N3  UNL     1      27.282   2.370  52.608  1.00  0.00    -0.390 N 
HETATM   14  H10 UNL     1      27.754   3.287  52.888  1.00  0.00     0.159 HD
BRANCH  13  15
HETATM   15  C10 UNL     1      27.160   1.178  53.429  1.00  0.00     0.011 A 
HETATM   16  C11 UNL     1      26.925   0.358  54.402  1.00  0.00     0.031 A 
HETATM   17  C12 UNL     1      25.587  -0.277  54.278  1.00  0.00     0.020 C 
HETATM   18  C16 UNL     1      28.192   0.083  55.133  1.00  0.00     0.107 C 
HETATM   19  C14 UNL     1      27.557  -0.185  52.892  1.00  0.00     0.098 A 
HETATM   20  C13 UNL     1      26.269  -1.003  52.989  1.00  0.00     0.026 C 
HETATM   21  N4  UNL     1      28.646  -0.590  53.801  1.00  0.00    -0.309 N 
HETATM   22  C15 UNL     1      29.782   0.209  53.413  1.00  0.00     0.111 C 
ENDBRANCH  13  15
ENDBRANCH  12  13
ENDBRANCH   9  12
TORSDOF 4
ENDMDL
MODEL 6
REMARK VINA RESULT:      -6.9      3.274      5.985
REMARK  4 active torsions:
REMARK  status: ('A' for Active; 'I' for Inactive)
REMARK    1  A    between atoms: O1_2  and  C2_3 
REMARK    2  A    between atoms: C8_11  and  C9_12 
REMARK    3  A    between atoms: C9_12  and  N3_13 
REMARK    4  A    between atoms: N3_13  and  C10_14 
ROOT
HETATM    1  C2  UNL     1      22.285   3.782  52.191  1.00  0.00     0.077 A 
HETATM    2  C3  UNL     1      21.021   3.418  52.103  1.00  0.00     0.065 A 
HETATM    3  C4  UNL     1      20.564   2.029  52.146  1.00  0.00     0.053 A 
HETATM    4  N1  UNL     1      19.291   1.838  52.046  1.00  0.00    -0.178 NA
HETATM    5  C5  UNL     1      18.859   0.494  52.088  1.00  0.00     0.206 C 
HETATM    6  N2  UNL     1      18.507  -0.604  52.124  1.00  0.00    -0.170 NA
HETATM    7  C6  UNL     1      21.545   0.922  52.297  1.00  0.00     0.088 A 
HETATM    8  C7  UNL     1      22.891   1.529  52.377  1.00  0.00    -0.009 A 
HETATM    9  C8  UNL     1      23.322   2.784  52.340  1.00  0.00    -0.011 A 
ENDROOT
BRANCH   1  10
HETATM   10  O1  UNL     1      22.639   5.109  52.143  1.00  0.00    -0.355 OA
HETATM   11  C1  UNL     1      21.783   5.957  51.359  1.00  0.00     0.210 C 
ENDBRANCH   1  10
BRANCH   9  12
HETATM   12  C9  UNL     1      24.724   3.153  52.446  1.00  0.00     0.160 C 
BRANCH  12  13
HETATM   13  N3  UNL     1      25.415   2.673  53.645  1.00  0.00    -0.390 N 
HETATM   14  H10 UNL     1      25.287   3.371  54.444  1.00  0.00     0.159 HD
BRANCH  13  15
HETATM   15  C10 UNL     1      26.155   1.424  53.703  1.00  0.00     0.011 A 
HETATM   16  C11 UNL     1      26.621   0.271  54.062  1.00  0.00     0.031 A 
HETATM   17  C12 UNL     1      25.892  -0.847  53.408  1.00  0.00     0.020 C 
HETATM   18  C16 UNL     1      27.929   0.459  54.746  1.00  0.00     0.107 C 
HETATM   19  C14 UNL     1      27.148   1.052  52.617  1.00  0.00     0.098 A 
HETATM   20  C13 UNL     1      26.604  -0.266  52.064  1.00  0.00     0.026 C 
HETATM   21  N4  UNL     1      28.422   0.963  53.354  1.00  0.00    -0.309 N 
HETATM   22  C15 UNL     1      28.798   2.328  53.627  1.00  0.00     0.111 C 
ENDBRANCH  13  15
ENDBRANCH  12  13
ENDBRANCH   9  12
TORSDOF 4
ENDMDL
MODEL 7
REMARK VINA RESULT:      -6.9      2.263      3.599
REMARK  4 active torsions:
REMARK  status: ('A' for Active; 'I' for Inactive)
REMARK    1  A    between atoms: O1_2  and  C2_3 
REMARK    2  A    between atoms: C8_11  and  C9_12 
REMARK    3  A    between atoms: C9_12  and  N3_13 
REMARK    4  A    between atoms: N3_13  and  C10_14 
ROOT
HETATM    1  C2  UNL     1      23.681  -0.228  53.459  1.00  0.00     0.077 A 
HETATM    2  C3  UNL     1      24.827  -0.622  53.979  1.00  0.00     0.065 A 
HETATM    3  C4  UNL     1      26.003   0.237  54.113  1.00  0.00     0.053 A 
HETATM    4  N1  UNL     1      27.051  -0.300  54.643  1.00  0.00    -0.178 NA
HETATM    5  C5  UNL     1      28.182   0.537  54.768  1.00  0.00     0.206 C 
HETATM    6  N2  UNL     1      29.105   1.222  54.871  1.00  0.00    -0.170 NA
HETATM    7  C6  UNL     1      25.956   1.649  53.648  1.00  0.00     0.088 A 
HETATM    8  C7  UNL     1      24.604   1.893  53.103  1.00  0.00    -0.009 A 
HETATM    9  C8  UNL     1      23.528   1.127  52.975  1.00  0.00    -0.011 A 
ENDROOT
BRANCH   1  10
HETATM   10  O1  UNL     1      22.617  -1.093  53.367  1.00  0.00    -0.355 OA
HETATM   11  C1  UNL     1      21.929  -1.372  54.597  1.00  0.00     0.210 C 
ENDBRANCH   1  10
BRANCH   9  12
HETATM   12  C9  UNL     1      22.276   1.593  52.402  1.00  0.00     0.160 C 
BRANCH  12  13
HETATM   13  N3  UNL     1      22.327   2.907  51.756  1.00  0.00    -0.390 N 
HETATM   14  H10 UNL     1      21.888   3.644  52.394  1.00  0.00     0.159 HD
BRANCH  13  15
HETATM   15  C10 UNL     1      22.900   3.137  50.442  1.00  0.00     0.011 A 
HETATM   16  C11 UNL     1      23.553   3.011  49.331  1.00  0.00     0.031 A 
HETATM   17  C12 UNL     1      22.693   2.482  48.241  1.00  0.00     0.020 C 
HETATM   18  C16 UNL     1      24.846   3.741  49.434  1.00  0.00     0.107 C 
HETATM   19  C14 UNL     1      22.614   4.416  49.677  1.00  0.00     0.098 A 
HETATM   20  C13 UNL     1      21.959   3.929  48.384  1.00  0.00     0.026 C 
HETATM   21  N4  UNL     1      23.954   5.017  49.531  1.00  0.00    -0.309 N 
HETATM   22  C15 UNL     1      24.281   5.534  50.837  1.00  0.00     0.111 C 
ENDBRANCH  13  15
ENDBRANCH  12  13
ENDBRANCH   9  12
TORSDOF 4
ENDMDL
MODEL 8
REMARK VINA RESULT:      -6.9      2.936      4.688
REMARK  4 active torsions:
REMARK  status: ('A' for Active; 'I' for Inactive)
REMARK    1  A    between atoms: O1_2  and  C2_3 
REMARK    2  A    between atoms: C8_11  and  C9_12 
REMARK    3  A    between atoms: C9_12  and  N3_13 
REMARK    4  A    between atoms: N3_13  and  C10_14 
ROOT
HETATM    1  C2  UNL     1      25.349   2.820  51.117  1.00  0.00     0.077 A 
HETATM    2  C3  UNL     1      26.400   2.061  51.356  1.00  0.00     0.065 A 
HETATM    3  C4  UNL     1      26.723   1.500  52.668  1.00  0.00     0.053 A 
HETATM    4  N1  UNL     1      27.790   0.777  52.738  1.00  0.00    -0.178 NA
HETATM    5  C5  UNL     1      28.095   0.240  54.009  1.00  0.00     0.206 C 
HETATM    6  N2  UNL     1      28.342  -0.199  55.047  1.00  0.00    -0.170 NA
HETATM    7  C6  UNL     1      25.846   1.774  53.837  1.00  0.00     0.088 A 
HETATM    8  C7  UNL     1      24.737   2.634  53.368  1.00  0.00    -0.009 A 
HETATM    9  C8  UNL     1      24.430   3.149  52.185  1.00  0.00    -0.011 A 
ENDROOT
BRANCH   1  10
HETATM   10  O1  UNL     1      25.110   3.311  49.856  1.00  0.00    -0.355 OA
HETATM   11  C1  UNL     1      26.007   4.339  49.404  1.00  0.00     0.210 C 
ENDBRANCH   1  10
BRANCH   9  12
HETATM   12  C9  UNL     1      23.259   3.978  51.952  1.00  0.00     0.160 C 
BRANCH  12  13
HETATM   13  N3  UNL     1      22.209   3.373  51.128  1.00  0.00    -0.390 N 
HETATM   14  H10 UNL     1      21.981   4.011  50.302  1.00  0.00     0.159 HD
BRANCH  13  15
HETATM   15  C10 UNL     1      21.593   2.091  51.422  1.00  0.00     0.011 A 
HETATM   16  C11 UNL     1      21.212   0.855  51.373  1.00  0.00     0.031 A 
HETATM   17  C12 UNL     1      22.104  -0.031  52.165  1.00  0.00     0.020 C 
HETATM   18  C16 UNL     1      19.834   0.785  50.814  1.00  0.00     0.107 C 
HETATM   19  C14 UNL     1      20.746   1.897  52.666  1.00  0.00     0.098 A 
HETATM   20  C13 UNL     1      21.465   0.780  53.425  1.00  0.00     0.026 C 
HETATM   21  N4  UNL     1      19.424   1.549  52.112  1.00  0.00    -0.309 N 
HETATM   22  C15 UNL     1      18.892   2.787  51.596  1.00  0.00     0.111 C 
ENDBRANCH  13  15
ENDBRANCH  12  13
ENDBRANCH   9  12
TORSDOF 4
ENDMDL
MODEL 9
REMARK VINA RESULT:      -6.8      2.021      6.909
REMARK  4 active torsions:
REMARK  status: ('A' for Active; 'I' for Inactive)
REMARK    1  A    between atoms: O1_2  and  C2_3 
REMARK    2  A    between atoms: C8_11  and  C9_12 
REMARK    3  A    between atoms: C9_12  and  N3_13 
REMARK    4  A    between atoms: N3_13  and  C10_14 
ROOT
HETATM    1  C2  UNL     1      26.377   4.478  49.541  1.00  0.00     0.077 A 
HETATM    2  C3  UNL     1      25.672   5.566  49.302  1.00  0.00     0.065 A 
HETATM    3  C4  UNL     1      24.400   5.878  49.955  1.00  0.00     0.053 A 
HETATM    4  N1  UNL     1      23.833   6.986  49.610  1.00  0.00    -0.178 NA
HETATM    5  C5  UNL     1      22.605   7.279  50.244  1.00  0.00     0.206 C 
HETATM    6  N2  UNL     1      21.603   7.518  50.765  1.00  0.00    -0.170 NA
HETATM    7  C6  UNL     1      23.823   4.943  50.957  1.00  0.00     0.088 A 
HETATM    8  C7  UNL     1      24.751   3.798  51.081  1.00  0.00    -0.009 A 
HETATM    9  C8  UNL     1      25.905   3.501  50.499  1.00  0.00    -0.011 A 
ENDROOT
BRANCH   1  10
HETATM   10  O1  UNL     1      27.564   4.253  48.888  1.00  0.00    -0.355 OA
HETATM   11  C1  UNL     1      28.232   5.421  48.383  1.00  0.00     0.210 C 
ENDBRANCH   1  10
BRANCH   9  12
HETATM   12  C9  UNL     1      26.661   2.294  50.789  1.00  0.00     0.160 C 
BRANCH  12  13
HETATM   13  N3  UNL     1      27.071   2.125  52.185  1.00  0.00    -0.390 N 
HETATM   14  H10 UNL     1      27.140   3.078  52.663  1.00  0.00     0.159 HD
BRANCH  13  15
HETATM   15  C10 UNL     1      27.333   0.834  52.797  1.00  0.00     0.011 A 
HETATM   16  C11 UNL     1      27.717  -0.383  53.017  1.00  0.00     0.031 A 
HETATM   17  C12 UNL     1      29.045  -0.432  53.682  1.00  0.00     0.020 C 
HETATM   18  C16 UNL     1      26.564  -1.306  52.829  1.00  0.00     0.107 C 
HETATM   19  C14 UNL     1      26.909   0.545  54.226  1.00  0.00     0.098 A 
HETATM   20  C13 UNL     1      28.223   0.209  54.934  1.00  0.00     0.026 C 
HETATM   21  N4  UNL     1      25.960  -0.573  54.067  1.00  0.00    -0.309 N 
HETATM   22  C15 UNL     1      24.761   0.022  53.530  1.00  0.00     0.111 C 
ENDBRANCH  13  15
ENDBRANCH  12  13
ENDBRANCH   9  12
TORSDOF 4
ENDMDL
