MODEL 1
REMARK VINA RESULT:      -7.4      0.000      0.000
REMARK  5 active torsions:
REMARK  status: ('A' for Active; 'I' for Inactive)
REMARK    1  A    between atoms: C3_3  and  C4_4 
REMARK       I    between atoms: C4_4  and  N1_6 
REMARK    2  A    between atoms: N1_6  and  C5_7 
REMARK    3  A    between atoms: C8_10  and  N2_11 
REMARK    4  A    between atoms: N2_11  and  C9_12 
REMARK    5  A    between atoms: C9_12  and  C10_13 
ROOT
HETATM    1  C1  UNL     1      16.758  -1.863  52.758  1.00  0.00     0.112 C 
HETATM    2  C2  UNL     1      18.044  -1.180  52.960  1.00  0.00    -0.101 C 
HETATM    3  C3  UNL     1      19.121  -0.630  53.121  1.00  0.00    -0.006 C 
ENDROOT
BRANCH   3   4
HETATM    4  C4  UNL     1      20.392   0.006  53.330  1.00  0.00     0.300 C 
HETATM    5  O1  UNL     1      20.614   0.465  54.494  1.00  0.00    -0.258 OA
HETATM    6  N1  UNL     1      21.306   0.087  52.260  1.00  0.00    -0.315 N 
HETATM    7  H4  UNL     1      21.036  -0.317  51.340  1.00  0.00     0.170 HD
BRANCH   6   8
HETATM    8  C5  UNL     1      22.590   0.703  52.384  1.00  0.00     0.047 A 
HETATM    9  C6  UNL     1      23.226   1.844  51.885  1.00  0.00     0.046 A 
HETATM   10  C7  UNL     1      24.376   1.494  52.600  1.00  0.00     0.024 A 
HETATM   11  C8  UNL     1      25.629   2.104  52.714  1.00  0.00     0.136 C 
HETATM   12  C16 UNL     1      23.696   0.310  53.109  1.00  0.00     0.006 A 
HETATM   13  N3  UNL     1      26.607   1.928  53.619  1.00  0.00    -0.224 NA
HETATM   14  C13 UNL     1      26.871   1.019  54.567  1.00  0.00     0.234 C 
HETATM   15  N4  UNL     1      26.319  -0.108  55.032  1.00  0.00    -0.254 NA
HETATM   16  C14 UNL     1      25.288  -0.897  54.724  1.00  0.00     0.119 C 
HETATM   17  C15 UNL     1      24.134  -0.689  53.961  1.00  0.00     0.034 C 
BRANCH  11  18
HETATM   18  N2  UNL     1      25.913   3.070  51.709  1.00  0.00    -0.371 N 
HETATM   19  H6  UNL     1      25.693   4.062  51.934  1.00  0.00     0.161 HD
BRANCH  18  20
HETATM   20  C9  UNL     1      26.481   2.668  50.436  1.00  0.00     0.149 C 
BRANCH  20  21
HETATM   21  C10 UNL     1      26.775   3.886  49.661  1.00  0.00     0.007 C 
HETATM   22  C11 UNL     1      26.112   4.990  49.285  1.00  0.00    -0.018 C 
HETATM   23  C12 UNL     1      26.601   6.150  48.473  1.00  0.00     0.056 C 
HETATM   24 BR1  UNL     1      24.291   5.397  49.700  1.00  0.00    -0.056 Br
ENDBRANCH  20  21
ENDBRANCH  18  20
ENDBRANCH  11  18
ENDBRANCH   6   8
ENDBRANCH   3   4
TORSDOF 5
ENDMDL
MODEL 2
REMARK VINA RESULT:      -7.3      2.916      6.861
REMARK  5 active torsions:
REMARK  status: ('A' for Active; 'I' for Inactive)
REMARK    1  A    between atoms: C3_3  and  C4_4 
REMARK       I    between atoms: C4_4  and  N1_6 
REMARK    2  A    between atoms: N1_6  and  C5_7 
REMARK    3  A    between atoms: C8_10  and  N2_11 
REMARK    4  A    between atoms: N2_11  and  C9_12 
REMARK    5  A    between atoms: C9_12  and  C10_13 
ROOT
HETATM    1  C1  UNL     1      28.073   7.366  47.597  1.00  0.00     0.112 C 
HETATM    2  C2  UNL     1      27.547   6.177  48.282  1.00  0.00    -0.101 C 
HETATM    3  C3  UNL     1      27.114   5.199  48.869  1.00  0.00    -0.006 C 
ENDROOT
BRANCH   3   4
HETATM    4  C4  UNL     1      26.626   4.040  49.565  1.00  0.00     0.300 C 
HETATM    5  O1  UNL     1      26.981   2.910  49.107  1.00  0.00    -0.258 OA
HETATM    6  N1  UNL     1      25.797   4.213  50.692  1.00  0.00    -0.315 N 
HETATM    7  H4  UNL     1      25.558   5.179  50.993  1.00  0.00     0.170 HD
BRANCH   6   8
HETATM    8  C5  UNL     1      25.269   3.115  51.439  1.00  0.00     0.047 A 
HETATM    9  C6  UNL     1      24.006   2.575  51.706  1.00  0.00     0.046 A 
HETATM   10  C7  UNL     1      24.613   1.586  52.488  1.00  0.00     0.024 A 
HETATM   11  C8  UNL     1      24.087   0.515  53.216  1.00  0.00     0.136 C 
HETATM   12  C16 UNL     1      25.920   2.163  52.199  1.00  0.00     0.006 A 
HETATM   13  N3  UNL     1      24.685  -0.583  53.709  1.00  0.00    -0.224 NA
HETATM   14  C13 UNL     1      25.953  -0.971  53.896  1.00  0.00     0.234 C 
HETATM   15  N4  UNL     1      27.177  -0.463  53.706  1.00  0.00    -0.254 NA
HETATM   16  C14 UNL     1      27.709   0.695  53.312  1.00  0.00     0.119 C 
HETATM   17  C15 UNL     1      27.188   1.783  52.604  1.00  0.00     0.034 C 
BRANCH  11  18
HETATM   18  N2  UNL     1      22.691   0.603  53.477  1.00  0.00    -0.371 N 
HETATM   19  H6  UNL     1      22.368   1.419  54.036  1.00  0.00     0.161 HD
BRANCH  18  20
HETATM   20  C9  UNL     1      21.780  -0.410  52.980  1.00  0.00     0.149 C 
BRANCH  20  21
HETATM   21  C10 UNL     1      21.338  -0.008  51.634  1.00  0.00     0.007 C 
HETATM   22  C11 UNL     1      20.645   1.006  51.094  1.00  0.00    -0.018 C 
HETATM   23  C12 UNL     1      20.290   1.244  49.658  1.00  0.00     0.056 C 
HETATM   24 BR1  UNL     1      19.891   2.480  52.050  1.00  0.00    -0.056 Br
ENDBRANCH  20  21
ENDBRANCH  18  20
ENDBRANCH  11  18
ENDBRANCH   6   8
ENDBRANCH   3   4
TORSDOF 5
ENDMDL
MODEL 3
REMARK VINA RESULT:      -7.1      2.865      5.916
REMARK  5 active torsions:
REMARK  status: ('A' for Active; 'I' for Inactive)
REMARK    1  A    between atoms: C3_3  and  C4_4 
REMARK       I    between atoms: C4_4  and  N1_6 
REMARK    2  A    between atoms: N1_6  and  C5_7 
REMARK    3  A    between atoms: C8_10  and  N2_11 
REMARK    4  A    between atoms: N2_11  and  C9_12 
REMARK    5  A    between atoms: C9_12  and  C10_13 
ROOT
HETATM    1  C1  UNL     1      30.057  -1.301  53.686  1.00  0.00     0.112 C 
HETATM    2  C2  UNL     1      28.881  -0.420  53.685  1.00  0.00    -0.101 C 
HETATM    3  C3  UNL     1      27.894   0.298  53.697  1.00  0.00    -0.006 C 
ENDROOT
BRANCH   3   4
HETATM    4  C4  UNL     1      26.722   1.130  53.695  1.00  0.00     0.300 C 
HETATM    5  O1  UNL     1      26.381   1.636  54.809  1.00  0.00    -0.258 OA
HETATM    6  N1  UNL     1      26.027   1.336  52.486  1.00  0.00    -0.315 N 
HETATM    7  H4  UNL     1      26.382   0.879  51.622  1.00  0.00     0.170 HD
BRANCH   6   8
HETATM    8  C5  UNL     1      24.854   2.148  52.397  1.00  0.00     0.047 A 
HETATM    9  C6  UNL     1      24.546   3.456  52.010  1.00  0.00     0.046 A 
HETATM   10  C7  UNL     1      23.201   3.207  52.300  1.00  0.00     0.024 A 
HETATM   11  C8  UNL     1      22.060   4.009  52.210  1.00  0.00     0.136 C 
HETATM   12  C16 UNL     1      23.542   1.847  52.699  1.00  0.00     0.006 A 
HETATM   13  N3  UNL     1      20.757   3.678  52.205  1.00  0.00    -0.224 NA
HETATM   14  C13 UNL     1      20.058   2.571  52.489  1.00  0.00     0.234 C 
HETATM   15  N4  UNL     1      20.312   1.327  52.913  1.00  0.00    -0.254 NA
HETATM   16  C14 UNL     1      21.370   0.626  53.322  1.00  0.00     0.119 C 
HETATM   17  C15 UNL     1      22.747   0.814  53.166  1.00  0.00     0.034 C 
BRANCH  11  18
HETATM   18  N2  UNL     1      22.321   5.404  52.105  1.00  0.00    -0.371 N 
HETATM   19  H6  UNL     1      22.778   5.859  52.922  1.00  0.00     0.161 HD
BRANCH  18  20
HETATM   20  C9  UNL     1      21.957   6.138  50.909  1.00  0.00     0.149 C 
BRANCH  20  21
HETATM   21  C10 UNL     1      22.942   7.216  50.716  1.00  0.00     0.007 C 
HETATM   22  C11 UNL     1      24.134   7.357  50.117  1.00  0.00    -0.018 C 
HETATM   23  C12 UNL     1      25.005   8.572  50.028  1.00  0.00     0.056 C 
HETATM   24 BR1  UNL     1      25.081   5.988  49.176  1.00  0.00    -0.056 Br
ENDBRANCH  20  21
ENDBRANCH  18  20
ENDBRANCH  11  18
ENDBRANCH   6   8
ENDBRANCH   3   4
TORSDOF 5
ENDMDL
MODEL 4
REMARK VINA RESULT:      -7.0      2.547      5.983
REMARK  5 active torsions:
REMARK  status: ('A' for Active; 'I' for Inactive)
REMARK    1  A    between atoms: C3_3  and  C4_4 
REMARK       I    between atoms: C4_4  and  N1_6 
REMARK    2  A    between atoms: N1_6  and  C5_7 
REMARK    3  A    between atoms: C8_10  and  N2_11 
REMARK    4  A    between atoms: N2_11  and  C9_12 
REMARK    5  A    between atoms: C9_12  and  C10_13 
ROOT
HETATM    1  C1  UNL     1      30.501  -0.875  53.834  1.00  0.00     0.112 C 
HETATM    2  C2  UNL     1      29.125  -0.358  53.863  1.00  0.00    -0.101 C 
HETATM    3  C3  UNL     1      27.976   0.052  53.896  1.00  0.00    -0.006 C 
ENDROOT
BRANCH   3   4
HETATM    4  C4  UNL     1      26.619   0.523  53.915  1.00  0.00     0.300 C 
HETATM    5  O1  UNL     1      26.237   1.116  54.971  1.00  0.00    -0.258 OA
HETATM    6  N1  UNL     1      25.799   0.305  52.789  1.00  0.00    -0.315 N 
HETATM    7  H4  UNL     1      26.200  -0.192  51.968  1.00  0.00     0.170 HD
BRANCH   6   8
HETATM    8  C5  UNL     1      24.439   0.740  52.727  1.00  0.00     0.047 A 
HETATM    9  C6  UNL     1      23.740   1.828  52.193  1.00  0.00     0.046 A 
HETATM   10  C7  UNL     1      22.549   1.278  52.680  1.00  0.00     0.024 A 
HETATM   11  C8  UNL     1      21.222   1.713  52.613  1.00  0.00     0.136 C 
HETATM   12  C16 UNL     1      23.295   0.153  53.228  1.00  0.00     0.006 A 
HETATM   13  N3  UNL     1      20.073   1.045  52.817  1.00  0.00    -0.224 NA
HETATM   14  C13 UNL     1      19.745  -0.142  53.343  1.00  0.00     0.234 C 
HETATM   15  N4  UNL     1      20.377  -1.177  53.909  1.00  0.00    -0.254 NA
HETATM   16  C14 UNL     1      21.620  -1.483  54.284  1.00  0.00     0.119 C 
HETATM   17  C15 UNL     1      22.869  -0.958  53.934  1.00  0.00     0.034 C 
BRANCH  11  18
HETATM   18  N2  UNL     1      21.062   3.086  52.275  1.00  0.00    -0.371 N 
HETATM   19  H6  UNL     1      21.405   3.783  52.968  1.00  0.00     0.161 HD
BRANCH  18  20
HETATM   20  C9  UNL     1      20.448   3.473  51.020  1.00  0.00     0.149 C 
BRANCH  20  21
HETATM   21  C10 UNL     1      21.520   3.835  50.077  1.00  0.00     0.007 C 
HETATM   22  C11 UNL     1      22.300   4.902  49.846  1.00  0.00    -0.018 C 
HETATM   23  C12 UNL     1      23.365   5.082  48.808  1.00  0.00     0.056 C 
HETATM   24 BR1  UNL     1      22.262   6.548  50.819  1.00  0.00    -0.056 Br
ENDBRANCH  20  21
ENDBRANCH  18  20
ENDBRANCH  11  18
ENDBRANCH   6   8
ENDBRANCH   3   4
TORSDOF 5
ENDMDL
MODEL 5
REMARK VINA RESULT:      -6.8      3.366      7.566
REMARK  5 active torsions:
REMARK  status: ('A' for Active; 'I' for Inactive)
REMARK    1  A    between atoms: C3_3  and  C4_4 
REMARK       I    between atoms: C4_4  and  N1_6 
REMARK    2  A    between atoms: N1_6  and  C5_7 
REMARK    3  A    between atoms: C8_10  and  N2_11 
REMARK    4  A    between atoms: N2_11  and  C9_12 
REMARK    5  A    between atoms: C9_12  and  C10_13 
ROOT
HETATM    1  C1  UNL     1      28.108   7.541  47.397  1.00  0.00     0.112 C 
HETATM    2  C2  UNL     1      27.469   6.433  48.121  1.00  0.00    -0.101 C 
HETATM    3  C3  UNL     1      26.935   5.526  48.739  1.00  0.00    -0.006 C 
ENDROOT
BRANCH   3   4
HETATM    4  C4  UNL     1      26.326   4.454  49.478  1.00  0.00     0.300 C 
HETATM    5  O1  UNL     1      27.042   3.425  49.682  1.00  0.00    -0.258 OA
HETATM    6  N1  UNL     1      24.997   4.596  49.927  1.00  0.00    -0.315 N 
HETATM    7  H4  UNL     1      24.488   5.477  49.711  1.00  0.00     0.170 HD
BRANCH   6   8
HETATM    8  C5  UNL     1      24.319   3.579  50.667  1.00  0.00     0.047 A 
HETATM    9  C6  UNL     1      24.653   2.363  51.272  1.00  0.00     0.046 A 
HETATM   10  C7  UNL     1      23.322   2.219  51.678  1.00  0.00     0.024 A 
HETATM   11  C8  UNL     1      22.668   1.218  52.402  1.00  0.00     0.136 C 
HETATM   12  C16 UNL     1      22.993   3.488  51.041  1.00  0.00     0.006 A 
HETATM   13  N3  UNL     1      21.481   1.231  53.033  1.00  0.00    -0.224 NA
HETATM   14  C13 UNL     1      20.419   2.048  53.041  1.00  0.00     0.234 C 
HETATM   15  N4  UNL     1      20.044   3.181  52.438  1.00  0.00    -0.254 NA
HETATM   16  C14 UNL     1      20.516   3.993  51.491  1.00  0.00     0.119 C 
HETATM   17  C15 UNL     1      21.792   4.170  50.948  1.00  0.00     0.034 C 
BRANCH  11  18
HETATM   18  N2  UNL     1      23.375  -0.013  52.486  1.00  0.00    -0.371 N 
HETATM   19  H6  UNL     1      23.678  -0.443  51.587  1.00  0.00     0.161 HD
BRANCH  18  20
HETATM   20  C9  UNL     1      23.648  -0.625  53.772  1.00  0.00     0.149 C 
BRANCH  20  21
HETATM   21  C10 UNL     1      24.963  -0.151  54.235  1.00  0.00     0.007 C 
HETATM   22  C11 UNL     1      26.249  -0.382  53.931  1.00  0.00    -0.018 C 
HETATM   23  C12 UNL     1      27.481   0.218  54.536  1.00  0.00     0.056 C 
HETATM   24 BR1  UNL     1      26.881  -1.589  52.590  1.00  0.00    -0.056 Br
ENDBRANCH  20  21
ENDBRANCH  18  20
ENDBRANCH  11  18
ENDBRANCH   6   8
ENDBRANCH   3   4
TORSDOF 5
ENDMDL
MODEL 6
REMARK VINA RESULT:      -6.7      3.510      7.087
REMARK  5 active torsions:
REMARK  status: ('A' for Active; 'I' for Inactive)
REMARK    1  A    between atoms: C3_3  and  C4_4 
REMARK       I    between atoms: C4_4  and  N1_6 
REMARK    2  A    between atoms: N1_6  and  C5_7 
REMARK    3  A    between atoms: C8_10  and  N2_11 
REMARK    4  A    between atoms: N2_11  and  C9_12 
REMARK    5  A    between atoms: C9_12  and  C10_13 
ROOT
HETATM    1  C1  UNL     1      30.346  -0.617  53.743  1.00  0.00     0.112 C 
HETATM    2  C2  UNL     1      28.905  -0.487  53.487  1.00  0.00    -0.101 C 
HETATM    3  C3  UNL     1      27.705  -0.401  53.278  1.00  0.00    -0.006 C 
ENDROOT
BRANCH   3   4
HETATM    4  C4  UNL     1      26.297  -0.308  53.011  1.00  0.00     0.300 C 
HETATM    5  O1  UNL     1      25.761  -1.301  52.428  1.00  0.00    -0.258 OA
HETATM    6  N1  UNL     1      25.598   0.854  53.400  1.00  0.00    -0.315 N 
HETATM    7  H4  UNL     1      26.122   1.617  53.873  1.00  0.00     0.170 HD
BRANCH   6   8
HETATM    8  C5  UNL     1      24.198   1.026  53.172  1.00  0.00     0.047 A 
HETATM    9  C6  UNL     1      23.380   1.936  52.494  1.00  0.00     0.046 A 
HETATM   10  C7  UNL     1      22.259   1.203  52.899  1.00  0.00     0.024 A 
HETATM   11  C8  UNL     1      20.891   1.381  52.670  1.00  0.00     0.136 C 
HETATM   12  C16 UNL     1      23.128   0.265  53.599  1.00  0.00     0.006 A 
HETATM   13  N3  UNL     1      19.864   0.524  52.805  1.00  0.00    -0.224 NA
HETATM   14  C13 UNL     1      19.697  -0.673  53.381  1.00  0.00     0.234 C 
HETATM   15  N4  UNL     1      20.436  -1.542  54.081  1.00  0.00    -0.254 NA
HETATM   16  C14 UNL     1      21.664  -1.593  54.598  1.00  0.00     0.119 C 
HETATM   17  C15 UNL     1      22.830  -0.867  54.337  1.00  0.00     0.034 C 
BRANCH  11  18
HETATM   18  N2  UNL     1      20.529   2.681  52.219  1.00  0.00    -0.371 N 
HETATM   19  H6  UNL     1      20.918   3.487  52.749  1.00  0.00     0.161 HD
BRANCH  18  20
HETATM   20  C9  UNL     1      19.656   2.851  51.074  1.00  0.00     0.149 C 
BRANCH  20  21
HETATM   21  C10 UNL     1      18.446   3.562  51.521  1.00  0.00     0.007 C 
HETATM   22  C11 UNL     1      17.135   3.296  51.617  1.00  0.00    -0.018 C 
HETATM   23  C12 UNL     1      16.030   4.178  52.113  1.00  0.00     0.056 C 
HETATM   24 BR1  UNL     1      16.287   1.654  51.126  1.00  0.00    -0.056 Br
ENDBRANCH  20  21
ENDBRANCH  18  20
ENDBRANCH  11  18
ENDBRANCH   6   8
ENDBRANCH   3   4
TORSDOF 5
ENDMDL
MODEL 7
REMARK VINA RESULT:      -6.7      3.152      5.843
REMARK  5 active torsions:
REMARK  status: ('A' for Active; 'I' for Inactive)
REMARK    1  A    between atoms: C3_3  and  C4_4 
REMARK       I    between atoms: C4_4  and  N1_6 
REMARK    2  A    between atoms: N1_6  and  C5_7 
REMARK    3  A    between atoms: C8_10  and  N2_11 
REMARK    4  A    between atoms: N2_11  and  C9_12 
REMARK    5  A    between atoms: C9_12  and  C10_13 
ROOT
HETATM    1  C1  UNL     1      21.517   5.830  46.212  1.00  0.00     0.112 C 
HETATM    2  C2  UNL     1      21.896   5.087  47.422  1.00  0.00    -0.101 C 
HETATM    3  C3  UNL     1      22.195   4.479  48.437  1.00  0.00    -0.006 C 
ENDROOT
BRANCH   3   4
HETATM    4  C4  UNL     1      22.558   3.783  49.641  1.00  0.00     0.300 C 
HETATM    5  O1  UNL     1      22.874   4.500  50.640  1.00  0.00    -0.258 OA
HETATM    6  N1  UNL     1      22.545   2.373  49.650  1.00  0.00    -0.315 N 
HETATM    7  H4  UNL     1      22.272   1.870  48.782  1.00  0.00     0.170 HD
BRANCH   6   8
HETATM    8  C5  UNL     1      22.892   1.605  50.804  1.00  0.00     0.047 A 
HETATM    9  C6  UNL     1      24.060   1.294  51.509  1.00  0.00     0.046 A 
HETATM   10  C7  UNL     1      23.298   0.529  52.399  1.00  0.00     0.024 A 
HETATM   11  C8  UNL     1      23.648  -0.220  53.526  1.00  0.00     0.136 C 
HETATM   12  C16 UNL     1      22.093   0.864  51.651  1.00  0.00     0.006 A 
HETATM   13  N3  UNL     1      22.890  -0.696  54.529  1.00  0.00    -0.224 NA
HETATM   14  C13 UNL     1      21.575  -0.842  54.738  1.00  0.00     0.234 C 
HETATM   15  N4  UNL     1      20.440  -0.609  54.069  1.00  0.00    -0.254 NA
HETATM   16  C14 UNL     1      20.084  -0.192  52.853  1.00  0.00     0.119 C 
HETATM   17  C15 UNL     1      20.773   0.501  51.852  1.00  0.00     0.034 C 
BRANCH  11  18
HETATM   18  N2  UNL     1      25.034  -0.527  53.628  1.00  0.00    -0.371 N 
HETATM   19  H6  UNL     1      25.359  -1.392  53.149  1.00  0.00     0.161 HD
BRANCH  18  20
HETATM   20  C9  UNL     1      25.932   0.336  54.371  1.00  0.00     0.149 C 
BRANCH  20  21
HETATM   21  C10 UNL     1      27.312  -0.104  54.108  1.00  0.00     0.007 C 
HETATM   22  C11 UNL     1      28.490   0.479  53.837  1.00  0.00    -0.018 C 
HETATM   23  C12 UNL     1      29.822  -0.161  53.593  1.00  0.00     0.056 C 
HETATM   24 BR1  UNL     1      28.797   2.360  53.681  1.00  0.00    -0.056 Br
ENDBRANCH  20  21
ENDBRANCH  18  20
ENDBRANCH  11  18
ENDBRANCH   6   8
ENDBRANCH   3   4
TORSDOF 5
ENDMDL
MODEL 8
REMARK VINA RESULT:      -6.5      3.821      6.667
REMARK  5 active torsions:
REMARK  status: ('A' for Active; 'I' for Inactive)
REMARK    1  A    between atoms: C3_3  and  C4_4 
REMARK       I    between atoms: C4_4  and  N1_6 
REMARK    2  A    between atoms: N1_6  and  C5_7 
REMARK    3  A    between atoms: C8_10  and  N2_11 
REMARK    4  A    between atoms: N2_11  and  C9_12 
REMARK    5  A    between atoms: C9_12  and  C10_13 
ROOT
HETATM    1  C1  UNL     1      27.159  -2.388  52.434  1.00  0.00     0.112 C 
HETATM    2  C2  UNL     1      26.760  -0.975  52.372  1.00  0.00    -0.101 C 
HETATM    3  C3  UNL     1      26.449   0.205  52.320  1.00  0.00    -0.006 C 
ENDROOT
BRANCH   3   4
HETATM    4  C4  UNL     1      26.088   1.595  52.283  1.00  0.00     0.300 C 
HETATM    5  O1  UNL     1      26.443   2.303  53.276  1.00  0.00    -0.258 OA
HETATM    6  N1  UNL     1      25.373   2.090  51.173  1.00  0.00    -0.315 N 
HETATM    7  H4  UNL     1      25.125   1.433  50.405  1.00  0.00     0.170 HD
BRANCH   6   8
HETATM    8  C5  UNL     1      24.975   3.457  51.057  1.00  0.00     0.047 A 
HETATM    9  C6  UNL     1      24.011   4.291  51.633  1.00  0.00     0.046 A 
HETATM   10  C7  UNL     1      24.480   5.348  50.847  1.00  0.00     0.024 A 
HETATM   11  C8  UNL     1      24.082   6.684  50.741  1.00  0.00     0.136 C 
HETATM   12  C16 UNL     1      25.478   4.464  50.258  1.00  0.00     0.006 A 
HETATM   13  N3  UNL     1      24.718   7.746  50.215  1.00  0.00    -0.224 NA
HETATM   14  C13 UNL     1      25.795   7.918  49.438  1.00  0.00     0.234 C 
HETATM   15  N4  UNL     1      26.703   7.147  48.827  1.00  0.00    -0.254 NA
HETATM   16  C14 UNL     1      26.920   5.844  48.642  1.00  0.00     0.119 C 
HETATM   17  C15 UNL     1      26.450   4.705  49.302  1.00  0.00     0.034 C 
BRANCH  11  18
HETATM   18  N2  UNL     1      22.795   6.965  51.278  1.00  0.00    -0.371 N 
HETATM   19  H6  UNL     1      22.706   6.952  52.315  1.00  0.00     0.161 HD
BRANCH  18  20
HETATM   20  C9  UNL     1      21.674   7.252  50.403  1.00  0.00     0.149 C 
BRANCH  20  21
HETATM   21  C10 UNL     1      20.949   5.993  50.161  1.00  0.00     0.007 C 
HETATM   22  C11 UNL     1      21.024   4.972  49.294  1.00  0.00    -0.018 C 
HETATM   23  C12 UNL     1      20.168   3.746  49.208  1.00  0.00     0.056 C 
HETATM   24 BR1  UNL     1      22.295   4.800  47.876  1.00  0.00    -0.056 Br
ENDBRANCH  20  21
ENDBRANCH  18  20
ENDBRANCH  11  18
ENDBRANCH   6   8
ENDBRANCH   3   4
TORSDOF 5
ENDMDL
MODEL 9
REMARK VINA RESULT:      -6.4      2.770      6.592
REMARK  5 active torsions:
REMARK  status: ('A' for Active; 'I' for Inactive)
REMARK    1  A    between atoms: C3_3  and  C4_4 
REMARK       I    between atoms: C4_4  and  N1_6 
REMARK    2  A    between atoms: N1_6  and  C5_7 
REMARK    3  A    between atoms: C8_10  and  N2_11 
REMARK    4  A    between atoms: N2_11  and  C9_12 
REMARK    5  A    between atoms: C9_12  and  C10_13 
ROOT
HETATM    1  C1  UNL     1      26.060   9.156  49.583  1.00  0.00     0.112 C 
HETATM    2  C2  UNL     1      25.377   7.992  50.166  1.00  0.00    -0.101 C 
HETATM    3  C3  UNL     1      24.792   7.032  50.640  1.00  0.00    -0.006 C 
ENDROOT
BRANCH   3   4
HETATM    4  C4  UNL     1      24.094   5.915  51.215  1.00  0.00     0.300 C 
HETATM    5  O1  UNL     1      22.895   6.120  51.580  1.00  0.00    -0.258 OA
HETATM    6  N1  UNL     1      24.760   4.679  51.342  1.00  0.00    -0.315 N 
HETATM    7  H4  UNL     1      25.744   4.606  51.014  1.00  0.00     0.170 HD
BRANCH   6   8
HETATM    8  C5  UNL     1      24.139   3.520  51.902  1.00  0.00     0.047 A 
HETATM    9  C6  UNL     1      22.873   2.925  51.870  1.00  0.00     0.046 A 
HETATM   10  C7  UNL     1      23.349   1.910  52.706  1.00  0.00     0.024 A 
HETATM   11  C8  UNL     1      22.732   0.779  53.249  1.00  0.00     0.136 C 
HETATM   12  C16 UNL     1      24.660   2.545  52.727  1.00  0.00     0.006 A 
HETATM   13  N3  UNL     1      23.263  -0.329  53.796  1.00  0.00    -0.224 NA
HETATM   14  C13 UNL     1      24.481  -0.686  54.221  1.00  0.00     0.234 C 
HETATM   15  N4  UNL     1      25.694  -0.129  54.318  1.00  0.00    -0.254 NA
HETATM   16  C14 UNL     1      26.245   1.067  54.107  1.00  0.00     0.119 C 
HETATM   17  C15 UNL     1      25.833   2.180  53.367  1.00  0.00     0.034 C 
BRANCH  11  18
HETATM   18  N2  UNL     1      21.309   0.806  53.219  1.00  0.00    -0.371 N 
HETATM   19  H6  UNL     1      20.838   1.464  53.872  1.00  0.00     0.161 HD
BRANCH  18  20
HETATM   20  C9  UNL     1      20.572  -0.053  52.313  1.00  0.00     0.149 C 
BRANCH  20  21
HETATM   21  C10 UNL     1      19.785   0.802  51.408  1.00  0.00     0.007 C 
HETATM   22  C11 UNL     1      19.926   1.314  50.176  1.00  0.00    -0.018 C 
HETATM   23  C12 UNL     1      18.984   2.188  49.407  1.00  0.00     0.056 C 
HETATM   24 BR1  UNL     1      21.430   1.056  49.024  1.00  0.00    -0.056 Br
ENDBRANCH  20  21
ENDBRANCH  18  20
ENDBRANCH  11  18
ENDBRANCH   6   8
ENDBRANCH   3   4
TORSDOF 5
ENDMDL
