MODEL 1
REMARK VINA RESULT:      -9.3      0.000      0.000
REMARK  0 active torsions:
REMARK  status: ('A' for Active; 'I' for Inactive)
ROOT
HETATM    1  C1  UNL     1      27.925   2.107  53.084  1.00  0.00     0.018 C 
HETATM    2  C2  UNL     1      26.975   2.436  52.435  1.00  0.00    -0.075 C 
HETATM    3  C3  UNL     1      25.851   2.815  51.638  1.00  0.00     0.046 A 
HETATM    4  C4  UNL     1      26.027   3.192  50.298  1.00  0.00     0.026 A 
HETATM    5  C5  UNL     1      24.983   3.579  49.497  1.00  0.00     0.040 A 
HETATM    6  C6  UNL     1      23.722   3.611  49.999  1.00  0.00     0.097 A 
HETATM    7  C7  UNL     1      23.437   3.271  51.309  1.00  0.00     0.091 A 
HETATM    8  C8  UNL     1      24.537   2.888  52.029  1.00  0.00     0.081 A 
HETATM    9  N1  UNL     1      24.542   2.272  53.339  1.00  0.00    -0.348 N 
HETATM   10  C9  UNL     1      23.918   1.028  52.967  1.00  0.00     0.201 C 
HETATM   11  N2  UNL     1      23.508  -0.188  52.548  1.00  0.00    -0.284 NA
HETATM   12  C10 UNL     1      22.067  -0.349  52.859  1.00  0.00     0.094 C 
HETATM   13  C11 UNL     1      21.750   0.130  51.686  1.00  0.00     0.083 C 
HETATM   14  C12 UNL     1      20.704   0.509  50.777  1.00  0.00    -0.014 C 
HETATM   15  C13 UNL     1      19.373   0.507  50.977  1.00  0.00     0.014 A 
HETATM   16  C14 UNL     1      18.431   0.940  49.984  1.00  0.00     0.047 A 
HETATM   17  C15 UNL     1      18.326   1.946  50.908  1.00  0.00     0.108 A 
HETATM   18  C16 UNL     1      18.923   3.219  51.433  1.00  0.00     0.124 C 
HETATM   19  N3  UNL     1      19.859   3.808  52.075  1.00  0.00    -0.283 NA
HETATM   20  C17 UNL     1      21.020   3.236  52.708  1.00  0.00     0.270 C 
HETATM   21  N4  UNL     1      22.192   3.357  51.978  1.00  0.00    -0.368 N 
HETATM   22  O1  UNL     1      17.150   1.424  51.518  1.00  0.00    -0.373 OA
HETATM   23  C18 UNL     1      17.344   0.233  52.333  1.00  0.00     0.170 C 
HETATM   24  C19 UNL     1      18.844  -0.062  52.289  1.00  0.00     0.040 C 
HETATM   25  C20 UNL     1      21.168   0.668  49.385  1.00  0.00     0.014 C 
HETATM   26  C21 UNL     1      22.092   1.730  49.000  1.00  0.00     0.028 C 
HETATM   27  C22 UNL     1      21.626   3.154  49.034  1.00  0.00     0.176 C 
HETATM   28  O2  UNL     1      22.826   4.016  48.964  1.00  0.00    -0.349 OA
HETATM   29  H4  UNL     1      24.929   2.671  54.198  1.00  0.00     0.167 HD
HETATM   30  H12 UNL     1      22.184   4.364  51.669  1.00  0.00     0.161 HD
ENDROOT
TORSDOF 0
ENDMDL
MODEL 2
REMARK VINA RESULT:      -9.0      3.311      4.905
REMARK  0 active torsions:
REMARK  status: ('A' for Active; 'I' for Inactive)
ROOT
HETATM    1  C1  UNL     1      28.181   8.510  47.291  1.00  0.00     0.018 C 
HETATM    2  C2  UNL     1      27.077   8.108  47.515  1.00  0.00    -0.075 C 
HETATM    3  C3  UNL     1      25.757   7.618  47.759  1.00  0.00     0.046 A 
HETATM    4  C4  UNL     1      24.759   7.751  46.780  1.00  0.00     0.026 A 
HETATM    5  C5  UNL     1      23.474   7.312  46.972  1.00  0.00     0.040 A 
HETATM    6  C6  UNL     1      23.128   6.727  48.146  1.00  0.00     0.097 A 
HETATM    7  C7  UNL     1      24.028   6.556  49.182  1.00  0.00     0.091 A 
HETATM    8  C8  UNL     1      25.287   7.014  48.899  1.00  0.00     0.081 A 
HETATM    9  N1  UNL     1      26.486   6.785  49.676  1.00  0.00    -0.348 N 
HETATM   10  C9  UNL     1      26.578   5.362  49.471  1.00  0.00     0.201 C 
HETATM   11  N2  UNL     1      26.735   4.073  49.104  1.00  0.00    -0.284 NA
HETATM   12  C10 UNL     1      26.271   3.193  50.203  1.00  0.00     0.094 C 
HETATM   13  C11 UNL     1      25.071   3.164  49.687  1.00  0.00     0.083 C 
HETATM   14  C12 UNL     1      23.718   2.695  49.799  1.00  0.00    -0.014 C 
HETATM   15  C13 UNL     1      23.153   1.983  50.792  1.00  0.00     0.014 A 
HETATM   16  C14 UNL     1      21.770   1.600  50.792  1.00  0.00     0.047 A 
HETATM   17  C15 UNL     1      21.788   2.532  51.796  1.00  0.00     0.108 A 
HETATM   18  C16 UNL     1      21.769   3.994  52.136  1.00  0.00     0.124 C 
HETATM   19  N3  UNL     1      22.370   5.121  52.161  1.00  0.00    -0.283 NA
HETATM   20  C17 UNL     1      23.704   5.444  51.724  1.00  0.00     0.270 C 
HETATM   21  N4  UNL     1      23.771   6.057  50.483  1.00  0.00    -0.368 N 
HETATM   22  O1  UNL     1      21.854   1.573  52.846  1.00  0.00    -0.373 OA
HETATM   23  C18 UNL     1      23.133   0.890  52.990  1.00  0.00     0.170 C 
HETATM   24  C19 UNL     1      24.049   1.491  51.923  1.00  0.00     0.040 C 
HETATM   25  C20 UNL     1      22.955   2.806  48.541  1.00  0.00     0.014 C 
HETATM   26  C21 UNL     1      22.617   4.101  47.959  1.00  0.00     0.028 C 
HETATM   27  C22 UNL     1      21.633   4.985  48.663  1.00  0.00     0.176 C 
HETATM   28  O2  UNL     1      21.756   6.339  48.079  1.00  0.00    -0.349 OA
HETATM   29  H4  UNL     1      27.045   7.495  50.156  1.00  0.00     0.167 HD
HETATM   30  H12 UNL     1      23.024   6.797  50.535  1.00  0.00     0.161 HD
ENDROOT
TORSDOF 0
ENDMDL
MODEL 3
REMARK VINA RESULT:      -8.9      2.202      3.335
REMARK  0 active torsions:
REMARK  status: ('A' for Active; 'I' for Inactive)
ROOT
HETATM    1  C1  UNL     1      27.064   7.245  48.787  1.00  0.00     0.018 C 
HETATM    2  C2  UNL     1      25.951   6.805  48.778  1.00  0.00    -0.075 C 
HETATM    3  C3  UNL     1      24.627   6.270  48.744  1.00  0.00     0.046 A 
HETATM    4  C4  UNL     1      23.879   6.306  47.556  1.00  0.00     0.026 A 
HETATM    5  C5  UNL     1      22.598   5.820  47.476  1.00  0.00     0.040 A 
HETATM    6  C6  UNL     1      22.009   5.284  48.574  1.00  0.00     0.097 A 
HETATM    7  C7  UNL     1      22.650   5.209  49.797  1.00  0.00     0.091 A 
HETATM    8  C8  UNL     1      23.925   5.707  49.781  1.00  0.00     0.081 A 
HETATM    9  N1  UNL     1      24.920   5.574  50.825  1.00  0.00    -0.348 N 
HETATM   10  C9  UNL     1      25.101   4.148  50.735  1.00  0.00     0.201 C 
HETATM   11  N2  UNL     1      25.380   2.850  50.495  1.00  0.00    -0.284 NA
HETATM   12  C10 UNL     1      24.703   2.010  51.512  1.00  0.00     0.094 C 
HETATM   13  C11 UNL     1      23.656   1.899  50.738  1.00  0.00     0.083 C 
HETATM   14  C12 UNL     1      22.329   1.377  50.567  1.00  0.00    -0.014 C 
HETATM   15  C13 UNL     1      21.573   0.693  51.446  1.00  0.00     0.014 A 
HETATM   16  C14 UNL     1      20.240   0.249  51.154  1.00  0.00     0.047 A 
HETATM   17  C15 UNL     1      19.997   1.233  52.076  1.00  0.00     0.108 A 
HETATM   18  C16 UNL     1      19.853   2.709  52.310  1.00  0.00     0.124 C 
HETATM   19  N3  UNL     1      20.396   3.862  52.402  1.00  0.00    -0.283 NA
HETATM   20  C17 UNL     1      21.784   4.221  52.262  1.00  0.00     0.270 C 
HETATM   21  N4  UNL     1      22.117   4.769  51.034  1.00  0.00    -0.368 N 
HETATM   22  O1  UNL     1      19.849   0.335  53.171  1.00  0.00    -0.373 OA
HETATM   23  C18 UNL     1      21.080  -0.280  53.646  1.00  0.00     0.170 C 
HETATM   24  C19 UNL     1      22.198   0.303  52.781  1.00  0.00     0.040 C 
HETATM   25  C20 UNL     1      21.874   1.385  49.163  1.00  0.00     0.014 C 
HETATM   26  C21 UNL     1      21.639   2.631  48.440  1.00  0.00     0.028 C 
HETATM   27  C22 UNL     1      20.492   3.506  48.843  1.00  0.00     0.176 C 
HETATM   28  O2  UNL     1      20.702   4.831  48.219  1.00  0.00    -0.349 OA
HETATM   29  H4  UNL     1      25.330   6.333  51.375  1.00  0.00     0.167 HD
HETATM   30  H12 UNL     1      21.355   5.476  50.867  1.00  0.00     0.161 HD
ENDROOT
TORSDOF 0
ENDMDL
MODEL 4
REMARK VINA RESULT:      -8.8      2.192      4.525
REMARK  0 active torsions:
REMARK  status: ('A' for Active; 'I' for Inactive)
ROOT
HETATM    1  C1  UNL     1      26.438   0.221  54.749  1.00  0.00     0.018 C 
HETATM    2  C2  UNL     1      25.439   0.246  54.091  1.00  0.00    -0.075 C 
HETATM    3  C3  UNL     1      24.231   0.275  53.327  1.00  0.00     0.046 A 
HETATM    4  C4  UNL     1      23.144  -0.536  53.689  1.00  0.00     0.026 A 
HETATM    5  C5  UNL     1      21.971  -0.556  52.979  1.00  0.00     0.040 A 
HETATM    6  C6  UNL     1      21.833   0.226  51.879  1.00  0.00     0.097 A 
HETATM    7  C7  UNL     1      22.844   1.055  51.428  1.00  0.00     0.091 A 
HETATM    8  C8  UNL     1      23.972   1.017  52.202  1.00  0.00     0.081 A 
HETATM    9  N1  UNL     1      25.105   1.916  52.126  1.00  0.00    -0.348 N 
HETATM   10  C9  UNL     1      24.427   3.113  52.553  1.00  0.00     0.201 C 
HETATM   11  N2  UNL     1      23.808   4.163  53.133  1.00  0.00    -0.284 NA
HETATM   12  C10 UNL     1      23.409   5.133  52.085  1.00  0.00     0.094 C 
HETATM   13  C11 UNL     1      22.246   4.547  51.973  1.00  0.00     0.083 C 
HETATM   14  C12 UNL     1      20.976   4.501  51.304  1.00  0.00    -0.014 C 
HETATM   15  C13 UNL     1      20.536   5.253  50.278  1.00  0.00     0.014 A 
HETATM   16  C14 UNL     1      19.242   5.083  49.680  1.00  0.00     0.047 A 
HETATM   17  C15 UNL     1      20.060   4.624  48.680  1.00  0.00     0.108 A 
HETATM   18  C16 UNL     1      20.862   3.465  48.164  1.00  0.00     0.124 C 
HETATM   19  N3  UNL     1      21.891   2.714  48.262  1.00  0.00    -0.283 NA
HETATM   20  C17 UNL     1      22.961   2.769  49.225  1.00  0.00     0.270 C 
HETATM   21  N4  UNL     1      22.864   1.839  50.248  1.00  0.00    -0.368 N 
HETATM   22  O1  UNL     1      20.030   5.838  47.938  1.00  0.00    -0.373 OA
HETATM   23  C18 UNL     1      20.784   6.943  48.514  1.00  0.00     0.170 C 
HETATM   24  C19 UNL     1      21.425   6.390  49.787  1.00  0.00     0.040 C 
HETATM   25  C20 UNL     1      19.966   3.699  52.022  1.00  0.00     0.014 C 
HETATM   26  C21 UNL     1      20.104   2.254  52.181  1.00  0.00     0.028 C 
HETATM   27  C22 UNL     1      19.986   1.371  50.977  1.00  0.00     0.176 C 
HETATM   28  O2  UNL     1      20.521   0.042  51.346  1.00  0.00    -0.349 OA
HETATM   29  H4  UNL     1      26.063   1.667  51.868  1.00  0.00     0.167 HD
HETATM   30  H12 UNL     1      22.635   0.944  49.743  1.00  0.00     0.161 HD
ENDROOT
TORSDOF 0
ENDMDL
MODEL 5
REMARK VINA RESULT:      -8.6      2.415      6.192
REMARK  0 active torsions:
REMARK  status: ('A' for Active; 'I' for Inactive)
ROOT
HETATM    1  C1  UNL     1      18.153  -0.541  52.030  1.00  0.00     0.018 C 
HETATM    2  C2  UNL     1      19.197   0.017  52.202  1.00  0.00    -0.075 C 
HETATM    3  C3  UNL     1      20.457   0.663  52.400  1.00  0.00     0.046 A 
HETATM    4  C4  UNL     1      21.535  -0.043  52.957  1.00  0.00     0.026 A 
HETATM    5  C5  UNL     1      22.758   0.536  53.182  1.00  0.00     0.040 A 
HETATM    6  C6  UNL     1      22.957   1.840  52.866  1.00  0.00     0.097 A 
HETATM    7  C7  UNL     1      21.961   2.632  52.323  1.00  0.00     0.091 A 
HETATM    8  C8  UNL     1      20.779   1.969  52.125  1.00  0.00     0.081 A 
HETATM    9  N1  UNL     1      19.632   2.447  51.381  1.00  0.00    -0.348 N 
HETATM   10  C9  UNL     1      20.245   2.467  50.078  1.00  0.00     0.201 C 
HETATM   11  N2  UNL     1      20.791   2.294  48.856  1.00  0.00    -0.284 NA
HETATM   12  C10 UNL     1      21.242   3.607  48.334  1.00  0.00     0.094 C 
HETATM   13  C11 UNL     1      22.424   3.420  48.857  1.00  0.00     0.083 C 
HETATM   14  C12 UNL     1      23.741   3.945  49.086  1.00  0.00    -0.014 C 
HETATM   15  C13 UNL     1      24.236   5.153  48.755  1.00  0.00     0.014 A 
HETATM   16  C14 UNL     1      25.575   5.564  49.069  1.00  0.00     0.047 A 
HETATM   17  C15 UNL     1      24.846   6.360  49.913  1.00  0.00     0.108 A 
HETATM   18  C16 UNL     1      24.115   6.444  51.222  1.00  0.00     0.124 C 
HETATM   19  N3  UNL     1      23.102   6.128  51.933  1.00  0.00    -0.283 NA
HETATM   20  C17 UNL     1      21.962   5.323  51.575  1.00  0.00     0.270 C 
HETATM   21  N4  UNL     1      22.007   4.020  52.045  1.00  0.00    -0.368 N 
HETATM   22  O1  UNL     1      24.899   7.506  49.069  1.00  0.00    -0.373 OA
HETATM   23  C18 UNL     1      24.076   7.437  47.870  1.00  0.00     0.170 C 
HETATM   24  C19 UNL     1      23.357   6.090  47.934  1.00  0.00     0.040 C 
HETATM   25  C20 UNL     1      24.716   2.918  49.503  1.00  0.00     0.014 C 
HETATM   26  C21 UNL     1      24.604   2.231  50.786  1.00  0.00     0.028 C 
HETATM   27  C22 UNL     1      24.835   3.000  52.051  1.00  0.00     0.176 C 
HETATM   28  O2  UNL     1      24.309   2.186  53.168  1.00  0.00    -0.349 OA
HETATM   29  H4  UNL     1      18.702   2.646  51.759  1.00  0.00     0.167 HD
HETATM   30  H12 UNL     1      22.297   4.132  53.051  1.00  0.00     0.161 HD
ENDROOT
TORSDOF 0
ENDMDL
MODEL 6
REMARK VINA RESULT:      -8.4      2.432      4.685
REMARK  0 active torsions:
REMARK  status: ('A' for Active; 'I' for Inactive)
ROOT
HETATM    1  C1  UNL     1      21.539  -2.010  54.308  1.00  0.00     0.018 C 
HETATM    2  C2  UNL     1      22.087  -1.027  53.902  1.00  0.00    -0.075 C 
HETATM    3  C3  UNL     1      22.759   0.132  53.404  1.00  0.00     0.046 A 
HETATM    4  C4  UNL     1      24.162   0.176  53.367  1.00  0.00     0.026 A 
HETATM    5  C5  UNL     1      24.853   1.270  52.914  1.00  0.00     0.040 A 
HETATM    6  C6  UNL     1      24.178   2.365  52.483  1.00  0.00     0.097 A 
HETATM    7  C7  UNL     1      22.797   2.433  52.486  1.00  0.00     0.091 A 
HETATM    8  C8  UNL     1      22.191   1.294  52.945  1.00  0.00     0.081 A 
HETATM    9  N1  UNL     1      20.782   0.971  52.866  1.00  0.00    -0.348 N 
HETATM   10  C9  UNL     1      20.692   0.861  51.432  1.00  0.00     0.201 C 
HETATM   11  N2  UNL     1      20.688   0.584  50.112  1.00  0.00    -0.284 NA
HETATM   12  C10 UNL     1      20.111   1.734  49.375  1.00  0.00     0.094 C 
HETATM   13  C11 UNL     1      21.301   2.254  49.233  1.00  0.00     0.083 C 
HETATM   14  C12 UNL     1      22.092   3.345  48.737  1.00  0.00    -0.014 C 
HETATM   15  C13 UNL     1      21.682   4.483  48.147  1.00  0.00     0.014 A 
HETATM   16  C14 UNL     1      22.585   5.514  47.720  1.00  0.00     0.047 A 
HETATM   17  C15 UNL     1      21.968   6.124  48.780  1.00  0.00     0.108 A 
HETATM   18  C16 UNL     1      21.917   6.270  50.273  1.00  0.00     0.124 C 
HETATM   19  N3  UNL     1      21.625   5.774  51.414  1.00  0.00    -0.283 NA
HETATM   20  C17 UNL     1      21.062   4.484  51.721  1.00  0.00     0.270 C 
HETATM   21  N4  UNL     1      21.980   3.544  52.160  1.00  0.00    -0.368 N 
HETATM   22  O1  UNL     1      21.052   6.860  47.976  1.00  0.00    -0.373 OA
HETATM   23  C18 UNL     1      19.987   6.078  47.365  1.00  0.00     0.170 C 
HETATM   24  C19 UNL     1      20.196   4.641  47.846  1.00  0.00     0.040 C 
HETATM   25  C20 UNL     1      23.532   3.030  48.648  1.00  0.00     0.014 C 
HETATM   26  C21 UNL     1      24.340   2.789  49.839  1.00  0.00     0.028 C 
HETATM   27  C22 UNL     1      24.620   3.924  50.776  1.00  0.00     0.176 C 
HETATM   28  O2  UNL     1      25.121   3.342  52.041  1.00  0.00    -0.349 OA
HETATM   29  H4  UNL     1      20.142   0.845  53.654  1.00  0.00     0.167 HD
HETATM   30  H12 UNL     1      22.546   4.071  52.874  1.00  0.00     0.161 HD
ENDROOT
TORSDOF 0
ENDMDL
MODEL 7
REMARK VINA RESULT:      -8.4     11.290     13.628
REMARK  0 active torsions:
REMARK  status: ('A' for Active; 'I' for Inactive)
ROOT
HETATM    1  C1  UNL     1      30.332  12.786  45.710  1.00  0.00     0.018 C 
HETATM    2  C2  UNL     1      30.619  11.897  46.457  1.00  0.00    -0.075 C 
HETATM    3  C3  UNL     1      30.938  10.828  47.351  1.00  0.00     0.046 A 
HETATM    4  C4  UNL     1      30.126  10.572  48.467  1.00  0.00     0.026 A 
HETATM    5  C5  UNL     1      30.398   9.570  49.363  1.00  0.00     0.040 A 
HETATM    6  C6  UNL     1      31.490   8.784  49.186  1.00  0.00     0.097 A 
HETATM    7  C7  UNL     1      32.363   8.955  48.128  1.00  0.00     0.091 A 
HETATM    8  C8  UNL     1      32.008   9.971  47.281  1.00  0.00     0.081 A 
HETATM    9  N1  UNL     1      32.581  10.255  45.982  1.00  0.00    -0.348 N 
HETATM   10  C9  UNL     1      32.128   9.065  45.309  1.00  0.00     0.201 C 
HETATM   11  N2  UNL     1      31.532   8.038  44.668  1.00  0.00    -0.284 NA
HETATM   12  C10 UNL     1      32.516   6.946  44.478  1.00  0.00     0.094 C 
HETATM   13  C11 UNL     1      32.154   6.409  45.613  1.00  0.00     0.083 C 
HETATM   14  C12 UNL     1      32.352   5.357  46.570  1.00  0.00    -0.014 C 
HETATM   15  C13 UNL     1      33.271   4.373  46.563  1.00  0.00     0.014 A 
HETATM   16  C14 UNL     1      33.377   3.392  47.605  1.00  0.00     0.047 A 
HETATM   17  C15 UNL     1      34.515   4.127  47.814  1.00  0.00     0.108 A 
HETATM   18  C16 UNL     1      35.097   5.373  48.417  1.00  0.00     0.124 C 
HETATM   19  N3  UNL     1      35.238   6.643  48.386  1.00  0.00    -0.283 NA
HETATM   20  C17 UNL     1      34.701   7.589  47.442  1.00  0.00     0.270 C 
HETATM   21  N4  UNL     1      33.582   8.275  47.887  1.00  0.00    -0.368 N 
HETATM   22  O1  UNL     1      35.371   3.216  47.134  1.00  0.00    -0.373 OA
HETATM   23  C18 UNL     1      35.239   3.197  45.684  1.00  0.00     0.170 C 
HETATM   24  C19 UNL     1      34.184   4.252  45.348  1.00  0.00     0.040 C 
HETATM   25  C20 UNL     1      31.234   5.216  47.524  1.00  0.00     0.014 C 
HETATM   26  C21 UNL     1      30.926   6.253  48.504  1.00  0.00     0.028 C 
HETATM   27  C22 UNL     1      31.885   6.507  49.626  1.00  0.00     0.176 C 
HETATM   28  O2  UNL     1      31.528   7.810  50.229  1.00  0.00    -0.349 OA
HETATM   29  H4  UNL     1      33.102  11.096  45.717  1.00  0.00     0.167 HD
HETATM   30  H12 UNL     1      33.851   8.574  48.860  1.00  0.00     0.161 HD
ENDROOT
TORSDOF 0
ENDMDL
MODEL 8
REMARK VINA RESULT:      -8.1      8.048     10.659
REMARK  0 active torsions:
REMARK  status: ('A' for Active; 'I' for Inactive)
ROOT
HETATM    1  C1  UNL     1      35.369   7.208  48.568  1.00  0.00     0.018 C 
HETATM    2  C2  UNL     1      34.457   7.908  48.236  1.00  0.00    -0.075 C 
HETATM    3  C3  UNL     1      33.373   8.739  47.815  1.00  0.00     0.046 A 
HETATM    4  C4  UNL     1      33.523   9.593  46.711  1.00  0.00     0.026 A 
HETATM    5  C5  UNL     1      32.520  10.421  46.277  1.00  0.00     0.040 A 
HETATM    6  C6  UNL     1      31.329  10.436  46.926  1.00  0.00     0.097 A 
HETATM    7  C7  UNL     1      31.076   9.644  48.031  1.00  0.00     0.091 A 
HETATM    8  C8  UNL     1      32.129   8.844  48.386  1.00  0.00     0.081 A 
HETATM    9  N1  UNL     1      32.108   7.759  49.344  1.00  0.00    -0.348 N 
HETATM   10  C9  UNL     1      31.231   6.879  48.616  1.00  0.00     0.201 C 
HETATM   11  N2  UNL     1      30.564   6.011  47.826  1.00  0.00    -0.284 NA
HETATM   12  C10 UNL     1      29.145   5.956  48.252  1.00  0.00     0.094 C 
HETATM   13  C11 UNL     1      28.845   6.908  47.410  1.00  0.00     0.083 C 
HETATM   14  C12 UNL     1      27.830   7.772  46.875  1.00  0.00    -0.014 C 
HETATM   15  C13 UNL     1      26.541   7.889  47.245  1.00  0.00     0.014 A 
HETATM   16  C14 UNL     1      25.633   8.820  46.639  1.00  0.00     0.047 A 
HETATM   17  C15 UNL     1      25.790   9.373  47.883  1.00  0.00     0.108 A 
HETATM   18  C16 UNL     1      26.658  10.222  48.766  1.00  0.00     0.124 C 
HETATM   19  N3  UNL     1      27.733  10.355  49.444  1.00  0.00    -0.283 NA
HETATM   20  C17 UNL     1      28.803   9.410  49.637  1.00  0.00     0.270 C 
HETATM   21  N4  UNL     1      29.922   9.638  48.852  1.00  0.00    -0.368 N 
HETATM   22  O1  UNL     1      24.582   8.831  48.406  1.00  0.00    -0.373 OA
HETATM   23  C18 UNL     1      24.599   7.398  48.665  1.00  0.00     0.170 C 
HETATM   24  C19 UNL     1      26.006   6.926  48.299  1.00  0.00     0.040 C 
HETATM   25  C20 UNL     1      28.216   8.407  45.599  1.00  0.00     0.014 C 
HETATM   26  C21 UNL     1      29.298   9.384  45.524  1.00  0.00     0.028 C 
HETATM   27  C22 UNL     1      29.120  10.725  46.167  1.00  0.00     0.176 C 
HETATM   28  O2  UNL     1      30.456  11.353  46.264  1.00  0.00    -0.349 OA
HETATM   29  H4  UNL     1      32.625   7.716  50.226  1.00  0.00     0.167 HD
HETATM   30  H12 UNL     1      30.087  10.673  48.957  1.00  0.00     0.161 HD
ENDROOT
TORSDOF 0
ENDMDL
MODEL 9
REMARK VINA RESULT:      -8.0      3.387      4.557
REMARK  0 active torsions:
REMARK  status: ('A' for Active; 'I' for Inactive)
ROOT
HETATM    1  C1  UNL     1      27.360   9.243  50.344  1.00  0.00     0.018 C 
HETATM    2  C2  UNL     1      26.262   8.884  50.032  1.00  0.00    -0.075 C 
HETATM    3  C3  UNL     1      24.958   8.455  49.633  1.00  0.00     0.046 A 
HETATM    4  C4  UNL     1      24.322   9.051  48.533  1.00  0.00     0.026 A 
HETATM    5  C5  UNL     1      23.065   8.688  48.121  1.00  0.00     0.040 A 
HETATM    6  C6  UNL     1      22.389   7.720  48.789  1.00  0.00     0.097 A 
HETATM    7  C7  UNL     1      22.916   7.075  49.893  1.00  0.00     0.091 A 
HETATM    8  C8  UNL     1      24.177   7.494  50.225  1.00  0.00     0.081 A 
HETATM    9  N1  UNL     1      25.074   6.873  51.176  1.00  0.00    -0.348 N 
HETATM   10  C9  UNL     1      25.293   5.644  50.457  1.00  0.00     0.201 C 
HETATM   11  N2  UNL     1      25.620   4.596  49.672  1.00  0.00    -0.284 NA
HETATM   12  C10 UNL     1      24.870   3.399  50.122  1.00  0.00     0.094 C 
HETATM   13  C11 UNL     1      23.902   3.681  49.291  1.00  0.00     0.083 C 
HETATM   14  C12 UNL     1      22.608   3.328  48.778  1.00  0.00    -0.014 C 
HETATM   15  C13 UNL     1      21.789   2.334  49.170  1.00  0.00     0.014 A 
HETATM   16  C14 UNL     1      20.499   2.105  48.585  1.00  0.00     0.047 A 
HETATM   17  C15 UNL     1      20.150   2.560  49.830  1.00  0.00     0.108 A 
HETATM   18  C16 UNL     1      19.954   3.765  50.704  1.00  0.00     0.124 C 
HETATM   19  N3  UNL     1      20.461   4.733  51.366  1.00  0.00    -0.283 NA
HETATM   20  C17 UNL     1      21.848   5.084  51.535  1.00  0.00     0.270 C 
HETATM   21  N4  UNL     1      22.281   6.127  50.733  1.00  0.00    -0.368 N 
HETATM   22  O1  UNL     1      19.922   1.263  50.370  1.00  0.00    -0.373 OA
HETATM   23  C18 UNL     1      21.117   0.469  50.618  1.00  0.00     0.170 C 
HETATM   24  C19 UNL     1      22.297   1.359  50.226  1.00  0.00     0.040 C 
HETATM   25  C20 UNL     1      22.284   3.992  47.501  1.00  0.00     0.014 C 
HETATM   26  C21 UNL     1      22.090   5.436  47.414  1.00  0.00     0.028 C 
HETATM   27  C22 UNL     1      20.892   6.054  48.069  1.00  0.00     0.176 C 
HETATM   28  O2  UNL     1      21.131   7.512  48.148  1.00  0.00    -0.349 OA
HETATM   29  H4  UNL     1      25.415   7.283  52.050  1.00  0.00     0.167 HD
HETATM   30  H12 UNL     1      21.522   6.849  50.842  1.00  0.00     0.161 HD
ENDROOT
TORSDOF 0
ENDMDL
