MODEL 1
REMARK VINA RESULT:      -7.9      0.000      0.000
REMARK  7 active torsions:
REMARK  status: ('A' for Active; 'I' for Inactive)
REMARK    1  A    between atoms: N1_1  and  C1_2 
REMARK    2  A    between atoms: C2_4  and  N3_5 
REMARK    3  A    between atoms: N3_5  and  C3_6 
REMARK    4  A    between atoms: C3_6  and  C4_7 
REMARK    5  A    between atoms: C4_7  and  C5_8 
REMARK    6  A    between atoms: C12_15  and  N4_16 
REMARK    7  A    between atoms: N4_16  and  C13_17 
ROOT
HETATM    1  C1  UNL     1      28.719   1.913  54.154  1.00  0.00     0.724 A 
HETATM    2  N2  UNL     1      28.064   0.959  54.817  1.00  0.00    -0.046 NA
HETATM    3  C2  UNL     1      26.845   0.609  54.391  1.00  0.00     0.146 A 
HETATM    4  C11 UNL     1      26.328   1.238  53.304  1.00  0.00     0.101 A 
HETATM    5  C12 UNL     1      26.978   2.237  52.586  1.00  0.00     0.150 A 
HETATM    6  N5  UNL     1      28.185   2.518  53.084  1.00  0.00    -0.045 NA
ENDROOT
BRANCH   3   7
HETATM    7  N3  UNL     1      26.114  -0.400  55.067  1.00  0.00    -0.374 N 
HETATM    8  H3  UNL     1      26.343  -0.601  56.087  1.00  0.00     0.161 HD
BRANCH   7   9
HETATM    9  C3  UNL     1      25.067  -1.173  54.439  1.00  0.00     0.126 C 
BRANCH   9  10
HETATM   10  C4  UNL     1      23.798  -1.038  55.227  1.00  0.00     0.058 C 
BRANCH  10  11
HETATM   11  C5  UNL     1      22.668  -0.639  54.352  1.00  0.00    -0.057 A 
HETATM   12  C6  UNL     1      22.974  -0.242  53.045  1.00  0.00     0.007 A 
HETATM   13  C7  UNL     1      22.011   0.140  52.155  1.00  0.00     0.001 A 
HETATM   14  C8  UNL     1      20.669   0.153  52.513  1.00  0.00     0.000 A 
HETATM   15  C9  UNL     1      20.358  -0.234  53.791  1.00  0.00     0.001 A 
HETATM   16  C10 UNL     1      21.328  -0.613  54.668  1.00  0.00     0.007 A 
ENDBRANCH  10  11
ENDBRANCH   9  10
ENDBRANCH   7   9
ENDBRANCH   3   7
BRANCH   1  17
HETATM   17  N1  UNL     1      30.017   2.313  54.576  1.00  0.00    -0.231 N 
HETATM   18  H1  UNL     1      30.927   1.836  54.671  1.00  0.00     0.174 HD
HETATM   19  H2  UNL     1      30.194   3.306  54.881  1.00  0.00     0.174 HD
ENDBRANCH   1  17
BRANCH   5  20
HETATM   20  N4  UNL     1      26.345   2.828  51.465  1.00  0.00    -0.340 N 
HETATM   21  H14 UNL     1      26.974   3.131  50.682  1.00  0.00     0.167 HD
BRANCH  20  22
HETATM   22  C13 UNL     1      24.961   3.060  51.279  1.00  0.00     0.035 A 
HETATM   23  C14 UNL     1      24.102   3.623  52.193  1.00  0.00     0.029 A 
HETATM   24  C15 UNL     1      22.755   3.846  52.007  1.00  0.00     0.004 A 
HETATM   25  C16 UNL     1      22.219   3.470  50.795  1.00  0.00     0.019 A 
HETATM   26  C17 UNL     1      23.021   2.903  49.841  1.00  0.00     0.013 A 
HETATM   27 BR1  UNL     1      22.275   2.386  48.164  1.00  0.00    -0.051 Br
HETATM   28  C18 UNL     1      24.351   2.712  50.094  1.00  0.00     0.048 A 
ENDBRANCH  20  22
ENDBRANCH   5  20
TORSDOF 7
ENDMDL
MODEL 2
REMARK VINA RESULT:      -7.7      3.105      6.517
REMARK  7 active torsions:
REMARK  status: ('A' for Active; 'I' for Inactive)
REMARK    1  A    between atoms: N1_1  and  C1_2 
REMARK    2  A    between atoms: C2_4  and  N3_5 
REMARK    3  A    between atoms: N3_5  and  C3_6 
REMARK    4  A    between atoms: C3_6  and  C4_7 
REMARK    5  A    between atoms: C4_7  and  C5_8 
REMARK    6  A    between atoms: C12_15  and  N4_16 
REMARK    7  A    between atoms: N4_16  and  C13_17 
ROOT
HETATM    1  C1  UNL     1      28.180   0.733  53.445  1.00  0.00     0.724 A 
HETATM    2  N2  UNL     1      28.093   1.830  52.693  1.00  0.00    -0.046 NA
HETATM    3  C2  UNL     1      26.943   2.076  52.056  1.00  0.00     0.146 A 
HETATM    4  C11 UNL     1      25.915   1.200  52.202  1.00  0.00     0.101 A 
HETATM    5  C12 UNL     1      25.966   0.045  52.976  1.00  0.00     0.150 A 
HETATM    6  N5  UNL     1      27.151  -0.116  53.572  1.00  0.00    -0.045 NA
ENDROOT
BRANCH   3   7
HETATM    7  N3  UNL     1      26.808   3.231  51.246  1.00  0.00    -0.374 N 
HETATM    8  H3  UNL     1      26.924   4.189  51.696  1.00  0.00     0.161 HD
BRANCH   7   9
HETATM    9  C3  UNL     1      26.520   3.176  49.830  1.00  0.00     0.126 C 
BRANCH   9  10
HETATM   10  C4  UNL     1      25.880   4.461  49.394  1.00  0.00     0.058 C 
BRANCH  10  11
HETATM   11  C5  UNL     1      26.874   5.365  48.766  1.00  0.00    -0.057 A 
HETATM   12  C6  UNL     1      26.423   6.615  48.329  1.00  0.00     0.007 A 
HETATM   13  C7  UNL     1      27.255   7.525  47.741  1.00  0.00     0.001 A 
HETATM   14  C8  UNL     1      28.601   7.246  47.549  1.00  0.00     0.000 A 
HETATM   15  C9  UNL     1      29.055   6.024  47.974  1.00  0.00     0.001 A 
HETATM   16  C10 UNL     1      28.215   5.126  48.559  1.00  0.00     0.007 A 
ENDBRANCH  10  11
ENDBRANCH   9  10
ENDBRANCH   7   9
ENDBRANCH   3   7
BRANCH   1  17
HETATM   17  N1  UNL     1      29.387   0.436  54.138  1.00  0.00    -0.231 N 
HETATM   18  H1  UNL     1      29.612   0.094  55.086  1.00  0.00     0.174 HD
HETATM   19  H2  UNL     1      30.318   0.560  53.662  1.00  0.00     0.174 HD
ENDBRANCH   1  17
BRANCH   5  20
HETATM   20  N4  UNL     1      24.833  -0.802  53.058  1.00  0.00    -0.340 N 
HETATM   21  H14 UNL     1      24.973  -1.796  52.752  1.00  0.00     0.167 HD
BRANCH  20  22
HETATM   22  C13 UNL     1      23.534  -0.462  53.504  1.00  0.00     0.035 A 
HETATM   23  C14 UNL     1      22.854  -1.046  54.547  1.00  0.00     0.029 A 
HETATM   24  C15 UNL     1      21.589  -0.712  54.977  1.00  0.00     0.004 A 
HETATM   25  C16 UNL     1      20.945   0.301  54.300  1.00  0.00     0.019 A 
HETATM   26  C17 UNL     1      21.566   0.924  53.252  1.00  0.00     0.013 A 
HETATM   27 BR1  UNL     1      20.671   2.326  52.319  1.00  0.00    -0.051 Br
HETATM   28  C18 UNL     1      22.825   0.540  52.879  1.00  0.00     0.048 A 
ENDBRANCH  20  22
ENDBRANCH   5  20
TORSDOF 7
ENDMDL
MODEL 3
REMARK VINA RESULT:      -7.7      2.263      2.677
REMARK  7 active torsions:
REMARK  status: ('A' for Active; 'I' for Inactive)
REMARK    1  A    between atoms: N1_1  and  C1_2 
REMARK    2  A    between atoms: C2_4  and  N3_5 
REMARK    3  A    between atoms: N3_5  and  C3_6 
REMARK    4  A    between atoms: C3_6  and  C4_7 
REMARK    5  A    between atoms: C4_7  and  C5_8 
REMARK    6  A    between atoms: C12_15  and  N4_16 
REMARK    7  A    between atoms: N4_16  and  C13_17 
ROOT
HETATM    1  C1  UNL     1      28.165   1.977  53.580  1.00  0.00     0.724 A 
HETATM    2  N2  UNL     1      27.329   1.156  54.217  1.00  0.00    -0.046 NA
HETATM    3  C2  UNL     1      26.200   0.794  53.598  1.00  0.00     0.146 A 
HETATM    4  C11 UNL     1      25.954   1.274  52.352  1.00  0.00     0.101 A 
HETATM    5  C12 UNL     1      26.800   2.130  51.655  1.00  0.00     0.150 A 
HETATM    6  N5  UNL     1      27.899   2.436  52.350  1.00  0.00    -0.045 NA
ENDROOT
BRANCH   3   7
HETATM    7  N3  UNL     1      25.282  -0.077  54.239  1.00  0.00    -0.374 N 
HETATM    8  H3  UNL     1      25.391  -0.256  55.283  1.00  0.00     0.161 HD
BRANCH   7   9
HETATM    9  C3  UNL     1      24.199  -0.735  53.545  1.00  0.00     0.126 C 
BRANCH   9  10
HETATM   10  C4  UNL     1      22.913  -0.505  54.283  1.00  0.00     0.058 C 
BRANCH  10  11
HETATM   11  C5  UNL     1      21.800  -0.231  53.341  1.00  0.00    -0.057 A 
HETATM   12  C6  UNL     1      22.137   0.225  52.061  1.00  0.00     0.007 A 
HETATM   13  C7  UNL     1      21.192   0.504  51.115  1.00  0.00     0.001 A 
HETATM   14  C8  UNL     1      19.839   0.346  51.385  1.00  0.00     0.000 A 
HETATM   15  C9  UNL     1      19.498  -0.101  52.635  1.00  0.00     0.001 A 
HETATM   16  C10 UNL     1      20.450  -0.375  53.569  1.00  0.00     0.007 A 
ENDBRANCH  10  11
ENDBRANCH   9  10
ENDBRANCH   7   9
ENDBRANCH   3   7
BRANCH   1  17
HETATM   17  N1  UNL     1      29.377   2.386  54.204  1.00  0.00    -0.231 N 
HETATM   18  H1  UNL     1      30.330   1.993  54.264  1.00  0.00     0.174 HD
HETATM   19  H2  UNL     1      29.414   3.283  54.755  1.00  0.00     0.174 HD
ENDBRANCH   1  17
BRANCH   5  20
HETATM   20  N4  UNL     1      26.445   2.573  50.356  1.00  0.00    -0.340 N 
HETATM   21  H14 UNL     1      26.147   1.830  49.678  1.00  0.00     0.167 HD
BRANCH  20  22
HETATM   22  C13 UNL     1      26.448   3.901  49.868  1.00  0.00     0.035 A 
HETATM   23  C14 UNL     1      27.335   4.431  48.961  1.00  0.00     0.029 A 
HETATM   24  C15 UNL     1      27.334   5.725  48.489  1.00  0.00     0.004 A 
HETATM   25  C16 UNL     1      26.352   6.566  48.968  1.00  0.00     0.019 A 
HETATM   26  C17 UNL     1      25.437   6.100  49.872  1.00  0.00     0.013 A 
HETATM   27 BR1  UNL     1      24.080   7.266  50.532  1.00  0.00    -0.051 Br
HETATM   28  C18 UNL     1      25.499   4.801  50.298  1.00  0.00     0.048 A 
ENDBRANCH  20  22
ENDBRANCH   5  20
TORSDOF 7
ENDMDL
MODEL 4
REMARK VINA RESULT:      -7.6      2.429      2.901
REMARK  7 active torsions:
REMARK  status: ('A' for Active; 'I' for Inactive)
REMARK    1  A    between atoms: N1_1  and  C1_2 
REMARK    2  A    between atoms: C2_4  and  N3_5 
REMARK    3  A    between atoms: N3_5  and  C3_6 
REMARK    4  A    between atoms: C3_6  and  C4_7 
REMARK    5  A    between atoms: C4_7  and  C5_8 
REMARK    6  A    between atoms: C12_15  and  N4_16 
REMARK    7  A    between atoms: N4_16  and  C13_17 
ROOT
HETATM    1  C1  UNL     1      28.020   1.980  53.577  1.00  0.00     0.724 A 
HETATM    2  N2  UNL     1      27.088   1.291  54.236  1.00  0.00    -0.046 NA
HETATM    3  C2  UNL     1      25.964   0.963  53.589  1.00  0.00     0.146 A 
HETATM    4  C11 UNL     1      25.821   1.343  52.293  1.00  0.00     0.101 A 
HETATM    5  C12 UNL     1      26.768   2.062  51.572  1.00  0.00     0.150 A 
HETATM    6  N5  UNL     1      27.854   2.343  52.298  1.00  0.00    -0.045 NA
ENDROOT
BRANCH   3   7
HETATM    7  N3  UNL     1      24.946   0.231  54.252  1.00  0.00    -0.374 N 
HETATM    8  H3  UNL     1      24.824   0.360  55.301  1.00  0.00     0.161 HD
BRANCH   7   9
HETATM    9  C3  UNL     1      24.059  -0.685  53.571  1.00  0.00     0.126 C 
BRANCH   9  10
HETATM   10  C4  UNL     1      22.675  -0.563  54.138  1.00  0.00     0.058 C 
BRANCH  10  11
HETATM   11  C5  UNL     1      21.697  -0.201  53.083  1.00  0.00    -0.057 A 
HETATM   12  C6  UNL     1      20.338  -0.330  53.393  1.00  0.00     0.007 A 
HETATM   13  C7  UNL     1      19.355  -0.020  52.496  1.00  0.00     0.001 A 
HETATM   14  C8  UNL     1      19.664   0.441  51.224  1.00  0.00     0.000 A 
HETATM   15  C9  UNL     1      20.992   0.571  50.910  1.00  0.00     0.001 A 
HETATM   16  C10 UNL     1      21.963   0.259  51.813  1.00  0.00     0.007 A 
ENDBRANCH  10  11
ENDBRANCH   9  10
ENDBRANCH   7   9
ENDBRANCH   3   7
BRANCH   1  17
HETATM   17  N1  UNL     1      29.230   2.348  54.230  1.00  0.00    -0.231 N 
HETATM   18  H1  UNL     1      30.044   1.828  54.594  1.00  0.00     0.174 HD
HETATM   19  H2  UNL     1      29.437   3.361  54.433  1.00  0.00     0.174 HD
ENDBRANCH   1  17
BRANCH   5  20
HETATM   20  N4  UNL     1      26.516   2.409  50.221  1.00  0.00    -0.340 N 
HETATM   21  H14 UNL     1      26.545   1.623  49.527  1.00  0.00     0.167 HD
BRANCH  20  22
HETATM   22  C13 UNL     1      26.231   3.693  49.700  1.00  0.00     0.035 A 
HETATM   23  C14 UNL     1      25.001   4.307  49.682  1.00  0.00     0.029 A 
HETATM   24  C15 UNL     1      24.728   5.558  49.173  1.00  0.00     0.004 A 
HETATM   25  C16 UNL     1      25.785   6.259  48.633  1.00  0.00     0.019 A 
HETATM   26  C17 UNL     1      27.036   5.704  48.621  1.00  0.00     0.013 A 
HETATM   27 BR1  UNL     1      28.495   6.677  47.874  1.00  0.00    -0.051 Br
HETATM   28  C18 UNL     1      27.234   4.456  49.144  1.00  0.00     0.048 A 
ENDBRANCH  20  22
ENDBRANCH   5  20
TORSDOF 7
ENDMDL
MODEL 5
REMARK VINA RESULT:      -7.4      2.578      5.174
REMARK  7 active torsions:
REMARK  status: ('A' for Active; 'I' for Inactive)
REMARK    1  A    between atoms: N1_1  and  C1_2 
REMARK    2  A    between atoms: C2_4  and  N3_5 
REMARK    3  A    between atoms: N3_5  and  C3_6 
REMARK    4  A    between atoms: C3_6  and  C4_7 
REMARK    5  A    between atoms: C4_7  and  C5_8 
REMARK    6  A    between atoms: C12_15  and  N4_16 
REMARK    7  A    between atoms: N4_16  and  C13_17 
ROOT
HETATM    1  C1  UNL     1      23.159   4.892  51.327  1.00  0.00     0.724 A 
HETATM    2  N2  UNL     1      22.271   4.055  50.789  1.00  0.00    -0.046 NA
HETATM    3  C2  UNL     1      22.705   2.873  50.335  1.00  0.00     0.146 A 
HETATM    4  C11 UNL     1      24.026   2.577  50.442  1.00  0.00     0.101 A 
HETATM    5  C12 UNL     1      24.982   3.422  50.997  1.00  0.00     0.150 A 
HETATM    6  N5  UNL     1      24.457   4.574  51.421  1.00  0.00    -0.045 NA
ENDROOT
BRANCH   3   7
HETATM    7  N3  UNL     1      21.795   1.954  49.754  1.00  0.00    -0.374 N 
HETATM    8  H3  UNL     1      21.253   2.249  48.887  1.00  0.00     0.161 HD
BRANCH   7   9
HETATM    9  C3  UNL     1      21.567   0.627  50.281  1.00  0.00     0.126 C 
BRANCH   9  10
HETATM   10  C4  UNL     1      20.828   0.722  51.583  1.00  0.00     0.058 C 
BRANCH  10  11
HETATM   11  C5  UNL     1      21.598   0.085  52.680  1.00  0.00    -0.057 A 
HETATM   12  C6  UNL     1      20.875  -0.612  53.655  1.00  0.00     0.007 A 
HETATM   13  C7  UNL     1      21.485  -1.239  54.704  1.00  0.00     0.001 A 
HETATM   14  C8  UNL     1      22.865  -1.211  54.851  1.00  0.00     0.000 A 
HETATM   15  C9  UNL     1      23.583  -0.531  53.902  1.00  0.00     0.001 A 
HETATM   16  C10 UNL     1      22.963   0.089  52.861  1.00  0.00     0.007 A 
ENDBRANCH  10  11
ENDBRANCH   9  10
ENDBRANCH   7   9
ENDBRANCH   3   7
BRANCH   1  17
HETATM   17  N1  UNL     1      22.737   6.158  51.821  1.00  0.00    -0.231 N 
HETATM   18  H1  UNL     1      23.207   7.061  51.993  1.00  0.00     0.174 HD
HETATM   19  H2  UNL     1      21.734   6.311  52.103  1.00  0.00     0.174 HD
ENDBRANCH   1  17
BRANCH   5  20
HETATM   20  N4  UNL     1      26.337   3.012  51.058  1.00  0.00    -0.340 N 
HETATM   21  H14 UNL     1      26.983   3.435  50.347  1.00  0.00     0.167 HD
BRANCH  20  22
HETATM   22  C13 UNL     1      26.921   2.098  51.968  1.00  0.00     0.035 A 
HETATM   23  C14 UNL     1      27.751   2.415  53.016  1.00  0.00     0.029 A 
HETATM   24  C15 UNL     1      28.317   1.521  53.899  1.00  0.00     0.004 A 
HETATM   25  C16 UNL     1      28.024   0.187  53.714  1.00  0.00     0.019 A 
HETATM   26  C17 UNL     1      27.203  -0.195  52.688  1.00  0.00     0.013 A 
HETATM   27 BR1  UNL     1      26.799  -2.041  52.436  1.00  0.00    -0.051 Br
HETATM   28  C18 UNL     1      26.675   0.748  51.850  1.00  0.00     0.048 A 
ENDBRANCH  20  22
ENDBRANCH   5  20
TORSDOF 7
ENDMDL
MODEL 6
REMARK VINA RESULT:      -7.4      1.719      2.645
REMARK  7 active torsions:
REMARK  status: ('A' for Active; 'I' for Inactive)
REMARK    1  A    between atoms: N1_1  and  C1_2 
REMARK    2  A    between atoms: C2_4  and  N3_5 
REMARK    3  A    between atoms: N3_5  and  C3_6 
REMARK    4  A    between atoms: C3_6  and  C4_7 
REMARK    5  A    between atoms: C4_7  and  C5_8 
REMARK    6  A    between atoms: C12_15  and  N4_16 
REMARK    7  A    between atoms: N4_16  and  C13_17 
ROOT
HETATM    1  C1  UNL     1      26.902   0.224  54.507  1.00  0.00     0.724 A 
HETATM    2  N2  UNL     1      25.916  -0.672  54.564  1.00  0.00    -0.046 NA
HETATM    3  C2  UNL     1      24.702  -0.309  54.137  1.00  0.00     0.146 A 
HETATM    4  C11 UNL     1      24.525   0.951  53.663  1.00  0.00     0.101 A 
HETATM    5  C12 UNL     1      25.526   1.914  53.587  1.00  0.00     0.150 A 
HETATM    6  N5  UNL     1      26.701   1.462  54.035  1.00  0.00    -0.045 NA
ENDROOT
BRANCH   3   7
HETATM    7  N3  UNL     1      23.624  -1.230  54.181  1.00  0.00    -0.374 N 
HETATM    8  H3  UNL     1      23.769  -2.206  53.782  1.00  0.00     0.161 HD
BRANCH   7   9
HETATM    9  C3  UNL     1      22.333  -0.910  54.746  1.00  0.00     0.126 C 
BRANCH   9  10
HETATM   10  C4  UNL     1      21.261  -1.151  53.723  1.00  0.00     0.058 C 
BRANCH  10  11
HETATM   11  C5  UNL     1      21.118   0.015  52.817  1.00  0.00    -0.057 A 
HETATM   12  C6  UNL     1      20.573   1.186  53.356  1.00  0.00     0.007 A 
HETATM   13  C7  UNL     1      20.401   2.318  52.611  1.00  0.00     0.001 A 
HETATM   14  C8  UNL     1      20.764   2.357  51.272  1.00  0.00     0.000 A 
HETATM   15  C9  UNL     1      21.300   1.216  50.734  1.00  0.00     0.001 A 
HETATM   16  C10 UNL     1      21.466   0.094  51.487  1.00  0.00     0.007 A 
ENDBRANCH  10  11
ENDBRANCH   9  10
ENDBRANCH   7   9
ENDBRANCH   3   7
BRANCH   1  17
HETATM   17  N1  UNL     1      28.209  -0.123  54.952  1.00  0.00    -0.231 N 
HETATM   18  H1  UNL     1      28.811  -0.955  54.852  1.00  0.00     0.174 HD
HETATM   19  H2  UNL     1      28.774   0.559  55.522  1.00  0.00     0.174 HD
ENDBRANCH   1  17
BRANCH   5  20
HETATM   20  N4  UNL     1      25.232   3.202  53.076  1.00  0.00    -0.340 N 
HETATM   21  H14 UNL     1      25.494   4.015  53.685  1.00  0.00     0.167 HD
BRANCH  20  22
HETATM   22  C13 UNL     1      24.625   3.520  51.837  1.00  0.00     0.035 A 
HETATM   23  C14 UNL     1      24.816   2.860  50.646  1.00  0.00     0.029 A 
HETATM   24  C15 UNL     1      24.223   3.174  49.443  1.00  0.00     0.004 A 
HETATM   25  C16 UNL     1      23.358   4.246  49.432  1.00  0.00     0.019 A 
HETATM   26  C17 UNL     1      23.123   4.946  50.585  1.00  0.00     0.013 A 
HETATM   27 BR1  UNL     1      21.925   6.428  50.566  1.00  0.00    -0.051 Br
HETATM   28  C18 UNL     1      23.748   4.577  51.745  1.00  0.00     0.048 A 
ENDBRANCH  20  22
ENDBRANCH   5  20
TORSDOF 7
ENDMDL
MODEL 7
REMARK VINA RESULT:      -7.3      3.154      6.510
REMARK  7 active torsions:
REMARK  status: ('A' for Active; 'I' for Inactive)
REMARK    1  A    between atoms: N1_1  and  C1_2 
REMARK    2  A    between atoms: C2_4  and  N3_5 
REMARK    3  A    between atoms: N3_5  and  C3_6 
REMARK    4  A    between atoms: C3_6  and  C4_7 
REMARK    5  A    between atoms: C4_7  and  C5_8 
REMARK    6  A    between atoms: C12_15  and  N4_16 
REMARK    7  A    between atoms: N4_16  and  C13_17 
ROOT
HETATM    1  C1  UNL     1      23.709  -1.096  55.093  1.00  0.00     0.724 A 
HETATM    2  N2  UNL     1      24.220  -0.343  54.118  1.00  0.00    -0.046 NA
HETATM    3  C2  UNL     1      23.385   0.175  53.210  1.00  0.00     0.146 A 
HETATM    4  C11 UNL     1      22.057  -0.086  53.320  1.00  0.00     0.101 A 
HETATM    5  C12 UNL     1      21.485  -0.866  54.320  1.00  0.00     0.150 A 
HETATM    6  N5  UNL     1      22.394  -1.339  55.177  1.00  0.00    -0.045 NA
ENDROOT
BRANCH   3   7
HETATM    7  N3  UNL     1      23.886   0.981  52.157  1.00  0.00    -0.374 N 
HETATM    8  H3  UNL     1      23.510   0.829  51.173  1.00  0.00     0.161 HD
BRANCH   7   9
HETATM    9  C3  UNL     1      24.885   2.007  52.353  1.00  0.00     0.126 C 
BRANCH   9  10
HETATM   10  C4  UNL     1      26.121   1.664  51.574  1.00  0.00     0.058 C 
BRANCH  10  11
HETATM   11  C5  UNL     1      27.193   1.167  52.471  1.00  0.00    -0.057 A 
HETATM   12  C6  UNL     1      27.353  -0.219  52.579  1.00  0.00     0.007 A 
HETATM   13  C7  UNL     1      28.312  -0.782  53.373  1.00  0.00     0.001 A 
HETATM   14  C8  UNL     1      29.180   0.006  54.116  1.00  0.00     0.000 A 
HETATM   15  C9  UNL     1      29.032   1.366  54.018  1.00  0.00     0.001 A 
HETATM   16  C10 UNL     1      28.073   1.914  53.223  1.00  0.00     0.007 A 
ENDBRANCH  10  11
ENDBRANCH   9  10
ENDBRANCH   7   9
ENDBRANCH   3   7
BRANCH   1  17
HETATM   17  N1  UNL     1      24.564  -1.666  56.077  1.00  0.00    -0.231 N 
HETATM   18  H1  UNL     1      24.673  -1.548  57.097  1.00  0.00     0.174 HD
HETATM   19  H2  UNL     1      25.285  -2.383  55.804  1.00  0.00     0.174 HD
ENDBRANCH   1  17
BRANCH   5  20
HETATM   20  N4  UNL     1      20.084  -1.076  54.340  1.00  0.00    -0.340 N 
HETATM   21  H14 UNL     1      19.686  -1.471  55.226  1.00  0.00     0.167 HD
BRANCH  20  22
HETATM   22  C13 UNL     1      19.159  -0.815  53.301  1.00  0.00     0.035 A 
HETATM   23  C14 UNL     1      19.319   0.090  52.278  1.00  0.00     0.029 A 
HETATM   24  C15 UNL     1      18.415   0.340  51.270  1.00  0.00     0.004 A 
HETATM   25  C16 UNL     1      17.242  -0.383  51.286  1.00  0.00     0.019 A 
HETATM   26  C17 UNL     1      17.020  -1.300  52.277  1.00  0.00     0.013 A 
HETATM   27 BR1  UNL     1      15.396  -2.299  52.296  1.00  0.00    -0.051 Br
HETATM   28  C18 UNL     1      17.963  -1.497  53.248  1.00  0.00     0.048 A 
ENDBRANCH  20  22
ENDBRANCH   5  20
TORSDOF 7
ENDMDL
MODEL 8
REMARK VINA RESULT:      -7.2      1.238      4.516
REMARK  7 active torsions:
REMARK  status: ('A' for Active; 'I' for Inactive)
REMARK    1  A    between atoms: N1_1  and  C1_2 
REMARK    2  A    between atoms: C2_4  and  N3_5 
REMARK    3  A    between atoms: N3_5  and  C3_6 
REMARK    4  A    between atoms: C3_6  and  C4_7 
REMARK    5  A    between atoms: C4_7  and  C5_8 
REMARK    6  A    between atoms: C12_15  and  N4_16 
REMARK    7  A    between atoms: N4_16  and  C13_17 
ROOT
HETATM    1  C1  UNL     1      28.169   1.794  53.664  1.00  0.00     0.724 A 
HETATM    2  N2  UNL     1      27.942   2.325  52.462  1.00  0.00    -0.046 NA
HETATM    3  C2  UNL     1      26.874   1.907  51.773  1.00  0.00     0.146 A 
HETATM    4  C11 UNL     1      26.069   0.962  52.325  1.00  0.00     0.101 A 
HETATM    5  C12 UNL     1      26.272   0.384  53.574  1.00  0.00     0.150 A 
HETATM    6  N5  UNL     1      27.358   0.863  54.185  1.00  0.00    -0.045 NA
ENDROOT
BRANCH   3   7
HETATM    7  N3  UNL     1      26.596   2.445  50.491  1.00  0.00    -0.374 N 
HETATM    8  H3  UNL     1      26.880   1.888  49.630  1.00  0.00     0.161 HD
BRANCH   7   9
HETATM    9  C3  UNL     1      25.939   3.717  50.293  1.00  0.00     0.126 C 
BRANCH   9  10
HETATM   10  C4  UNL     1      24.685   3.519  49.493  1.00  0.00     0.058 C 
BRANCH  10  11
HETATM   11  C5  UNL     1      23.480   3.761  50.324  1.00  0.00    -0.057 A 
HETATM   12  C6  UNL     1      22.295   4.095  49.659  1.00  0.00     0.007 A 
HETATM   13  C7  UNL     1      21.128   4.334  50.328  1.00  0.00     0.001 A 
HETATM   14  C8  UNL     1      21.066   4.255  51.712  1.00  0.00     0.000 A 
HETATM   15  C9  UNL     1      22.221   3.927  52.374  1.00  0.00     0.001 A 
HETATM   16  C10 UNL     1      23.377   3.691  51.696  1.00  0.00     0.007 A 
ENDBRANCH  10  11
ENDBRANCH   9  10
ENDBRANCH   7   9
ENDBRANCH   3   7
BRANCH   1  17
HETATM   17  N1  UNL     1      29.294   2.213  54.428  1.00  0.00    -0.231 N 
HETATM   18  H1  UNL     1      29.865   3.071  54.466  1.00  0.00     0.174 HD
HETATM   19  H2  UNL     1      29.715   1.570  55.149  1.00  0.00     0.174 HD
ENDBRANCH   1  17
BRANCH   5  20
HETATM   20  N4  UNL     1      25.368  -0.596  54.054  1.00  0.00    -0.340 N 
HETATM   21  H14 UNL     1      25.795  -1.424  54.537  1.00  0.00     0.167 HD
BRANCH  20  22
HETATM   22  C13 UNL     1      23.957  -0.588  53.958  1.00  0.00     0.035 A 
HETATM   23  C14 UNL     1      23.074  -0.988  54.933  1.00  0.00     0.029 A 
HETATM   24  C15 UNL     1      21.700  -0.978  54.835  1.00  0.00     0.004 A 
HETATM   25  C16 UNL     1      21.160  -0.526  53.650  1.00  0.00     0.019 A 
HETATM   26  C17 UNL     1      21.984  -0.113  52.638  1.00  0.00     0.013 A 
HETATM   27 BR1  UNL     1      21.233   0.513  51.001  1.00  0.00    -0.051 Br
HETATM   28  C18 UNL     1      23.341  -0.149  52.807  1.00  0.00     0.048 A 
ENDBRANCH  20  22
ENDBRANCH   5  20
TORSDOF 7
ENDMDL
MODEL 9
REMARK VINA RESULT:      -7.1      3.261      6.683
REMARK  7 active torsions:
REMARK  status: ('A' for Active; 'I' for Inactive)
REMARK    1  A    between atoms: N1_1  and  C1_2 
REMARK    2  A    between atoms: C2_4  and  N3_5 
REMARK    3  A    between atoms: N3_5  and  C3_6 
REMARK    4  A    between atoms: C3_6  and  C4_7 
REMARK    5  A    between atoms: C4_7  and  C5_8 
REMARK    6  A    between atoms: C12_15  and  N4_16 
REMARK    7  A    between atoms: N4_16  and  C13_17 
ROOT
HETATM    1  C1  UNL     1      21.077  -0.225  53.335  1.00  0.00     0.724 A 
HETATM    2  N2  UNL     1      21.082   0.400  52.158  1.00  0.00    -0.046 NA
HETATM    3  C2  UNL     1      22.258   0.780  51.644  1.00  0.00     0.146 A 
HETATM    4  C11 UNL     1      23.392   0.512  52.341  1.00  0.00     0.101 A 
HETATM    5  C12 UNL     1      23.428  -0.137  53.571  1.00  0.00     0.150 A 
HETATM    6  N5  UNL     1      22.211  -0.477  54.003  1.00  0.00    -0.045 NA
ENDROOT
BRANCH   3   7
HETATM    7  N3  UNL     1      22.310   1.448  50.395  1.00  0.00    -0.374 N 
HETATM    8  H3  UNL     1      22.485   0.875  49.515  1.00  0.00     0.161 HD
BRANCH   7   9
HETATM    9  C3  UNL     1      22.133   2.876  50.254  1.00  0.00     0.126 C 
BRANCH   9  10
HETATM   10  C4  UNL     1      23.094   3.595  51.154  1.00  0.00     0.058 C 
BRANCH  10  11
HETATM   11  C5  UNL     1      24.343   3.941  50.432  1.00  0.00    -0.057 A 
HETATM   12  C6  UNL     1      25.400   3.027  50.498  1.00  0.00     0.007 A 
HETATM   13  C7  UNL     1      26.592   3.245  49.866  1.00  0.00     0.001 A 
HETATM   14  C8  UNL     1      26.808   4.397  49.122  1.00  0.00     0.000 A 
HETATM   15  C9  UNL     1      25.779   5.299  49.050  1.00  0.00     0.001 A 
HETATM   16  C10 UNL     1      24.596   5.069  49.684  1.00  0.00     0.007 A 
ENDBRANCH  10  11
ENDBRANCH   9  10
ENDBRANCH   7   9
ENDBRANCH   3   7
BRANCH   1  17
HETATM   17  N1  UNL     1      19.846  -0.644  53.915  1.00  0.00    -0.231 N 
HETATM   18  H1  UNL     1      19.579  -1.070  54.816  1.00  0.00     0.174 HD
HETATM   19  H2  UNL     1      18.944  -0.537  53.382  1.00  0.00     0.174 HD
ENDBRANCH   1  17
BRANCH   5  20
HETATM   20  N4  UNL     1      24.670  -0.366  54.215  1.00  0.00    -0.340 N 
HETATM   21  H14 UNL     1      24.680  -1.108  54.956  1.00  0.00     0.167 HD
BRANCH  20  22
HETATM   22  C13 UNL     1      25.899   0.293  53.974  1.00  0.00     0.035 A 
HETATM   23  C14 UNL     1      26.081   1.648  53.833  1.00  0.00     0.029 A 
HETATM   24  C15 UNL     1      27.280   2.285  53.598  1.00  0.00     0.004 A 
HETATM   25  C16 UNL     1      28.401   1.490  53.496  1.00  0.00     0.019 A 
HETATM   26  C17 UNL     1      28.289   0.132  53.627  1.00  0.00     0.013 A 
HETATM   27 BR1  UNL     1      29.843  -0.963  53.486  1.00  0.00    -0.051 Br
HETATM   28  C18 UNL     1      27.065  -0.432  53.860  1.00  0.00     0.048 A 
ENDBRANCH  20  22
ENDBRANCH   5  20
TORSDOF 7
ENDMDL
