MODEL 1
REMARK VINA RESULT:     -10.0      0.000      0.000
REMARK  4 active torsions:
REMARK  status: ('A' for Active; 'I' for Inactive)
REMARK    1  A    between atoms: C8_10  and  N1_11 
REMARK    2  A    between atoms: C11_14  and  O2_15 
REMARK    3  A    between atoms: O2_15  and  C12_16 
REMARK    4  A    between atoms: C16_20  and  C17_21 
ROOT
HETATM    1  N1  UNL     1      25.458   2.174  52.808  1.00  0.00    -0.249 N 
HETATM    2  C9  UNL     1      25.502   1.910  51.377  1.00  0.00     0.117 A 
HETATM    3  C10 UNL     1      24.591   2.388  50.589  1.00  0.00     0.030 A 
HETATM    4  C11 UNL     1      23.430   3.243  51.062  1.00  0.00     0.194 A 
HETATM    5  C25 UNL     1      23.502   3.432  52.507  1.00  0.00     0.148 A 
HETATM    6  N3  UNL     1      24.418   2.953  53.323  1.00  0.00    -0.182 NA
ENDROOT
BRANCH   4   7
HETATM    7  O2  UNL     1      23.361   4.367  50.272  1.00  0.00    -0.344 OA
BRANCH   7   8
HETATM    8  C12 UNL     1      24.012   5.518  50.194  1.00  0.00     0.045 A 
HETATM    9  C13 UNL     1      23.542   6.828  50.162  1.00  0.00     0.087 A 
HETATM   10  C14 UNL     1      24.518   7.758  50.095  1.00  0.00     0.047 A 
HETATM   11  C17 UNL     1      25.184   6.243  50.113  1.00  0.00     0.041 A 
HETATM   12  C15 UNL     1      25.497   8.668  50.030  1.00  0.00    -0.015 A 
HETATM   13  N2  UNL     1      23.584   8.772  49.651  1.00  0.00    -0.409 N 
HETATM   14  C16 UNL     1      25.890   7.352  50.051  1.00  0.00     0.054 A 
HETATM   15  C24 UNL     1      23.376   8.829  48.237  1.00  0.00     0.118 C 
HETATM   16  H23 UNL     1      23.019   9.486  50.209  1.00  0.00     0.154 HD
HETATM   17  C23 UNL     1      24.437   9.422  47.368  1.00  0.00     0.046 C 
HETATM   18  C22 UNL     1      25.732   8.762  47.249  1.00  0.00    -0.025 C 
HETATM   19  C21 UNL     1      26.861   8.046  47.237  1.00  0.00    -0.004 C 
HETATM   20  C20 UNL     1      27.399   6.781  47.832  1.00  0.00    -0.004 C 
HETATM   21  C19 UNL     1      27.180   5.726  48.652  1.00  0.00    -0.025 C 
HETATM   22  C18 UNL     1      26.115   5.174  49.581  1.00  0.00     0.046 C 
ENDBRANCH   7   8
ENDBRANCH   4   7
BRANCH   1  23
HETATM   23  C8  UNL     1      26.585   1.482  53.347  1.00  0.00     0.050 C 
HETATM   24  C3  UNL     1      26.296   0.045  53.617  1.00  0.00     0.052 A 
HETATM   25  C2  UNL     1      24.911  -0.353  53.411  1.00  0.00     0.029 A 
HETATM   26  C4  UNL     1      27.338  -0.894  53.028  1.00  0.00     0.195 C 
HETATM   27  C26 UNL     1      26.138  -0.293  55.070  1.00  0.00     0.092 A 
HETATM   28  C1  UNL     1      24.767  -0.659  54.683  1.00  0.00     0.092 A 
HETATM   29  F1  UNL     1      23.719  -1.142  55.417  1.00  0.00    -0.211 F 
HETATM   30  O1  UNL     1      28.441  -0.838  53.895  1.00  0.00    -0.362 OA
HETATM   31  C5  UNL     1      29.217   0.302  54.177  1.00  0.00     0.134 C 
HETATM   32  C6  UNL     1      28.988   1.592  54.057  1.00  0.00     0.026 C 
HETATM   33  C7  UNL     1      27.714   2.116  53.534  1.00  0.00     0.030 C 
ENDBRANCH   1  23
TORSDOF 4
ENDMDL
MODEL 2
REMARK VINA RESULT:     -10.0      1.234      2.005
REMARK  4 active torsions:
REMARK  status: ('A' for Active; 'I' for Inactive)
REMARK    1  A    between atoms: C8_10  and  N1_11 
REMARK    2  A    between atoms: C11_14  and  O2_15 
REMARK    3  A    between atoms: O2_15  and  C12_16 
REMARK    4  A    between atoms: C16_20  and  C17_21 
ROOT
HETATM    1  N1  UNL     1      25.519   2.335  52.784  1.00  0.00    -0.249 N 
HETATM    2  C9  UNL     1      25.744   2.435  51.349  1.00  0.00     0.117 A 
HETATM    3  C10 UNL     1      24.979   3.175  50.610  1.00  0.00     0.030 A 
HETATM    4  C11 UNL     1      23.814   3.985  51.149  1.00  0.00     0.194 A 
HETATM    5  C25 UNL     1      23.697   3.798  52.591  1.00  0.00     0.148 A 
HETATM    6  N3  UNL     1      24.464   3.050  53.357  1.00  0.00    -0.182 NA
ENDROOT
BRANCH   4   7
HETATM    7  O2  UNL     1      23.917   5.272  50.676  1.00  0.00    -0.344 OA
BRANCH   7   8
HETATM    8  C12 UNL     1      24.718   5.918  49.841  1.00  0.00     0.045 A 
HETATM    9  C13 UNL     1      25.920   6.582  50.066  1.00  0.00     0.087 A 
HETATM   10  C14 UNL     1      26.467   7.116  48.953  1.00  0.00     0.047 A 
HETATM   11  C17 UNL     1      25.041   6.367  48.576  1.00  0.00     0.041 A 
HETATM   12  C15 UNL     1      26.997   7.638  47.840  1.00  0.00    -0.015 A 
HETATM   13  N2  UNL     1      27.323   7.984  49.735  1.00  0.00    -0.409 N 
HETATM   14  C16 UNL     1      25.801   6.979  47.694  1.00  0.00     0.054 A 
HETATM   15  C24 UNL     1      26.743   9.240  50.102  1.00  0.00     0.118 C 
HETATM   16  H23 UNL     1      28.321   7.840  50.088  1.00  0.00     0.154 HD
HETATM   17  C23 UNL     1      26.601  10.307  49.066  1.00  0.00     0.046 C 
HETATM   18  C22 UNL     1      25.700  10.109  47.937  1.00  0.00    -0.025 C 
HETATM   19  C21 UNL     1      24.838   9.788  46.966  1.00  0.00    -0.004 C 
HETATM   20  C20 UNL     1      23.927   8.657  46.597  1.00  0.00    -0.004 C 
HETATM   21  C19 UNL     1      23.467   7.420  46.902  1.00  0.00    -0.025 C 
HETATM   22  C18 UNL     1      23.673   6.321  47.927  1.00  0.00     0.046 C 
ENDBRANCH   7   8
ENDBRANCH   4   7
BRANCH   1  23
HETATM   23  C8  UNL     1      26.520   1.431  53.254  1.00  0.00     0.050 C 
HETATM   24  C3  UNL     1      26.025   0.029  53.347  1.00  0.00     0.052 A 
HETATM   25  C2  UNL     1      24.605  -0.141  53.076  1.00  0.00     0.029 A 
HETATM   26  C4  UNL     1      26.943  -0.975  52.667  1.00  0.00     0.195 C 
HETATM   27  C26 UNL     1      25.775  -0.448  54.748  1.00  0.00     0.092 A 
HETATM   28  C1  UNL     1      24.380  -0.567  54.300  1.00  0.00     0.092 A 
HETATM   29  F1  UNL     1      23.251  -0.977  54.956  1.00  0.00    -0.211 F 
HETATM   30  O1  UNL     1      28.015  -1.177  53.550  1.00  0.00    -0.362 OA
HETATM   31  C5  UNL     1      28.934  -0.200  53.976  1.00  0.00     0.134 C 
HETATM   32  C6  UNL     1      28.891   1.115  54.007  1.00  0.00     0.026 C 
HETATM   33  C7  UNL     1      27.721   1.872  53.531  1.00  0.00     0.030 C 
ENDBRANCH   1  23
TORSDOF 4
ENDMDL
MODEL 3
REMARK VINA RESULT:      -9.9      3.446      7.845
REMARK  4 active torsions:
REMARK  status: ('A' for Active; 'I' for Inactive)
REMARK    1  A    between atoms: C8_10  and  N1_11 
REMARK    2  A    between atoms: C11_14  and  O2_15 
REMARK    3  A    between atoms: O2_15  and  C12_16 
REMARK    4  A    between atoms: C16_20  and  C17_21 
ROOT
HETATM    1  N1  UNL     1      22.599   3.131  50.897  1.00  0.00    -0.249 N 
HETATM    2  C9  UNL     1      23.439   2.644  49.812  1.00  0.00     0.117 A 
HETATM    3  C10 UNL     1      24.703   2.931  49.775  1.00  0.00     0.030 A 
HETATM    4  C11 UNL     1      25.407   3.770  50.824  1.00  0.00     0.194 A 
HETATM    5  C25 UNL     1      24.460   4.193  51.849  1.00  0.00     0.148 A 
HETATM    6  N3  UNL     1      23.174   3.913  51.902  1.00  0.00    -0.182 NA
ENDROOT
BRANCH   4   7
HETATM    7  O2  UNL     1      26.539   3.104  51.233  1.00  0.00    -0.344 OA
BRANCH   7   8
HETATM    8  C12 UNL     1      26.851   2.271  52.216  1.00  0.00     0.045 A 
HETATM    9  C13 UNL     1      27.947   2.249  53.074  1.00  0.00     0.087 A 
HETATM   10  C14 UNL     1      27.915   1.243  53.974  1.00  0.00     0.047 A 
HETATM   11  C17 UNL     1      26.581   1.168  53.000  1.00  0.00     0.041 A 
HETATM   12  C15 UNL     1      27.869   0.242  54.862  1.00  0.00    -0.015 A 
HETATM   13  N2  UNL     1      29.331   1.382  54.247  1.00  0.00    -0.409 N 
HETATM   14  C16 UNL     1      26.825   0.317  53.972  1.00  0.00     0.054 A 
HETATM   15  C24 UNL     1      30.193   0.637  53.382  1.00  0.00     0.118 C 
HETATM   16  H23 UNL     1      29.841   1.957  54.990  1.00  0.00     0.154 HD
HETATM   17  C23 UNL     1      30.301  -0.842  53.561  1.00  0.00     0.046 C 
HETATM   18  C22 UNL     1      29.145  -1.692  53.303  1.00  0.00    -0.025 C 
HETATM   19  C21 UNL     1      28.007  -2.340  53.027  1.00  0.00    -0.004 C 
HETATM   20  C20 UNL     1      26.619  -2.027  52.560  1.00  0.00    -0.004 C 
HETATM   21  C19 UNL     1      25.725  -1.074  52.205  1.00  0.00    -0.025 C 
HETATM   22  C18 UNL     1      25.614   0.435  52.093  1.00  0.00     0.046 C 
ENDBRANCH   7   8
ENDBRANCH   4   7
BRANCH   1  23
HETATM   23  C8  UNL     1      21.289   2.647  50.597  1.00  0.00     0.050 C 
HETATM   24  C3  UNL     1      20.806   1.652  51.595  1.00  0.00     0.052 A 
HETATM   25  C2  UNL     1      21.786   1.263  52.598  1.00  0.00     0.029 A 
HETATM   26  C4  UNL     1      19.417   1.968  52.128  1.00  0.00     0.195 C 
HETATM   27  C26 UNL     1      20.802   0.234  51.104  1.00  0.00     0.092 A 
HETATM   28  C1  UNL     1      21.781   0.016  52.178  1.00  0.00     0.092 A 
HETATM   29  F1  UNL     1      22.450  -1.109  52.577  1.00  0.00    -0.211 F 
HETATM   30  O1  UNL     1      18.519   1.565  51.127  1.00  0.00    -0.362 OA
HETATM   31  C5  UNL     1      18.444   2.087  49.822  1.00  0.00     0.134 C 
HETATM   32  C6  UNL     1      19.300   2.748  49.073  1.00  0.00     0.026 C 
HETATM   33  C7  UNL     1      20.649   3.099  49.548  1.00  0.00     0.030 C 
ENDBRANCH   1  23
TORSDOF 4
ENDMDL
MODEL 4
REMARK VINA RESULT:      -9.9      3.418      6.086
REMARK  4 active torsions:
REMARK  status: ('A' for Active; 'I' for Inactive)
REMARK    1  A    between atoms: C8_10  and  N1_11 
REMARK    2  A    between atoms: C11_14  and  O2_15 
REMARK    3  A    between atoms: O2_15  and  C12_16 
REMARK    4  A    between atoms: C16_20  and  C17_21 
ROOT
HETATM    1  N1  UNL     1      25.767   2.185  52.436  1.00  0.00    -0.249 N 
HETATM    2  C9  UNL     1      25.041   2.898  53.477  1.00  0.00     0.117 A 
HETATM    3  C10 UNL     1      24.104   3.739  53.172  1.00  0.00     0.030 A 
HETATM    4  C11 UNL     1      23.682   4.051  51.748  1.00  0.00     0.194 A 
HETATM    5  C25 UNL     1      24.482   3.275  50.806  1.00  0.00     0.148 A 
HETATM    6  N3  UNL     1      25.438   2.418  51.098  1.00  0.00    -0.182 NA
ENDROOT
BRANCH   4   7
HETATM    7  O2  UNL     1      22.313   3.949  51.663  1.00  0.00    -0.344 OA
BRANCH   7   8
HETATM    8  C12 UNL     1      21.454   3.099  51.121  1.00  0.00     0.045 A 
HETATM    9  C13 UNL     1      20.338   3.323  50.318  1.00  0.00     0.087 A 
HETATM   10  C14 UNL     1      19.705   2.193  49.936  1.00  0.00     0.047 A 
HETATM   11  C17 UNL     1      21.000   1.816  50.894  1.00  0.00     0.041 A 
HETATM   12  C15 UNL     1      19.088   1.064  49.565  1.00  0.00    -0.015 A 
HETATM   13  N2  UNL     1      18.509   2.930  49.582  1.00  0.00    -0.409 N 
HETATM   14  C16 UNL     1      20.191   0.919  50.372  1.00  0.00     0.054 A 
HETATM   15  C24 UNL     1      17.583   3.137  50.652  1.00  0.00     0.118 C 
HETATM   16  H23 UNL     1      18.205   3.350  48.648  1.00  0.00     0.154 HD
HETATM   17  C23 UNL     1      16.743   1.993  51.120  1.00  0.00     0.046 C 
HETATM   18  C22 UNL     1      17.372   0.842  51.756  1.00  0.00    -0.025 C 
HETATM   19  C21 UNL     1      18.086  -0.138  52.322  1.00  0.00    -0.004 C 
HETATM   20  C20 UNL     1      19.514  -0.440  52.658  1.00  0.00    -0.004 C 
HETATM   21  C19 UNL     1      20.807  -0.039  52.601  1.00  0.00    -0.025 C 
HETATM   22  C18 UNL     1      21.650   1.100  52.060  1.00  0.00     0.046 C 
ENDBRANCH   7   8
ENDBRANCH   4   7
BRANCH   1  23
HETATM   23  C8  UNL     1      26.720   1.381  53.133  1.00  0.00     0.050 C 
HETATM   24  C3  UNL     1      26.261  -0.026  53.306  1.00  0.00     0.052 A 
HETATM   25  C2  UNL     1      24.900  -0.288  52.862  1.00  0.00     0.029 A 
HETATM   26  C4  UNL     1      27.298  -1.050  52.869  1.00  0.00     0.195 C 
HETATM   27  C26 UNL     1      25.831  -0.370  54.702  1.00  0.00     0.092 A 
HETATM   28  C1  UNL     1      24.518  -0.598  54.083  1.00  0.00     0.092 A 
HETATM   29  F1  UNL     1      23.322  -0.991  54.618  1.00  0.00    -0.211 F 
HETATM   30  O1  UNL     1      28.240  -1.112  53.908  1.00  0.00    -0.362 OA
HETATM   31  C5  UNL     1      29.058  -0.055  54.349  1.00  0.00     0.134 C 
HETATM   32  C6  UNL     1      28.970   1.253  54.233  1.00  0.00     0.026 C 
HETATM   33  C7  UNL     1      27.855   1.902  53.522  1.00  0.00     0.030 C 
ENDBRANCH   1  23
TORSDOF 4
ENDMDL
MODEL 5
REMARK VINA RESULT:      -9.9      2.043      3.187
REMARK  4 active torsions:
REMARK  status: ('A' for Active; 'I' for Inactive)
REMARK    1  A    between atoms: C8_10  and  N1_11 
REMARK    2  A    between atoms: C11_14  and  O2_15 
REMARK    3  A    between atoms: O2_15  and  C12_16 
REMARK    4  A    between atoms: C16_20  and  C17_21 
ROOT
HETATM    1  N1  UNL     1      26.154   2.361  52.321  1.00  0.00    -0.249 N 
HETATM    2  C9  UNL     1      26.911   2.571  51.094  1.00  0.00     0.117 A 
HETATM    3  C10 UNL     1      26.463   3.357  50.168  1.00  0.00     0.030 A 
HETATM    4  C11 UNL     1      25.152   4.115  50.266  1.00  0.00     0.194 A 
HETATM    5  C25 UNL     1      24.495   3.819  51.534  1.00  0.00     0.148 A 
HETATM    6  N3  UNL     1      24.934   3.022  52.487  1.00  0.00    -0.182 NA
ENDROOT
BRANCH   4   7
HETATM    7  O2  UNL     1      25.383   5.435  49.955  1.00  0.00    -0.344 OA
BRANCH   7   8
HETATM    8  C12 UNL     1      26.226   6.096  49.176  1.00  0.00     0.045 A 
HETATM    9  C13 UNL     1      27.375   5.671  48.514  1.00  0.00     0.087 A 
HETATM   10  C14 UNL     1      27.977   6.638  47.789  1.00  0.00     0.047 A 
HETATM   11  C17 UNL     1      26.637   7.251  48.543  1.00  0.00     0.041 A 
HETATM   12  C15 UNL     1      28.561   7.607  47.074  1.00  0.00    -0.015 A 
HETATM   13  N2  UNL     1      29.211   5.883  47.723  1.00  0.00    -0.409 N 
HETATM   14  C16 UNL     1      27.428   7.960  47.766  1.00  0.00     0.054 A 
HETATM   15  C24 UNL     1      30.108   6.088  48.818  1.00  0.00     0.118 C 
HETATM   16  H23 UNL     1      29.562   5.192  46.989  1.00  0.00     0.154 HD
HETATM   17  C23 UNL     1      30.887   7.361  48.893  1.00  0.00     0.046 C 
HETATM   18  C22 UNL     1      30.194   8.627  49.096  1.00  0.00    -0.025 C 
HETATM   19  C21 UNL     1      29.424   9.704  49.289  1.00  0.00    -0.004 C 
HETATM   20  C20 UNL     1      27.975  10.033  49.478  1.00  0.00    -0.004 C 
HETATM   21  C19 UNL     1      26.702   9.575  49.535  1.00  0.00    -0.025 C 
HETATM   22  C18 UNL     1      25.922   8.282  49.390  1.00  0.00     0.046 C 
ENDBRANCH   7   8
ENDBRANCH   4   7
BRANCH   1  23
HETATM   23  C8  UNL     1      26.929   1.433  53.081  1.00  0.00     0.050 C 
HETATM   24  C3  UNL     1      26.293   0.089  53.160  1.00  0.00     0.052 A 
HETATM   25  C2  UNL     1      24.963   0.002  52.574  1.00  0.00     0.029 A 
HETATM   26  C4  UNL     1      27.242  -1.043  52.794  1.00  0.00     0.195 C 
HETATM   27  C26 UNL     1      25.684  -0.232  54.494  1.00  0.00     0.092 A 
HETATM   28  C1  UNL     1      24.424  -0.287  53.739  1.00  0.00     0.092 A 
HETATM   29  F1  UNL     1      23.141  -0.545  54.138  1.00  0.00    -0.211 F 
HETATM   30  O1  UNL     1      28.058  -1.241  53.919  1.00  0.00    -0.362 OA
HETATM   31  C5  UNL     1      28.945  -0.300  54.475  1.00  0.00     0.134 C 
HETATM   32  C6  UNL     1      29.023   1.011  54.396  1.00  0.00     0.026 C 
HETATM   33  C7  UNL     1      28.071   1.806  53.600  1.00  0.00     0.030 C 
ENDBRANCH   1  23
TORSDOF 4
ENDMDL
MODEL 6
REMARK VINA RESULT:      -9.6      3.423      5.000
REMARK  4 active torsions:
REMARK  status: ('A' for Active; 'I' for Inactive)
REMARK    1  A    between atoms: C8_10  and  N1_11 
REMARK    2  A    between atoms: C11_14  and  O2_15 
REMARK    3  A    between atoms: O2_15  and  C12_16 
REMARK    4  A    between atoms: C16_20  and  C17_21 
ROOT
HETATM    1  N1  UNL     1      20.092   2.596  51.021  1.00  0.00    -0.249 N 
HETATM    2  C9  UNL     1      20.423   2.195  49.661  1.00  0.00     0.117 A 
HETATM    3  C10 UNL     1      20.629   3.085  48.741  1.00  0.00     0.030 A 
HETATM    4  C11 UNL     1      20.552   4.581  48.983  1.00  0.00     0.194 A 
HETATM    5  C25 UNL     1      20.215   4.847  50.377  1.00  0.00     0.148 A 
HETATM    6  N3  UNL     1      20.001   3.958  51.324  1.00  0.00    -0.182 NA
ENDROOT
BRANCH   4   7
HETATM    7  O2  UNL     1      21.688   5.167  48.474  1.00  0.00    -0.344 OA
BRANCH   7   8
HETATM    8  C12 UNL     1      22.825   5.630  48.972  1.00  0.00     0.045 A 
HETATM    9  C13 UNL     1      23.426   6.880  48.854  1.00  0.00     0.087 A 
HETATM   10  C14 UNL     1      24.593   6.991  49.524  1.00  0.00     0.047 A 
HETATM   11  C17 UNL     1      23.975   5.470  49.719  1.00  0.00     0.041 A 
HETATM   12  C15 UNL     1      25.748   7.087  50.194  1.00  0.00    -0.015 A 
HETATM   13  N2  UNL     1      24.973   8.162  48.760  1.00  0.00    -0.409 N 
HETATM   14  C16 UNL     1      25.105   5.874  50.256  1.00  0.00     0.054 A 
HETATM   15  C24 UNL     1      25.655   7.892  47.532  1.00  0.00     0.118 C 
HETATM   16  H23 UNL     1      24.822   9.200  48.962  1.00  0.00     0.154 HD
HETATM   17  C23 UNL     1      27.083   7.454  47.575  1.00  0.00     0.046 C 
HETATM   18  C22 UNL     1      27.431   6.167  48.165  1.00  0.00    -0.025 C 
HETATM   19  C21 UNL     1      27.596   4.967  48.732  1.00  0.00    -0.004 C 
HETATM   20  C20 UNL     1      26.758   3.884  49.339  1.00  0.00    -0.004 C 
HETATM   21  C19 UNL     1      25.519   3.469  49.698  1.00  0.00    -0.025 C 
HETATM   22  C18 UNL     1      24.084   3.959  49.707  1.00  0.00     0.046 C 
ENDBRANCH   7   8
ENDBRANCH   4   7
BRANCH   1  23
HETATM   23  C8  UNL     1      19.915   1.372  51.736  1.00  0.00     0.050 C 
HETATM   24  C3  UNL     1      21.072   1.055  52.618  1.00  0.00     0.052 A 
HETATM   25  C2  UNL     1      22.206   1.960  52.495  1.00  0.00     0.029 A 
HETATM   26  C4  UNL     1      20.661   0.715  54.043  1.00  0.00     0.195 C 
HETATM   27  C26 UNL     1      21.951  -0.053  52.114  1.00  0.00     0.092 A 
HETATM   28  C1  UNL     1      22.984   0.992  52.060  1.00  0.00     0.092 A 
HETATM   29  F1  UNL     1      24.296   0.946  51.676  1.00  0.00    -0.211 F 
HETATM   30  O1  UNL     1      20.186  -0.606  54.002  1.00  0.00    -0.362 OA
HETATM   31  C5  UNL     1      19.074  -1.065  53.272  1.00  0.00     0.134 C 
HETATM   32  C6  UNL     1      18.428  -0.586  52.231  1.00  0.00     0.026 C 
HETATM   33  C7  UNL     1      18.815   0.680  51.584  1.00  0.00     0.030 C 
ENDBRANCH   1  23
TORSDOF 4
ENDMDL
MODEL 7
REMARK VINA RESULT:      -9.4      3.766      8.401
REMARK  4 active torsions:
REMARK  status: ('A' for Active; 'I' for Inactive)
REMARK    1  A    between atoms: C8_10  and  N1_11 
REMARK    2  A    between atoms: C11_14  and  O2_15 
REMARK    3  A    between atoms: O2_15  and  C12_16 
REMARK    4  A    between atoms: C16_20  and  C17_21 
ROOT
HETATM    1  N1  UNL     1      20.551   2.887  50.062  1.00  0.00    -0.249 N 
HETATM    2  C9  UNL     1      20.668   3.636  51.305  1.00  0.00     0.117 A 
HETATM    3  C10 UNL     1      20.859   3.023  52.430  1.00  0.00     0.030 A 
HETATM    4  C11 UNL     1      20.979   1.517  52.560  1.00  0.00     0.194 A 
HETATM    5  C25 UNL     1      20.845   0.887  51.251  1.00  0.00     0.148 A 
HETATM    6  N3  UNL     1      20.649   1.493  50.098  1.00  0.00    -0.182 NA
ENDROOT
BRANCH   4   7
HETATM    7  O2  UNL     1      22.103   1.227  53.299  1.00  0.00    -0.344 OA
BRANCH   7   8
HETATM    8  C12 UNL     1      23.308   0.738  53.047  1.00  0.00     0.045 A 
HETATM    9  C13 UNL     1      24.067  -0.205  53.734  1.00  0.00     0.087 A 
HETATM   10  C14 UNL     1      25.260  -0.470  53.160  1.00  0.00     0.047 A 
HETATM   11  C17 UNL     1      24.449   0.668  52.275  1.00  0.00     0.041 A 
HETATM   12  C15 UNL     1      26.439  -0.723  52.578  1.00  0.00    -0.015 A 
HETATM   13  N2  UNL     1      25.768  -1.061  54.381  1.00  0.00    -0.409 N 
HETATM   14  C16 UNL     1      25.642   0.210  51.960  1.00  0.00     0.054 A 
HETATM   15  C24 UNL     1      26.367  -0.142  55.299  1.00  0.00     0.118 C 
HETATM   16  H23 UNL     1      25.765  -2.077  54.712  1.00  0.00     0.154 HD
HETATM   17  C23 UNL     1      27.723   0.408  54.997  1.00  0.00     0.046 C 
HETATM   18  C22 UNL     1      27.914   1.280  53.845  1.00  0.00    -0.025 C 
HETATM   19  C21 UNL     1      27.935   2.066  52.763  1.00  0.00    -0.004 C 
HETATM   20  C20 UNL     1      26.980   2.596  51.738  1.00  0.00    -0.004 C 
HETATM   21  C19 UNL     1      25.709   2.615  51.268  1.00  0.00    -0.025 C 
HETATM   22  C18 UNL     1      24.354   1.995  51.550  1.00  0.00     0.046 C 
ENDBRANCH   7   8
ENDBRANCH   4   7
BRANCH   1  23
HETATM   23  C8  UNL     1      20.326   3.873  49.054  1.00  0.00     0.050 C 
HETATM   24  C3  UNL     1      21.469   3.989  48.105  1.00  0.00     0.052 A 
HETATM   25  C2  UNL     1      22.636   3.189  48.448  1.00  0.00     0.029 A 
HETATM   26  C4  UNL     1      21.043   3.929  46.646  1.00  0.00     0.195 C 
HETATM   27  C26 UNL     1      22.306   5.221  48.291  1.00  0.00     0.092 A 
HETATM   28  C1  UNL     1      23.378   4.265  48.605  1.00  0.00     0.092 A 
HETATM   29  F1  UNL     1      24.689   4.456  48.948  1.00  0.00    -0.211 F 
HETATM   30  O1  UNL     1      20.519   5.196  46.345  1.00  0.00    -0.362 OA
HETATM   31  C5  UNL     1      19.392   5.791  46.943  1.00  0.00     0.134 C 
HETATM   32  C6  UNL     1      18.766   5.579  48.080  1.00  0.00     0.026 C 
HETATM   33  C7  UNL     1      19.201   4.541  49.032  1.00  0.00     0.030 C 
ENDBRANCH   1  23
TORSDOF 4
ENDMDL
MODEL 8
REMARK VINA RESULT:      -9.3      4.868      7.567
REMARK  4 active torsions:
REMARK  status: ('A' for Active; 'I' for Inactive)
REMARK    1  A    between atoms: C8_10  and  N1_11 
REMARK    2  A    between atoms: C11_14  and  O2_15 
REMARK    3  A    between atoms: O2_15  and  C12_16 
REMARK    4  A    between atoms: C16_20  and  C17_21 
ROOT
HETATM    1  N1  UNL     1      23.731   1.707  52.039  1.00  0.00    -0.249 N 
HETATM    2  C9  UNL     1      23.072   2.736  52.830  1.00  0.00     0.117 A 
HETATM    3  C10 UNL     1      22.097   3.429  52.332  1.00  0.00     0.030 A 
HETATM    4  C11 UNL     1      21.561   3.240  50.925  1.00  0.00     0.194 A 
HETATM    5  C25 UNL     1      22.303   2.186  50.243  1.00  0.00     0.148 A 
HETATM    6  N3  UNL     1      23.297   1.473  50.732  1.00  0.00    -0.182 NA
ENDROOT
BRANCH   4   7
HETATM    7  O2  UNL     1      20.192   3.123  50.988  1.00  0.00    -0.344 OA
BRANCH   7   8
HETATM    8  C12 UNL     1      19.304   2.176  50.726  1.00  0.00     0.045 A 
HETATM    9  C13 UNL     1      18.075   2.238  50.075  1.00  0.00     0.087 A 
HETATM   10  C14 UNL     1      17.447   1.046  49.979  1.00  0.00     0.047 A 
HETATM   11  C17 UNL     1      18.884   0.862  50.778  1.00  0.00     0.041 A 
HETATM   12  C15 UNL     1      16.837  -0.142  49.890  1.00  0.00    -0.015 A 
HETATM   13  N2  UNL     1      16.179   1.686  49.696  1.00  0.00    -0.409 N 
HETATM   14  C16 UNL     1      18.051  -0.127  50.534  1.00  0.00     0.054 A 
HETATM   15  C24 UNL     1      15.409   2.046  50.847  1.00  0.00     0.118 C 
HETATM   16  H23 UNL     1      15.722   1.939  48.764  1.00  0.00     0.154 HD
HETATM   17  C23 UNL     1      14.702   0.976  51.613  1.00  0.00     0.046 C 
HETATM   18  C22 UNL     1      15.471  -0.040  52.322  1.00  0.00    -0.025 C 
HETATM   19  C21 UNL     1      16.305  -0.896  52.922  1.00  0.00    -0.004 C 
HETATM   20  C20 UNL     1      17.779  -1.106  53.083  1.00  0.00    -0.004 C 
HETATM   21  C19 UNL     1      19.029  -0.690  52.768  1.00  0.00    -0.025 C 
HETATM   22  C18 UNL     1      19.730   0.364  51.931  1.00  0.00     0.046 C 
ENDBRANCH   7   8
ENDBRANCH   4   7
BRANCH   1  23
HETATM   23  C8  UNL     1      24.752   1.182  52.890  1.00  0.00     0.050 C 
HETATM   24  C3  UNL     1      24.482  -0.223  53.305  1.00  0.00     0.052 A 
HETATM   25  C2  UNL     1      23.191  -0.750  52.886  1.00  0.00     0.029 A 
HETATM   26  C4  UNL     1      25.668  -1.150  53.082  1.00  0.00     0.195 C 
HETATM   27  C26 UNL     1      24.039  -0.374  54.731  1.00  0.00     0.092 A 
HETATM   28  C1  UNL     1      22.799  -0.892  54.134  1.00  0.00     0.092 A 
HETATM   29  F1  UNL     1      21.644  -1.352  54.706  1.00  0.00    -0.211 F 
HETATM   30  O1  UNL     1      26.560  -0.892  54.135  1.00  0.00    -0.362 OA
HETATM   31  C5  UNL     1      27.205   0.332  54.395  1.00  0.00     0.134 C 
HETATM   32  C6  UNL     1      26.945   1.572  54.043  1.00  0.00     0.026 C 
HETATM   33  C7  UNL     1      25.786   1.921  53.203  1.00  0.00     0.030 C 
ENDBRANCH   1  23
TORSDOF 4
ENDMDL
MODEL 9
REMARK VINA RESULT:      -9.1      1.720      2.612
REMARK  4 active torsions:
REMARK  status: ('A' for Active; 'I' for Inactive)
REMARK    1  A    between atoms: C8_10  and  N1_11 
REMARK    2  A    between atoms: C11_14  and  O2_15 
REMARK    3  A    between atoms: O2_15  and  C12_16 
REMARK    4  A    between atoms: C16_20  and  C17_21 
ROOT
HETATM    1  N1  UNL     1      26.003   2.349  52.475  1.00  0.00    -0.249 N 
HETATM    2  C9  UNL     1      26.637   2.611  51.191  1.00  0.00     0.117 A 
HETATM    3  C10 UNL     1      26.083   3.406  50.330  1.00  0.00     0.030 A 
HETATM    4  C11 UNL     1      24.766   4.120  50.568  1.00  0.00     0.194 A 
HETATM    5  C25 UNL     1      24.238   3.774  51.883  1.00  0.00     0.148 A 
HETATM    6  N3  UNL     1      24.785   2.968  52.769  1.00  0.00    -0.182 NA
ENDROOT
BRANCH   4   7
HETATM    7  O2  UNL     1      24.929   5.453  50.273  1.00  0.00    -0.344 OA
BRANCH   7   8
HETATM    8  C12 UNL     1      24.135   6.457  49.929  1.00  0.00     0.045 A 
HETATM    9  C13 UNL     1      22.931   6.891  50.478  1.00  0.00     0.087 A 
HETATM   10  C14 UNL     1      22.410   7.974  49.862  1.00  0.00     0.047 A 
HETATM   11  C17 UNL     1      23.825   7.535  49.126  1.00  0.00     0.041 A 
HETATM   12  C15 UNL     1      21.906   9.048  49.243  1.00  0.00    -0.015 A 
HETATM   13  N2  UNL     1      21.104   7.730  50.440  1.00  0.00    -0.409 N 
HETATM   14  C16 UNL     1      23.088   8.556  48.744  1.00  0.00     0.054 A 
HETATM   15  C24 UNL     1      20.263   6.848  49.692  1.00  0.00     0.118 C 
HETATM   16  H23 UNL     1      20.665   8.100  51.341  1.00  0.00     0.154 HD
HETATM   17  C23 UNL     1      19.619   7.345  48.439  1.00  0.00     0.046 C 
HETATM   18  C22 UNL     1      20.442   7.695  47.288  1.00  0.00    -0.025 C 
HETATM   19  C21 UNL     1      21.321   7.972  46.319  1.00  0.00    -0.004 C 
HETATM   20  C20 UNL     1      22.800   7.917  46.091  1.00  0.00    -0.004 C 
HETATM   21  C19 UNL     1      24.022   7.645  46.608  1.00  0.00    -0.025 C 
HETATM   22  C18 UNL     1      24.664   7.202  47.909  1.00  0.00     0.046 C 
ENDBRANCH   7   8
ENDBRANCH   4   7
BRANCH   1  23
HETATM   23  C8  UNL     1      26.871   1.427  53.136  1.00  0.00     0.050 C 
HETATM   24  C3  UNL     1      26.286   0.061  53.232  1.00  0.00     0.052 A 
HETATM   25  C2  UNL     1      24.912  -0.054  52.765  1.00  0.00     0.029 A 
HETATM   26  C4  UNL     1      27.231  -1.030  52.751  1.00  0.00     0.195 C 
HETATM   27  C26 UNL     1      25.809  -0.314  54.605  1.00  0.00     0.092 A 
HETATM   28  C1  UNL     1      24.488  -0.390  53.965  1.00  0.00     0.092 A 
HETATM   29  F1  UNL     1      23.255  -0.700  54.469  1.00  0.00    -0.211 F 
HETATM   30  O1  UNL     1      28.151  -1.229  53.792  1.00  0.00    -0.362 OA
HETATM   31  C5  UNL     1      29.055  -0.275  54.294  1.00  0.00     0.134 C 
HETATM   32  C6  UNL     1      29.087   1.039  54.246  1.00  0.00     0.026 C 
HETATM   33  C7  UNL     1      28.044   1.823  53.561  1.00  0.00     0.030 C 
ENDBRANCH   1  23
TORSDOF 4
ENDMDL
