MODEL 1
REMARK VINA RESULT:     -10.2      0.000      0.000
REMARK  1 active torsions:
REMARK  status: ('A' for Active; 'I' for Inactive)
REMARK    1  A    between atoms: C3_4  and  N1_5 
ROOT
HETATM    1  C1  UNL     1      20.004   3.608  52.039  1.00  0.00     0.064 C 
HETATM    2  C2  UNL     1      20.834   2.831  51.068  1.00  0.00     0.232 A 
HETATM    3  O1  UNL     1      21.754   3.732  50.481  1.00  0.00    -0.308 OA
HETATM    4  C3  UNL     1      23.014   3.238  50.783  1.00  0.00     0.175 A 
HETATM    5  C12 UNL     1      23.035   2.171  51.554  1.00  0.00     0.100 A 
HETATM    6  C13 UNL     1      23.852   1.266  52.175  1.00  0.00     0.012 A 
HETATM    7  C14 UNL     1      25.156   1.263  52.291  1.00  0.00    -0.040 C 
HETATM    8  C15 UNL     1      26.258   2.140  51.869  1.00  0.00     0.158 C 
HETATM    9  N2  UNL     1      27.032   2.261  53.137  1.00  0.00    -0.357 N 
HETATM   10  C16 UNL     1      26.773   1.115  53.933  1.00  0.00     0.221 C 
HETATM   11  O2  UNL     1      27.058   1.061  55.159  1.00  0.00    -0.273 OA
HETATM   12  C17 UNL     1      26.183   0.340  52.814  1.00  0.00     0.139 C 
HETATM   13  C18 UNL     1      22.956   0.389  52.737  1.00  0.00     0.004 A 
HETATM   14  C19 UNL     1      23.006  -0.747  53.505  1.00  0.00     0.014 A 
HETATM   15  C20 UNL     1      21.956  -1.490  53.984  1.00  0.00     0.001 A 
HETATM   16  C21 UNL     1      20.688  -1.056  53.664  1.00  0.00     0.002 A 
HETATM   17  C22 UNL     1      20.545   0.064  52.906  1.00  0.00     0.030 A 
HETATM   18  C23 UNL     1      21.657   0.781  52.446  1.00  0.00     0.048 A 
HETATM   19  N3  UNL     1      21.731   1.894  51.710  1.00  0.00    -0.314 N 
HETATM   20  H15 UNL     1      27.652   3.125  53.314  1.00  0.00     0.162 HD
ENDROOT
BRANCH   4  21
HETATM   21  N1  UNL     1      24.019   4.014  50.172  1.00  0.00    -0.325 N 
HETATM   22  C4  UNL     1      24.986   3.431  49.227  1.00  0.00     0.136 C 
HETATM   23  C5  UNL     1      26.087   4.437  49.157  1.00  0.00     0.061 C 
HETATM   24  C6  UNL     1      25.482   5.661  49.734  1.00  0.00    -0.030 A 
HETATM   25  C7  UNL     1      25.975   6.960  49.739  1.00  0.00     0.009 A 
HETATM   26  C11 UNL     1      24.253   5.419  50.339  1.00  0.00     0.042 A 
HETATM   27  C8  UNL     1      25.243   7.976  50.341  1.00  0.00     0.001 A 
HETATM   28  C9  UNL     1      24.024   7.733  50.940  1.00  0.00     0.002 A 
HETATM   29  C10 UNL     1      23.536   6.437  50.932  1.00  0.00     0.030 A 
ENDBRANCH   4  21
TORSDOF 1
ENDMDL
MODEL 2
REMARK VINA RESULT:      -9.8      2.346      5.745
REMARK  1 active torsions:
REMARK  status: ('A' for Active; 'I' for Inactive)
REMARK    1  A    between atoms: C3_4  and  N1_5 
ROOT
HETATM    1  C1  UNL     1      25.172   4.853  50.402  1.00  0.00     0.064 C 
HETATM    2  C2  UNL     1      25.464   3.413  50.118  1.00  0.00     0.232 A 
HETATM    3  O1  UNL     1      26.483   3.005  51.012  1.00  0.00    -0.308 OA
HETATM    4  C3  UNL     1      25.944   1.960  51.748  1.00  0.00     0.175 A 
HETATM    5  C12 UNL     1      24.681   1.684  51.500  1.00  0.00     0.100 A 
HETATM    6  C13 UNL     1      23.637   0.865  51.836  1.00  0.00     0.012 A 
HETATM    7  C14 UNL     1      23.547  -0.019  52.797  1.00  0.00    -0.040 C 
HETATM    8  C15 UNL     1      24.421  -0.502  53.877  1.00  0.00     0.158 C 
HETATM    9  N2  UNL     1      23.496  -0.444  55.044  1.00  0.00    -0.357 N 
HETATM   10  C16 UNL     1      22.163  -0.553  54.567  1.00  0.00     0.221 C 
HETATM   11  O2  UNL     1      21.163  -0.263  55.275  1.00  0.00    -0.273 OA
HETATM   12  C17 UNL     1      22.570  -1.040  53.225  1.00  0.00     0.139 C 
HETATM   13  C18 UNL     1      22.654   1.260  50.961  1.00  0.00     0.004 A 
HETATM   14  C19 UNL     1      21.351   0.923  50.694  1.00  0.00     0.014 A 
HETATM   15  C20 UNL     1      20.514   1.468  49.751  1.00  0.00     0.001 A 
HETATM   16  C21 UNL     1      21.030   2.476  48.968  1.00  0.00     0.002 A 
HETATM   17  C22 UNL     1      22.315   2.874  49.166  1.00  0.00     0.030 A 
HETATM   18  C23 UNL     1      23.121   2.280  50.145  1.00  0.00     0.048 A 
HETATM   19  N3  UNL     1      24.385   2.528  50.500  1.00  0.00    -0.314 N 
HETATM   20  H15 UNL     1      23.888  -0.333  56.042  1.00  0.00     0.162 HD
ENDROOT
BRANCH   4  21
HETATM   21  N1  UNL     1      26.905   1.410  52.620  1.00  0.00    -0.325 N 
HETATM   22  C4  UNL     1      27.594   2.226  53.633  1.00  0.00     0.136 C 
HETATM   23  C5  UNL     1      28.779   1.407  54.024  1.00  0.00     0.061 C 
HETATM   24  C6  UNL     1      28.452   0.052  53.518  1.00  0.00    -0.030 A 
HETATM   25  C7  UNL     1      29.096  -1.153  53.769  1.00  0.00     0.009 A 
HETATM   26  C11 UNL     1      27.340   0.044  52.683  1.00  0.00     0.042 A 
HETATM   27  C8  UNL     1      28.625  -2.324  53.189  1.00  0.00     0.001 A 
HETATM   28  C9  UNL     1      27.521  -2.328  52.362  1.00  0.00     0.002 A 
HETATM   29  C10 UNL     1      26.882  -1.125  52.114  1.00  0.00     0.030 A 
ENDBRANCH   4  21
TORSDOF 1
ENDMDL
MODEL 3
REMARK VINA RESULT:      -9.7      1.632      4.447
REMARK  1 active torsions:
REMARK  status: ('A' for Active; 'I' for Inactive)
REMARK    1  A    between atoms: C3_4  and  N1_5 
ROOT
HETATM    1  C1  UNL     1      25.902  -0.001  52.648  1.00  0.00     0.064 C 
HETATM    2  C2  UNL     1      25.175   1.093  53.362  1.00  0.00     0.232 A 
HETATM    3  O1  UNL     1      25.507   2.311  52.722  1.00  0.00    -0.308 OA
HETATM    4  C3  UNL     1      24.307   2.844  52.276  1.00  0.00     0.175 A 
HETATM    5  C12 UNL     1      23.244   2.094  52.479  1.00  0.00     0.100 A 
HETATM    6  C13 UNL     1      21.889   2.020  52.304  1.00  0.00     0.012 A 
HETATM    7  C14 UNL     1      21.090   2.814  51.637  1.00  0.00    -0.040 C 
HETATM    8  C15 UNL     1      21.241   4.032  50.827  1.00  0.00     0.158 C 
HETATM    9  N2  UNL     1      20.451   3.673  49.616  1.00  0.00    -0.357 N 
HETATM   10  C16 UNL     1      19.483   2.702  49.982  1.00  0.00     0.221 C 
HETATM   11  O2  UNL     1      18.860   2.010  49.134  1.00  0.00    -0.273 OA
HETATM   12  C17 UNL     1      19.633   2.947  51.438  1.00  0.00     0.139 C 
HETATM   13  C18 UNL     1      21.569   0.842  52.934  1.00  0.00     0.004 A 
HETATM   14  C19 UNL     1      20.439   0.101  53.169  1.00  0.00     0.014 A 
HETATM   15  C20 UNL     1      20.337  -1.096  53.834  1.00  0.00     0.001 A 
HETATM   16  C21 UNL     1      21.502  -1.634  54.333  1.00  0.00     0.002 A 
HETATM   17  C22 UNL     1      22.671  -0.966  54.144  1.00  0.00     0.030 A 
HETATM   18  C23 UNL     1      22.713   0.254  53.456  1.00  0.00     0.048 A 
HETATM   19  N3  UNL     1      23.743   1.051  53.159  1.00  0.00    -0.314 N 
HETATM   20  H15 UNL     1      20.670   4.138  48.668  1.00  0.00     0.162 HD
ENDROOT
BRANCH   4  21
HETATM   21  N1  UNL     1      24.505   4.110  51.692  1.00  0.00    -0.325 N 
HETATM   22  C4  UNL     1      23.782   5.305  52.158  1.00  0.00     0.136 C 
HETATM   23  C5  UNL     1      23.943   6.291  51.050  1.00  0.00     0.061 C 
HETATM   24  C6  UNL     1      25.059   5.738  50.246  1.00  0.00    -0.030 A 
HETATM   25  C7  UNL     1      25.771   6.334  49.213  1.00  0.00     0.009 A 
HETATM   26  C11 UNL     1      25.400   4.443  50.621  1.00  0.00     0.042 A 
HETATM   27  C8  UNL     1      26.793   5.635  48.583  1.00  0.00     0.001 A 
HETATM   28  C9  UNL     1      27.129   4.351  48.957  1.00  0.00     0.002 A 
HETATM   29  C10 UNL     1      26.417   3.760  49.988  1.00  0.00     0.030 A 
ENDBRANCH   4  21
TORSDOF 1
ENDMDL
MODEL 4
REMARK VINA RESULT:      -9.4      2.195      4.714
REMARK  1 active torsions:
REMARK  status: ('A' for Active; 'I' for Inactive)
REMARK    1  A    between atoms: C3_4  and  N1_5 
ROOT
HETATM    1  C1  UNL     1      26.492   0.213  51.704  1.00  0.00     0.064 C 
HETATM    2  C2  UNL     1      25.806   1.371  52.359  1.00  0.00     0.232 A 
HETATM    3  O1  UNL     1      25.644   2.377  51.376  1.00  0.00    -0.308 OA
HETATM    4  C3  UNL     1      24.278   2.602  51.288  1.00  0.00     0.175 A 
HETATM    5  C12 UNL     1      23.525   1.820  52.032  1.00  0.00     0.100 A 
HETATM    6  C13 UNL     1      22.235   1.530  52.385  1.00  0.00     0.012 A 
HETATM    7  C14 UNL     1      21.113   1.986  51.891  1.00  0.00    -0.040 C 
HETATM    8  C15 UNL     1      20.730   2.921  50.821  1.00  0.00     0.158 C 
HETATM    9  N2  UNL     1      19.695   2.126  50.101  1.00  0.00    -0.357 N 
HETATM   10  C16 UNL     1      19.131   1.194  51.009  1.00  0.00     0.221 C 
HETATM   11  O2  UNL     1      18.439   0.211  50.632  1.00  0.00    -0.273 OA
HETATM   12  C17 UNL     1      19.676   1.873  52.211  1.00  0.00     0.139 C 
HETATM   13  C18 UNL     1      22.398   0.559  53.344  1.00  0.00     0.004 A 
HETATM   14  C19 UNL     1      21.591  -0.214  54.141  1.00  0.00     0.014 A 
HETATM   15  C20 UNL     1      21.969  -1.165  55.056  1.00  0.00     0.001 A 
HETATM   16  C21 UNL     1      23.321  -1.382  55.206  1.00  0.00     0.002 A 
HETATM   17  C22 UNL     1      24.194  -0.660  54.455  1.00  0.00     0.030 A 
HETATM   18  C23 UNL     1      23.748   0.298  53.536  1.00  0.00     0.048 A 
HETATM   19  N3  UNL     1      24.429   1.094  52.707  1.00  0.00    -0.314 N 
HETATM   20  H15 UNL     1      19.496   2.314  49.058  1.00  0.00     0.162 HD
ENDROOT
BRANCH   4  21
HETATM   21  N1  UNL     1      23.998   3.654  50.394  1.00  0.00    -0.325 N 
HETATM   22  C4  UNL     1      24.402   5.042  50.674  1.00  0.00     0.136 C 
HETATM   23  C5  UNL     1      23.575   5.864  49.741  1.00  0.00     0.061 C 
HETATM   24  C6  UNL     1      23.083   4.879  48.749  1.00  0.00    -0.030 A 
HETATM   25  C7  UNL     1      22.435   5.106  47.540  1.00  0.00     0.009 A 
HETATM   26  C11 UNL     1      23.330   3.564  49.127  1.00  0.00     0.042 A 
HETATM   27  C8  UNL     1      22.052   4.031  46.748  1.00  0.00     0.001 A 
HETATM   28  C9  UNL     1      22.299   2.728  47.126  1.00  0.00     0.002 A 
HETATM   29  C10 UNL     1      22.945   2.506  48.331  1.00  0.00     0.030 A 
ENDBRANCH   4  21
TORSDOF 1
ENDMDL
MODEL 5
REMARK VINA RESULT:      -9.4      1.489      4.063
REMARK  1 active torsions:
REMARK  status: ('A' for Active; 'I' for Inactive)
REMARK    1  A    between atoms: C3_4  and  N1_5 
ROOT
HETATM    1  C1  UNL     1      26.962  -0.404  52.499  1.00  0.00     0.064 C 
HETATM    2  C2  UNL     1      26.368   0.886  52.968  1.00  0.00     0.232 A 
HETATM    3  O1  UNL     1      26.683   1.872  52.003  1.00  0.00    -0.308 OA
HETATM    4  C3  UNL     1      25.467   2.360  51.550  1.00  0.00     0.175 A 
HETATM    5  C12 UNL     1      24.399   1.767  52.040  1.00  0.00     0.100 A 
HETATM    6  C13 UNL     1      23.031   1.749  52.020  1.00  0.00     0.012 A 
HETATM    7  C14 UNL     1      22.200   2.402  51.248  1.00  0.00    -0.040 C 
HETATM    8  C15 UNL     1      22.317   3.359  50.137  1.00  0.00     0.158 C 
HETATM    9  N2  UNL     1      21.382   2.761  49.142  1.00  0.00    -0.357 N 
HETATM   10  C16 UNL     1      20.418   1.989  49.839  1.00  0.00     0.221 C 
HETATM   11  O2  UNL     1      19.674   1.150  49.264  1.00  0.00    -0.273 OA
HETATM   12  C17 UNL     1      20.738   2.585  51.160  1.00  0.00     0.139 C 
HETATM   13  C18 UNL     1      22.730   0.796  52.963  1.00  0.00     0.004 A 
HETATM   14  C19 UNL     1      21.599   0.224  53.490  1.00  0.00     0.014 A 
HETATM   15  C20 UNL     1      21.516  -0.753  54.451  1.00  0.00     0.001 A 
HETATM   16  C21 UNL     1      22.704  -1.228  54.961  1.00  0.00     0.002 A 
HETATM   17  C22 UNL     1      23.875  -0.717  54.494  1.00  0.00     0.030 A 
HETATM   18  C23 UNL     1      23.896   0.280  53.511  1.00  0.00     0.048 A 
HETATM   19  N3  UNL     1      24.922   0.898  52.920  1.00  0.00    -0.314 N 
HETATM   20  H15 UNL     1      21.517   2.951  48.089  1.00  0.00     0.162 HD
ENDROOT
BRANCH   4  21
HETATM   21  N1  UNL     1      25.656   3.418  50.638  1.00  0.00    -0.325 N 
HETATM   22  C4  UNL     1      26.413   3.242  49.388  1.00  0.00     0.136 C 
HETATM   23  C5  UNL     1      26.735   4.632  48.951  1.00  0.00     0.061 C 
HETATM   24  C6  UNL     1      25.809   5.473  49.746  1.00  0.00    -0.030 A 
HETATM   25  C7  UNL     1      25.523   6.827  49.611  1.00  0.00     0.009 A 
HETATM   26  C11 UNL     1      25.163   4.760  50.750  1.00  0.00     0.042 A 
HETATM   27  C8  UNL     1      24.613   7.431  50.469  1.00  0.00     0.001 A 
HETATM   28  C9  UNL     1      23.974   6.721  51.463  1.00  0.00     0.002 A 
HETATM   29  C10 UNL     1      24.261   5.373  51.595  1.00  0.00     0.030 A 
ENDBRANCH   4  21
TORSDOF 1
ENDMDL
MODEL 6
REMARK VINA RESULT:      -9.3      1.617      2.221
REMARK  1 active torsions:
REMARK  status: ('A' for Active; 'I' for Inactive)
REMARK    1  A    between atoms: C3_4  and  N1_5 
ROOT
HETATM    1  C1  UNL     1      20.057   1.471  53.656  1.00  0.00     0.064 C 
HETATM    2  C2  UNL     1      20.793   0.722  52.591  1.00  0.00     0.232 A 
HETATM    3  O1  UNL     1      20.966   1.603  51.497  1.00  0.00    -0.308 OA
HETATM    4  C3  UNL     1      22.336   1.702  51.304  1.00  0.00     0.175 A 
HETATM    5  C12 UNL     1      23.080   1.059  52.178  1.00  0.00     0.100 A 
HETATM    6  C13 UNL     1      24.368   0.769  52.540  1.00  0.00     0.012 A 
HETATM    7  C14 UNL     1      25.492   1.244  52.069  1.00  0.00    -0.040 C 
HETATM    8  C15 UNL     1      25.881   2.224  51.043  1.00  0.00     0.158 C 
HETATM    9  N2  UNL     1      26.874   3.046  51.792  1.00  0.00    -0.357 N 
HETATM   10  C16 UNL     1      27.428   2.249  52.827  1.00  0.00     0.221 C 
HETATM   11  O2  UNL     1      28.080   2.739  53.787  1.00  0.00    -0.273 OA
HETATM   12  C17 UNL     1      26.932   0.973  52.256  1.00  0.00     0.139 C 
HETATM   13  C18 UNL     1      24.195  -0.092  53.597  1.00  0.00     0.004 A 
HETATM   14  C19 UNL     1      24.994  -0.787  54.469  1.00  0.00     0.014 A 
HETATM   15  C20 UNL     1      24.607  -1.612  55.496  1.00  0.00     0.001 A 
HETATM   16  C21 UNL     1      23.252  -1.774  55.688  1.00  0.00     0.002 A 
HETATM   17  C22 UNL     1      22.386  -1.120  54.868  1.00  0.00     0.030 A 
HETATM   18  C23 UNL     1      22.842  -0.290  53.836  1.00  0.00     0.048 A 
HETATM   19  N3  UNL     1      22.168   0.437  52.942  1.00  0.00    -0.314 N 
HETATM   20  H15 UNL     1      27.056   4.069  51.506  1.00  0.00     0.162 HD
ENDROOT
BRANCH   4  21
HETATM   21  N1  UNL     1      22.629   2.494  50.175  1.00  0.00    -0.325 N 
HETATM   22  C4  UNL     1      22.429   1.999  48.804  1.00  0.00     0.136 C 
HETATM   23  C5  UNL     1      23.229   2.929  47.954  1.00  0.00     0.061 C 
HETATM   24  C6  UNL     1      23.479   4.089  48.842  1.00  0.00    -0.030 A 
HETATM   25  C7  UNL     1      24.000   5.337  48.523  1.00  0.00     0.009 A 
HETATM   26  C11 UNL     1      23.125   3.840  50.164  1.00  0.00     0.042 A 
HETATM   27  C8  UNL     1      24.155   6.297  49.516  1.00  0.00     0.001 A 
HETATM   28  C9  UNL     1      23.802   6.047  50.826  1.00  0.00     0.002 A 
HETATM   29  C10 UNL     1      23.283   4.801  51.140  1.00  0.00     0.030 A 
ENDBRANCH   4  21
TORSDOF 1
ENDMDL
MODEL 7
REMARK VINA RESULT:      -9.1      4.991      7.718
REMARK  1 active torsions:
REMARK  status: ('A' for Active; 'I' for Inactive)
REMARK    1  A    between atoms: C3_4  and  N1_5 
ROOT
HETATM    1  C1  UNL     1      24.335   8.827  49.508  1.00  0.00     0.064 C 
HETATM    2  C2  UNL     1      24.855   8.330  48.196  1.00  0.00     0.232 A 
HETATM    3  O1  UNL     1      25.671   9.350  47.651  1.00  0.00    -0.308 OA
HETATM    4  C3  UNL     1      26.928   8.786  47.496  1.00  0.00     0.175 A 
HETATM    5  C12 UNL     1      27.056   7.553  47.938  1.00  0.00     0.100 A 
HETATM    6  C13 UNL     1      27.931   6.512  48.086  1.00  0.00     0.012 A 
HETATM    7  C14 UNL     1      29.221   6.470  47.871  1.00  0.00    -0.040 C 
HETATM    8  C15 UNL     1      30.252   7.422  47.428  1.00  0.00     0.158 C 
HETATM    9  N2  UNL     1      31.310   7.198  48.453  1.00  0.00    -0.357 N 
HETATM   10  C16 UNL     1      31.167   5.884  48.968  1.00  0.00     0.221 C 
HETATM   11  O2  UNL     1      31.730   5.505  50.030  1.00  0.00    -0.273 OA
HETATM   12  C17 UNL     1      30.275   5.436  47.870  1.00  0.00     0.139 C 
HETATM   13  C18 UNL     1      27.134   5.522  48.607  1.00  0.00     0.004 A 
HETATM   14  C19 UNL     1      27.284   4.222  49.022  1.00  0.00     0.014 A 
HETATM   15  C20 UNL     1      26.327   3.385  49.540  1.00  0.00     0.001 A 
HETATM   16  C21 UNL     1      25.054   3.895  49.665  1.00  0.00     0.002 A 
HETATM   17  C22 UNL     1      24.815   5.176  49.278  1.00  0.00     0.030 A 
HETATM   18  C23 UNL     1      25.833   5.984  48.757  1.00  0.00     0.048 A 
HETATM   19  N3  UNL     1      25.810   7.251  48.335  1.00  0.00    -0.314 N 
HETATM   20  H15 UNL     1      32.014   7.981  48.686  1.00  0.00     0.162 HD
ENDROOT
BRANCH   4  21
HETATM   21  N1  UNL     1      27.813   9.691  46.875  1.00  0.00    -0.325 N 
HETATM   22  C4  UNL     1      27.716  10.015  45.442  1.00  0.00     0.136 C 
HETATM   23  C5  UNL     1      29.033  10.635  45.114  1.00  0.00     0.061 C 
HETATM   24  C6  UNL     1      29.601  10.978  46.439  1.00  0.00    -0.030 A 
HETATM   25  C7  UNL     1      30.714  11.754  46.739  1.00  0.00     0.009 A 
HETATM   26  C11 UNL     1      28.882  10.422  47.492  1.00  0.00     0.042 A 
HETATM   27  C8  UNL     1      31.081  11.955  48.064  1.00  0.00     0.001 A 
HETATM   28  C9  UNL     1      30.366  11.403  49.105  1.00  0.00     0.002 A 
HETATM   29  C10 UNL     1      29.257  10.630  48.802  1.00  0.00     0.030 A 
ENDBRANCH   4  21
TORSDOF 1
ENDMDL
MODEL 8
REMARK VINA RESULT:      -9.0      1.769      2.040
REMARK  1 active torsions:
REMARK  status: ('A' for Active; 'I' for Inactive)
REMARK    1  A    between atoms: C3_4  and  N1_5 
ROOT
HETATM    1  C1  UNL     1      18.231   2.269  52.146  1.00  0.00     0.064 C 
HETATM    2  C2  UNL     1      19.125   1.608  51.145  1.00  0.00     0.232 A 
HETATM    3  O1  UNL     1      19.631   2.621  50.296  1.00  0.00    -0.308 OA
HETATM    4  C3  UNL     1      21.011   2.569  50.425  1.00  0.00     0.175 A 
HETATM    5  C12 UNL     1      21.465   1.702  51.305  1.00  0.00     0.100 A 
HETATM    6  C13 UNL     1      22.599   1.191  51.876  1.00  0.00     0.012 A 
HETATM    7  C14 UNL     1      23.842   1.582  51.756  1.00  0.00    -0.040 C 
HETATM    8  C15 UNL     1      24.550   2.652  51.038  1.00  0.00     0.158 C 
HETATM    9  N2  UNL     1      25.410   3.207  52.121  1.00  0.00    -0.357 N 
HETATM   10  C16 UNL     1      25.629   2.190  53.086  1.00  0.00     0.221 C 
HETATM   11  O2  UNL     1      26.079   2.431  54.238  1.00  0.00    -0.273 OA
HETATM   12  C17 UNL     1      25.166   1.097  52.195  1.00  0.00     0.139 C 
HETATM   13  C18 UNL     1      22.104   0.203  52.693  1.00  0.00     0.004 A 
HETATM   14  C19 UNL     1      22.607  -0.721  53.573  1.00  0.00     0.014 A 
HETATM   15  C20 UNL     1      21.914  -1.640  54.321  1.00  0.00     0.001 A 
HETATM   16  C21 UNL     1      20.544  -1.651  54.183  1.00  0.00     0.002 A 
HETATM   17  C22 UNL     1      19.960  -0.766  53.332  1.00  0.00     0.030 A 
HETATM   18  C23 UNL     1      20.721   0.150  52.594  1.00  0.00     0.048 A 
HETATM   19  N3  UNL     1      20.346   1.093  51.725  1.00  0.00    -0.314 N 
HETATM   20  H15 UNL     1      25.748   4.230  52.076  1.00  0.00     0.162 HD
ENDROOT
BRANCH   4  21
HETATM   21  N1  UNL     1      21.633   3.484  49.553  1.00  0.00    -0.325 N 
HETATM   22  C4  UNL     1      22.058   3.101  48.196  1.00  0.00     0.136 C 
HETATM   23  C5  UNL     1      23.014   4.174  47.791  1.00  0.00     0.061 C 
HETATM   24  C6  UNL     1      22.748   5.265  48.759  1.00  0.00    -0.030 A 
HETATM   25  C7  UNL     1      23.200   6.579  48.740  1.00  0.00     0.009 A 
HETATM   26  C11 UNL     1      21.928   4.865  49.809  1.00  0.00     0.042 A 
HETATM   27  C8  UNL     1      22.831   7.453  49.755  1.00  0.00     0.001 A 
HETATM   28  C9  UNL     1      22.017   7.052  50.794  1.00  0.00     0.002 A 
HETATM   29  C10 UNL     1      21.569   5.742  50.810  1.00  0.00     0.030 A 
ENDBRANCH   4  21
TORSDOF 1
ENDMDL
MODEL 9
REMARK VINA RESULT:      -9.0      2.093      5.225
REMARK  1 active torsions:
REMARK  status: ('A' for Active; 'I' for Inactive)
REMARK    1  A    between atoms: C3_4  and  N1_5 
ROOT
HETATM    1  C1  UNL     1      22.086   0.012  54.193  1.00  0.00     0.064 C 
HETATM    2  C2  UNL     1      22.479  -0.245  52.773  1.00  0.00     0.232 A 
HETATM    3  O1  UNL     1      21.422   0.214  51.951  1.00  0.00    -0.308 OA
HETATM    4  C3  UNL     1      21.975   1.183  51.128  1.00  0.00     0.175 A 
HETATM    5  C12 UNL     1      23.239   1.469  51.358  1.00  0.00     0.100 A 
HETATM    6  C13 UNL     1      24.291   2.248  50.960  1.00  0.00     0.012 A 
HETATM    7  C14 UNL     1      24.318   3.237  50.103  1.00  0.00    -0.040 C 
HETATM    8  C15 UNL     1      23.337   3.929  49.253  1.00  0.00     0.158 C 
HETATM    9  N2  UNL     1      23.643   5.355  49.561  1.00  0.00    -0.357 N 
HETATM   10  C16 UNL     1      24.993   5.443  49.988  1.00  0.00     0.221 C 
HETATM   11  O2  UNL     1      25.456   6.457  50.575  1.00  0.00    -0.273 OA
HETATM   12  C17 UNL     1      25.352   4.093  49.487  1.00  0.00     0.139 C 
HETATM   13  C18 UNL     1      25.317   1.795  51.754  1.00  0.00     0.004 A 
HETATM   14  C19 UNL     1      26.645   2.082  51.943  1.00  0.00     0.014 A 
HETATM   15  C20 UNL     1      27.518   1.497  52.826  1.00  0.00     0.001 A 
HETATM   16  C21 UNL     1      27.017   0.496  53.628  1.00  0.00     0.002 A 
HETATM   17  C22 UNL     1      25.708   0.147  53.508  1.00  0.00     0.030 A 
HETATM   18  C23 UNL     1      24.864   0.781  52.587  1.00  0.00     0.048 A 
HETATM   19  N3  UNL     1      23.568   0.597  52.323  1.00  0.00    -0.314 N 
HETATM   20  H15 UNL     1      22.882   6.110  49.446  1.00  0.00     0.162 HD
ENDROOT
BRANCH   4  21
HETATM   21  N1  UNL     1      21.026   1.656  50.199  1.00  0.00    -0.325 N 
HETATM   22  C4  UNL     1      21.080   1.287  48.775  1.00  0.00     0.136 C 
HETATM   23  C5  UNL     1      20.209   2.293  48.099  1.00  0.00     0.061 C 
HETATM   24  C6  UNL     1      19.425   2.882  49.211  1.00  0.00    -0.030 A 
HETATM   25  C7  UNL     1      18.321   3.723  49.151  1.00  0.00     0.009 A 
HETATM   26  C11 UNL     1      19.903   2.509  50.462  1.00  0.00     0.042 A 
HETATM   27  C8  UNL     1      17.725   4.169  50.325  1.00  0.00     0.001 A 
HETATM   28  C9  UNL     1      18.202   3.796  51.565  1.00  0.00     0.002 A 
HETATM   29  C10 UNL     1      19.303   2.958  51.620  1.00  0.00     0.030 A 
ENDBRANCH   4  21
TORSDOF 1
ENDMDL
