MODEL 1
REMARK VINA RESULT:      -7.4      0.000      0.000
REMARK  5 active torsions:
REMARK  status: ('A' for Active; 'I' for Inactive)
REMARK    1  A    between atoms: O1_2  and  C2_3 
REMARK    2  A    between atoms: C5_6  and  N1_7 
REMARK       I    between atoms: N1_7  and  C6_8 
REMARK       I    between atoms: C6_8  and  N2_10 
REMARK    3  A    between atoms: N2_10  and  C7_11 
REMARK    4  A    between atoms: C16_23  and  O4_24 
REMARK    5  A    between atoms: C16_23  and  O5_26 
ROOT
HETATM    1  C7  UNL     1      22.427   4.275  51.076  1.00  0.00     0.051 A 
HETATM    2  C8  UNL     1      21.696   5.139  51.733  1.00  0.00     0.005 A 
HETATM    3  C9  UNL     1      22.068   6.303  50.938  1.00  0.00     0.080 A 
HETATM    4  C10 UNL     1      22.898   5.346  50.183  1.00  0.00     0.174 A 
HETATM    5  O3  UNL     1      24.277   5.492  50.220  1.00  0.00    -0.310 OA
HETATM    6  C11 UNL     1      24.943   6.439  49.452  1.00  0.00     0.174 A 
HETATM    7  N3  UNL     1      26.046   7.040  49.756  1.00  0.00    -0.218 NA
HETATM    8  C12 UNL     1      26.546   7.981  48.806  1.00  0.00     0.229 A 
HETATM    9  N4  UNL     1      25.984   8.268  47.683  1.00  0.00    -0.278 NA
HETATM   10  C13 UNL     1      24.753   7.683  47.205  1.00  0.00     0.193 A 
HETATM   11  C14 UNL     1      24.238   6.703  48.203  1.00  0.00     0.016 A 
HETATM   12  C15 UNL     1      23.106   6.114  47.846  1.00  0.00     0.057 C 
HETATM   13  C16 UNL     1      22.408   5.077  48.724  1.00  0.00     0.222 C 
ENDROOT
BRANCH   1  14
HETATM   14  N2  UNL     1      22.585   2.875  51.284  1.00  0.00    -0.309 N 
HETATM   15  C6  UNL     1      23.775   2.354  51.816  1.00  0.00     0.325 C 
HETATM   16  N1  UNL     1      23.988   0.951  52.047  1.00  0.00    -0.309 N 
HETATM   17  O2  UNL     1      24.759   3.079  52.137  1.00  0.00    -0.247 OA
HETATM   18  H6  UNL     1      23.197   0.296  51.797  1.00  0.00     0.170 HD
HETATM   19  H7  UNL     1      21.798   2.238  51.033  1.00  0.00     0.170 HD
BRANCH  16  20
HETATM   20  C5  UNL     1      25.244   0.558  52.593  1.00  0.00     0.036 A 
HETATM   21  C4  UNL     1      26.427   0.354  51.914  1.00  0.00     0.032 A 
HETATM   22  C3  UNL     1      27.553  -0.028  52.617  1.00  0.00     0.039 A 
HETATM   23  C2  UNL     1      27.494  -0.204  53.994  1.00  0.00     0.068 A 
HETATM   24  C20 UNL     1      26.310  -0.004  54.706  1.00  0.00     0.039 A 
HETATM   25  C19 UNL     1      25.208   0.375  53.978  1.00  0.00     0.032 A 
BRANCH  23  26
HETATM   26  O1  UNL     1      28.679  -0.589  54.611  1.00  0.00    -0.356 OA
HETATM   27  C1  UNL     1      29.791  -0.927  53.817  1.00  0.00     0.210 C 
ENDBRANCH  23  26
ENDBRANCH  16  20
ENDBRANCH   1  14
BRANCH  13  28
HETATM   28  O4  UNL     1      21.095   5.281  48.769  1.00  0.00    -0.354 OA
HETATM   29  C17 UNL     1      20.324   5.922  47.910  1.00  0.00     0.206 C 
ENDBRANCH  13  28
BRANCH  13  30
HETATM   30  O5  UNL     1      22.844   3.842  48.443  1.00  0.00    -0.354 OA
HETATM   31  C18 UNL     1      22.316   2.993  47.567  1.00  0.00     0.206 C 
ENDBRANCH  13  30
TORSDOF 5
ENDMDL
MODEL 2
REMARK VINA RESULT:      -7.3      1.875      2.346
REMARK  5 active torsions:
REMARK  status: ('A' for Active; 'I' for Inactive)
REMARK    1  A    between atoms: O1_2  and  C2_3 
REMARK    2  A    between atoms: C5_6  and  N1_7 
REMARK       I    between atoms: N1_7  and  C6_8 
REMARK       I    between atoms: C6_8  and  N2_10 
REMARK    3  A    between atoms: N2_10  and  C7_11 
REMARK    4  A    between atoms: C16_23  and  O4_24 
REMARK    5  A    between atoms: C16_23  and  O5_26 
ROOT
HETATM    1  C7  UNL     1      22.778   4.739  51.905  1.00  0.00     0.051 A 
HETATM    2  C8  UNL     1      21.491   4.509  51.986  1.00  0.00     0.005 A 
HETATM    3  C9  UNL     1      21.133   5.153  50.727  1.00  0.00     0.080 A 
HETATM    4  C10 UNL     1      22.579   5.422  50.617  1.00  0.00     0.174 A 
HETATM    5  O3  UNL     1      23.012   6.739  50.648  1.00  0.00    -0.310 OA
HETATM    6  C11 UNL     1      22.928   7.574  49.541  1.00  0.00     0.174 A 
HETATM    7  N3  UNL     1      22.767   8.856  49.553  1.00  0.00    -0.218 NA
HETATM    8  C12 UNL     1      22.709   9.507  48.284  1.00  0.00     0.229 A 
HETATM    9  N4  UNL     1      22.805   8.914  47.143  1.00  0.00    -0.278 NA
HETATM   10  C13 UNL     1      22.987   7.492  46.967  1.00  0.00     0.193 A 
HETATM   11  C14 UNL     1      23.045   6.821  48.297  1.00  0.00     0.016 A 
HETATM   12  C15 UNL     1      23.211   5.509  48.231  1.00  0.00     0.057 C 
HETATM   13  C16 UNL     1      23.298   4.629  49.478  1.00  0.00     0.222 C 
ENDROOT
BRANCH   1  14
HETATM   14  N2  UNL     1      23.821   4.390  52.810  1.00  0.00    -0.309 N 
HETATM   15  C6  UNL     1      24.393   3.108  52.791  1.00  0.00     0.325 C 
HETATM   16  N1  UNL     1      25.447   2.702  53.680  1.00  0.00    -0.309 N 
HETATM   17  O2  UNL     1      24.026   2.204  51.989  1.00  0.00    -0.247 OA
HETATM   18  H6  UNL     1      25.795   3.420  54.375  1.00  0.00     0.170 HD
HETATM   19  H7  UNL     1      24.155   5.106  53.491  1.00  0.00     0.170 HD
BRANCH  16  20
HETATM   20  C5  UNL     1      25.938   1.371  53.555  1.00  0.00     0.036 A 
HETATM   21  C4  UNL     1      25.280   0.201  53.874  1.00  0.00     0.032 A 
HETATM   22  C3  UNL     1      25.921  -1.008  53.682  1.00  0.00     0.039 A 
HETATM   23  C2  UNL     1      27.212  -1.045  53.172  1.00  0.00     0.068 A 
HETATM   24  C20 UNL     1      27.900   0.124  52.841  1.00  0.00     0.039 A 
HETATM   25  C19 UNL     1      27.236   1.310  53.043  1.00  0.00     0.032 A 
BRANCH  23  26
HETATM   26  O1  UNL     1      27.771  -2.308  53.016  1.00  0.00    -0.356 OA
HETATM   27  C1  UNL     1      29.144  -2.491  53.268  1.00  0.00     0.210 C 
ENDBRANCH  23  26
ENDBRANCH  16  20
ENDBRANCH   1  14
BRANCH  13  28
HETATM   28  O4  UNL     1      22.581   3.517  49.340  1.00  0.00    -0.354 OA
HETATM   29  C17 UNL     1      22.778   2.498  48.525  1.00  0.00     0.206 C 
ENDBRANCH  13  28
BRANCH  13  30
HETATM   30  O5  UNL     1      24.566   4.514  49.894  1.00  0.00    -0.354 OA
HETATM   31  C18 UNL     1      25.661   4.678  49.159  1.00  0.00     0.206 C 
ENDBRANCH  13  30
TORSDOF 5
ENDMDL
MODEL 3
REMARK VINA RESULT:      -7.2      2.580      8.500
REMARK  5 active torsions:
REMARK  status: ('A' for Active; 'I' for Inactive)
REMARK    1  A    between atoms: O1_2  and  C2_3 
REMARK    2  A    between atoms: C5_6  and  N1_7 
REMARK       I    between atoms: N1_7  and  C6_8 
REMARK       I    between atoms: C6_8  and  N2_10 
REMARK    3  A    between atoms: N2_10  and  C7_11 
REMARK    4  A    between atoms: C16_23  and  O4_24 
REMARK    5  A    between atoms: C16_23  and  O5_26 
ROOT
HETATM    1  C7  UNL     1      24.989   4.371  51.008  1.00  0.00     0.051 A 
HETATM    2  C8  UNL     1      25.672   3.956  49.971  1.00  0.00     0.005 A 
HETATM    3  C9  UNL     1      25.724   2.552  50.364  1.00  0.00     0.080 A 
HETATM    4  C10 UNL     1      24.953   2.999  51.539  1.00  0.00     0.174 A 
HETATM    5  O3  UNL     1      25.541   2.906  52.792  1.00  0.00    -0.310 OA
HETATM    6  C11 UNL     1      25.615   1.706  53.489  1.00  0.00     0.174 A 
HETATM    7  N3  UNL     1      26.538   1.355  54.322  1.00  0.00    -0.218 NA
HETATM    8  C12 UNL     1      26.404   0.066  54.921  1.00  0.00     0.229 A 
HETATM    9  N4  UNL     1      25.441  -0.759  54.693  1.00  0.00    -0.278 NA
HETATM   10  C13 UNL     1      24.341  -0.511  53.791  1.00  0.00     0.193 A 
HETATM   11  C14 UNL     1      24.489   0.836  53.170  1.00  0.00     0.016 A 
HETATM   12  C15 UNL     1      23.519   1.149  52.324  1.00  0.00     0.057 C 
HETATM   13  C16 UNL     1      23.479   2.482  51.579  1.00  0.00     0.222 C 
ENDROOT
BRANCH   1  14
HETATM   14  N2  UNL     1      24.540   5.683  51.333  1.00  0.00    -0.309 N 
HETATM   15  C6  UNL     1      23.490   6.284  50.620  1.00  0.00     0.325 C 
HETATM   16  N1  UNL     1      22.998   7.604  50.905  1.00  0.00    -0.309 N 
HETATM   17  O2  UNL     1      22.891   5.711  49.667  1.00  0.00    -0.247 OA
HETATM   18  H6  UNL     1      23.462   8.132  51.695  1.00  0.00     0.170 HD
HETATM   19  H7  UNL     1      25.006   6.194  52.114  1.00  0.00     0.170 HD
BRANCH  16  20
HETATM   20  C5  UNL     1      21.926   8.093  50.104  1.00  0.00     0.036 A 
HETATM   21  C4  UNL     1      20.584   7.804  50.232  1.00  0.00     0.032 A 
HETATM   22  C3  UNL     1      19.682   8.378  49.356  1.00  0.00     0.039 A 
HETATM   23  C2  UNL     1      20.124   9.237  48.358  1.00  0.00     0.068 A 
HETATM   24  C20 UNL     1      21.477   9.547  48.206  1.00  0.00     0.039 A 
HETATM   25  C19 UNL     1      22.348   8.960  49.093  1.00  0.00     0.032 A 
BRANCH  23  26
HETATM   26  O1  UNL     1      19.141   9.764  47.527  1.00  0.00    -0.356 OA
HETATM   27  C1  UNL     1      17.795   9.718  47.937  1.00  0.00     0.210 C 
ENDBRANCH  23  26
ENDBRANCH  16  20
ENDBRANCH   1  14
BRANCH  13  28
HETATM   28  O4  UNL     1      23.148   2.317  50.302  1.00  0.00    -0.354 OA
HETATM   29  C17 UNL     1      22.263   1.492  49.774  1.00  0.00     0.206 C 
ENDBRANCH  13  28
BRANCH  13  30
HETATM   30  O5  UNL     1      22.815   3.405  52.287  1.00  0.00    -0.354 OA
HETATM   31  C18 UNL     1      21.503   3.615  52.286  1.00  0.00     0.206 C 
ENDBRANCH  13  30
TORSDOF 5
ENDMDL
MODEL 4
REMARK VINA RESULT:      -7.2      2.125      3.300
REMARK  5 active torsions:
REMARK  status: ('A' for Active; 'I' for Inactive)
REMARK    1  A    between atoms: O1_2  and  C2_3 
REMARK    2  A    between atoms: C5_6  and  N1_7 
REMARK       I    between atoms: N1_7  and  C6_8 
REMARK       I    between atoms: C6_8  and  N2_10 
REMARK    3  A    between atoms: N2_10  and  C7_11 
REMARK    4  A    between atoms: C16_23  and  O4_24 
REMARK    5  A    between atoms: C16_23  and  O5_26 
ROOT
HETATM    1  C7  UNL     1      22.582   2.857  49.736  1.00  0.00     0.051 A 
HETATM    2  C8  UNL     1      22.704   2.586  48.461  1.00  0.00     0.005 A 
HETATM    3  C9  UNL     1      22.576   3.961  47.990  1.00  0.00     0.080 A 
HETATM    4  C10 UNL     1      22.437   4.288  49.422  1.00  0.00     0.174 A 
HETATM    5  O3  UNL     1      21.230   4.803  49.869  1.00  0.00    -0.310 OA
HETATM    6  C11 UNL     1      20.880   6.136  49.689  1.00  0.00     0.174 A 
HETATM    7  N3  UNL     1      19.686   6.607  49.542  1.00  0.00    -0.218 NA
HETATM    8  C12 UNL     1      19.569   8.019  49.370  1.00  0.00     0.229 A 
HETATM    9  N4  UNL     1      20.558   8.846  49.351  1.00  0.00    -0.278 NA
HETATM   10  C13 UNL     1      21.945   8.474  49.500  1.00  0.00     0.193 A 
HETATM   11  C14 UNL     1      22.057   6.998  49.679  1.00  0.00     0.016 A 
HETATM   12  C15 UNL     1      23.301   6.566  49.824  1.00  0.00     0.057 C 
HETATM   13  C16 UNL     1      23.638   5.089  50.021  1.00  0.00     0.222 C 
ENDROOT
BRANCH   1  14
HETATM   14  N2  UNL     1      22.605   1.979  50.857  1.00  0.00    -0.309 N 
HETATM   15  C6  UNL     1      23.820   1.522  51.391  1.00  0.00     0.325 C 
HETATM   16  N1  UNL     1      23.902   0.636  52.520  1.00  0.00    -0.309 N 
HETATM   17  O2  UNL     1      24.945   1.854  50.920  1.00  0.00    -0.247 OA
HETATM   18  H6  UNL     1      22.990   0.325  52.956  1.00  0.00     0.170 HD
HETATM   19  H7  UNL     1      21.699   1.679  51.279  1.00  0.00     0.170 HD
BRANCH  16  20
HETATM   20  C5  UNL     1      25.201   0.250  52.960  1.00  0.00     0.036 A 
HETATM   21  C4  UNL     1      25.991  -0.762  52.456  1.00  0.00     0.032 A 
HETATM   22  C3  UNL     1      27.233  -0.992  53.015  1.00  0.00     0.039 A 
HETATM   23  C2  UNL     1      27.682  -0.212  54.073  1.00  0.00     0.068 A 
HETATM   24  C20 UNL     1      26.902   0.818  54.603  1.00  0.00     0.039 A 
HETATM   25  C19 UNL     1      25.672   1.022  54.025  1.00  0.00     0.032 A 
BRANCH  23  26
HETATM   26  O1  UNL     1      28.944  -0.521  54.567  1.00  0.00    -0.356 OA
HETATM   27  C1  UNL     1      29.938  -0.975  53.680  1.00  0.00     0.210 C 
ENDBRANCH  23  26
ENDBRANCH  16  20
ENDBRANCH   1  14
BRANCH  13  28
HETATM   28  O4  UNL     1      24.683   4.725  49.283  1.00  0.00    -0.354 OA
HETATM   29  C17 UNL     1      25.968   4.927  49.508  1.00  0.00     0.206 C 
ENDBRANCH  13  28
BRANCH  13  30
HETATM   30  O5  UNL     1      23.643   4.769  51.322  1.00  0.00    -0.354 OA
HETATM   31  C18 UNL     1      23.711   5.612  52.347  1.00  0.00     0.206 C 
ENDBRANCH  13  30
TORSDOF 5
ENDMDL
MODEL 5
REMARK VINA RESULT:      -7.1      4.207      8.059
REMARK  5 active torsions:
REMARK  status: ('A' for Active; 'I' for Inactive)
REMARK    1  A    between atoms: O1_2  and  C2_3 
REMARK    2  A    between atoms: C5_6  and  N1_7 
REMARK       I    between atoms: N1_7  and  C6_8 
REMARK       I    between atoms: C6_8  and  N2_10 
REMARK    3  A    between atoms: N2_10  and  C7_11 
REMARK    4  A    between atoms: C16_23  and  O4_24 
REMARK    5  A    between atoms: C16_23  and  O5_26 
ROOT
HETATM    1  C7  UNL     1      21.900   4.192  51.614  1.00  0.00     0.051 A 
HETATM    2  C8  UNL     1      22.339   5.114  52.433  1.00  0.00     0.005 A 
HETATM    3  C9  UNL     1      23.562   4.420  52.818  1.00  0.00     0.080 A 
HETATM    4  C10 UNL     1      23.086   3.368  51.899  1.00  0.00     0.174 A 
HETATM    5  O3  UNL     1      22.751   2.130  52.427  1.00  0.00    -0.310 OA
HETATM    6  C11 UNL     1      23.711   1.184  52.766  1.00  0.00     0.174 A 
HETATM    7  N3  UNL     1      23.624   0.299  53.703  1.00  0.00    -0.218 NA
HETATM    8  C12 UNL     1      24.742  -0.572  53.869  1.00  0.00     0.229 A 
HETATM    9  N4  UNL     1      25.817  -0.539  53.158  1.00  0.00    -0.278 NA
HETATM   10  C13 UNL     1      26.062   0.389  52.079  1.00  0.00     0.193 A 
HETATM   11  C14 UNL     1      24.890   1.295  51.914  1.00  0.00     0.016 A 
HETATM   12  C15 UNL     1      25.028   2.183  50.941  1.00  0.00     0.057 C 
HETATM   13  C16 UNL     1      23.944   3.206  50.604  1.00  0.00     0.222 C 
ENDROOT
BRANCH   1  14
HETATM   14  N2  UNL     1      20.710   4.164  50.832  1.00  0.00    -0.309 N 
HETATM   15  C6  UNL     1      19.510   3.663  51.362  1.00  0.00     0.325 C 
HETATM   16  N1  UNL     1      18.281   3.612  50.619  1.00  0.00    -0.309 N 
HETATM   17  O2  UNL     1      19.413   3.217  52.540  1.00  0.00    -0.247 OA
HETATM   18  H6  UNL     1      18.302   3.974  49.626  1.00  0.00     0.170 HD
HETATM   19  H7  UNL     1      20.743   4.523  49.854  1.00  0.00     0.170 HD
BRANCH  16  20
HETATM   20  C5  UNL     1      17.135   3.080  51.278  1.00  0.00     0.036 A 
HETATM   21  C4  UNL     1      16.729   1.763  51.321  1.00  0.00     0.032 A 
HETATM   22  C3  UNL     1      15.582   1.432  52.016  1.00  0.00     0.039 A 
HETATM   23  C2  UNL     1      14.846   2.415  52.666  1.00  0.00     0.068 A 
HETATM   24  C20 UNL     1      15.235   3.756  52.639  1.00  0.00     0.039 A 
HETATM   25  C19 UNL     1      16.380   4.052  51.939  1.00  0.00     0.032 A 
BRANCH  23  26
HETATM   26  O1  UNL     1      13.708   1.983  53.337  1.00  0.00    -0.356 OA
HETATM   27  C1  UNL     1      13.498   0.602  53.518  1.00  0.00     0.210 C 
ENDBRANCH  23  26
ENDBRANCH  16  20
ENDBRANCH   1  14
BRANCH  13  28
HETATM   28  O4  UNL     1      24.462   4.412  50.391  1.00  0.00    -0.354 OA
HETATM   29  C17 UNL     1      25.668   4.735  49.964  1.00  0.00     0.206 C 
ENDBRANCH  13  28
BRANCH  13  30
HETATM   30  O5  UNL     1      23.093   2.716  49.693  1.00  0.00    -0.354 OA
HETATM   31  C18 UNL     1      23.129   2.922  48.380  1.00  0.00     0.206 C 
ENDBRANCH  13  30
TORSDOF 5
ENDMDL
MODEL 6
REMARK VINA RESULT:      -7.0      2.909      7.617
REMARK  5 active torsions:
REMARK  status: ('A' for Active; 'I' for Inactive)
REMARK    1  A    between atoms: O1_2  and  C2_3 
REMARK    2  A    between atoms: C5_6  and  N1_7 
REMARK       I    between atoms: N1_7  and  C6_8 
REMARK       I    between atoms: C6_8  and  N2_10 
REMARK    3  A    between atoms: N2_10  and  C7_11 
REMARK    4  A    between atoms: C16_23  and  O4_24 
REMARK    5  A    between atoms: C16_23  and  O5_26 
ROOT
HETATM    1  C7  UNL     1      24.481   3.852  50.141  1.00  0.00     0.051 A 
HETATM    2  C8  UNL     1      23.752   3.296  49.206  1.00  0.00     0.005 A 
HETATM    3  C9  UNL     1      23.547   2.026  49.895  1.00  0.00     0.080 A 
HETATM    4  C10 UNL     1      24.367   2.635  50.961  1.00  0.00     0.174 A 
HETATM    5  O3  UNL     1      25.603   2.076  51.246  1.00  0.00    -0.310 OA
HETATM    6  C11 UNL     1      25.738   0.925  52.013  1.00  0.00     0.174 A 
HETATM    7  N3  UNL     1      26.668   0.034  51.910  1.00  0.00    -0.218 NA
HETATM    8  C12 UNL     1      26.601  -1.071  52.810  1.00  0.00     0.229 A 
HETATM    9  N4  UNL     1      25.690  -1.241  53.706  1.00  0.00    -0.278 NA
HETATM   10  C13 UNL     1      24.589  -0.337  53.942  1.00  0.00     0.193 A 
HETATM   11  C14 UNL     1      24.667   0.814  52.997  1.00  0.00     0.016 A 
HETATM   12  C15 UNL     1      23.691   1.697  53.143  1.00  0.00     0.057 C 
HETATM   13  C16 UNL     1      23.584   2.951  52.276  1.00  0.00     0.222 C 
ENDROOT
BRANCH   1  14
HETATM   14  N2  UNL     1      25.074   5.146  50.180  1.00  0.00    -0.309 N 
HETATM   15  C6  UNL     1      26.161   5.467  49.351  1.00  0.00     0.325 C 
HETATM   16  N1  UNL     1      26.797   6.756  49.349  1.00  0.00    -0.309 N 
HETATM   17  O2  UNL     1      26.670   4.646  48.538  1.00  0.00    -0.247 OA
HETATM   18  H6  UNL     1      26.412   7.485  50.011  1.00  0.00     0.170 HD
HETATM   19  H7  UNL     1      24.686   5.857  50.837  1.00  0.00     0.170 HD
BRANCH  16  20
HETATM   20  C5  UNL     1      27.891   6.948  48.457  1.00  0.00     0.036 A 
HETATM   21  C4  UNL     1      29.138   6.363  48.522  1.00  0.00     0.032 A 
HETATM   22  C3  UNL     1      30.081   6.671  47.560  1.00  0.00     0.039 A 
HETATM   23  C2  UNL     1      29.774   7.561  46.537  1.00  0.00     0.068 A 
HETATM   24  C20 UNL     1      28.520   8.168  46.448  1.00  0.00     0.039 A 
HETATM   25  C19 UNL     1      27.605   7.840  47.420  1.00  0.00     0.032 A 
BRANCH  23  26
HETATM   26  O1  UNL     1      30.788   7.807  45.619  1.00  0.00    -0.356 OA
HETATM   27  C1  UNL     1      32.104   7.406  45.920  1.00  0.00     0.210 C 
ENDBRANCH  23  26
ENDBRANCH  16  20
ENDBRANCH   1  14
BRANCH  13  28
HETATM   28  O4  UNL     1      22.333   3.162  51.878  1.00  0.00    -0.354 OA
HETATM   29  C17 UNL     1      21.210   2.673  52.371  1.00  0.00     0.206 C 
ENDBRANCH  13  28
BRANCH  13  30
HETATM   30  O5  UNL     1      24.250   3.973  52.829  1.00  0.00    -0.354 OA
HETATM   31  C18 UNL     1      23.728   4.976  53.528  1.00  0.00     0.206 C 
ENDBRANCH  13  30
TORSDOF 5
ENDMDL
MODEL 7
REMARK VINA RESULT:      -6.9      3.283      5.093
REMARK  5 active torsions:
REMARK  status: ('A' for Active; 'I' for Inactive)
REMARK    1  A    between atoms: O1_2  and  C2_3 
REMARK    2  A    between atoms: C5_6  and  N1_7 
REMARK       I    between atoms: N1_7  and  C6_8 
REMARK       I    between atoms: C6_8  and  N2_10 
REMARK    3  A    between atoms: N2_10  and  C7_11 
REMARK    4  A    between atoms: C16_23  and  O4_24 
REMARK    5  A    between atoms: C16_23  and  O5_26 
ROOT
HETATM    1  C7  UNL     1      25.367   3.253  50.944  1.00  0.00     0.051 A 
HETATM    2  C8  UNL     1      26.525   3.180  50.339  1.00  0.00     0.005 A 
HETATM    3  C9  UNL     1      26.099   3.817  49.098  1.00  0.00     0.080 A 
HETATM    4  C10 UNL     1      24.785   3.908  49.762  1.00  0.00     0.174 A 
HETATM    5  O3  UNL     1      23.724   3.190  49.233  1.00  0.00    -0.310 OA
HETATM    6  C11 UNL     1      23.017   3.624  48.117  1.00  0.00     0.174 A 
HETATM    7  N3  UNL     1      22.435   2.879  47.236  1.00  0.00    -0.218 NA
HETATM    8  C12 UNL     1      21.767   3.551  46.169  1.00  0.00     0.229 A 
HETATM    9  N4  UNL     1      21.703   4.831  46.026  1.00  0.00    -0.278 NA
HETATM   10  C13 UNL     1      22.301   5.791  46.924  1.00  0.00     0.193 A 
HETATM   11  C14 UNL     1      22.998   5.080  48.034  1.00  0.00     0.016 A 
HETATM   12  C15 UNL     1      23.578   5.886  48.910  1.00  0.00     0.057 C 
HETATM   13  C16 UNL     1      24.345   5.363  50.123  1.00  0.00     0.222 C 
ENDROOT
BRANCH   1  14
HETATM   14  N2  UNL     1      24.995   2.814  52.247  1.00  0.00    -0.309 N 
HETATM   15  C6  UNL     1      23.976   1.864  52.425  1.00  0.00     0.325 C 
HETATM   16  N1  UNL     1      23.561   1.385  53.715  1.00  0.00    -0.309 N 
HETATM   17  O2  UNL     1      23.340   1.350  51.462  1.00  0.00    -0.247 OA
HETATM   18  H6  UNL     1      24.059   1.781  54.559  1.00  0.00     0.170 HD
HETATM   19  H7  UNL     1      25.493   3.211  53.073  1.00  0.00     0.170 HD
BRANCH  16  20
HETATM   20  C5  UNL     1      22.514   0.419  53.753  1.00  0.00     0.036 A 
HETATM   21  C4  UNL     1      22.619  -0.918  54.072  1.00  0.00     0.032 A 
HETATM   22  C3  UNL     1      21.485  -1.707  54.056  1.00  0.00     0.039 A 
HETATM   23  C2  UNL     1      20.253  -1.159  53.722  1.00  0.00     0.068 A 
HETATM   24  C20 UNL     1      20.119   0.191  53.394  1.00  0.00     0.039 A 
HETATM   25  C19 UNL     1      21.265   0.950  53.420  1.00  0.00     0.032 A 
BRANCH  23  26
HETATM   26  O1  UNL     1      19.173  -2.034  53.734  1.00  0.00    -0.356 OA
HETATM   27  C1  UNL     1      17.907  -1.571  53.328  1.00  0.00     0.210 C 
ENDBRANCH  23  26
ENDBRANCH  16  20
ENDBRANCH   1  14
BRANCH  13  28
HETATM   28  O4  UNL     1      25.485   6.024  50.301  1.00  0.00    -0.354 OA
HETATM   29  C17 UNL     1      25.706   7.325  50.262  1.00  0.00     0.206 C 
ENDBRANCH  13  28
BRANCH  13  30
HETATM   30  O5  UNL     1      23.530   5.219  51.177  1.00  0.00    -0.354 OA
HETATM   31  C18 UNL     1      22.297   5.699  51.300  1.00  0.00     0.206 C 
ENDBRANCH  13  30
TORSDOF 5
ENDMDL
MODEL 8
REMARK VINA RESULT:      -6.9      3.522      4.759
REMARK  5 active torsions:
REMARK  status: ('A' for Active; 'I' for Inactive)
REMARK    1  A    between atoms: O1_2  and  C2_3 
REMARK    2  A    between atoms: C5_6  and  N1_7 
REMARK       I    between atoms: N1_7  and  C6_8 
REMARK       I    between atoms: C6_8  and  N2_10 
REMARK    3  A    between atoms: N2_10  and  C7_11 
REMARK    4  A    between atoms: C16_23  and  O4_24 
REMARK    5  A    between atoms: C16_23  and  O5_26 
ROOT
HETATM    1  C7  UNL     1      24.037   6.809  50.971  1.00  0.00     0.051 A 
HETATM    2  C8  UNL     1      23.126   7.736  50.818  1.00  0.00     0.005 A 
HETATM    3  C9  UNL     1      23.841   8.500  49.802  1.00  0.00     0.080 A 
HETATM    4  C10 UNL     1      24.881   7.465  49.959  1.00  0.00     0.174 A 
HETATM    5  O3  UNL     1      26.116   7.839  50.468  1.00  0.00    -0.310 OA
HETATM    6  C11 UNL     1      27.079   8.470  49.689  1.00  0.00     0.174 A 
HETATM    7  N3  UNL     1      27.966   9.316  50.096  1.00  0.00    -0.218 NA
HETATM    8  C12 UNL     1      28.856   9.837  49.109  1.00  0.00     0.229 A 
HETATM    9  N4  UNL     1      28.837   9.526  47.858  1.00  0.00    -0.278 NA
HETATM   10  C13 UNL     1      27.909   8.600  47.254  1.00  0.00     0.193 A 
HETATM   11  C14 UNL     1      26.983   8.062  48.292  1.00  0.00     0.016 A 
HETATM   12  C15 UNL     1      26.093   7.199  47.825  1.00  0.00     0.057 C 
HETATM   13  C16 UNL     1      25.051   6.529  48.720  1.00  0.00     0.222 C 
ENDROOT
BRANCH   1  14
HETATM   14  N2  UNL     1      24.043   5.675  51.832  1.00  0.00    -0.309 N 
HETATM   15  C6  UNL     1      23.157   4.605  51.622  1.00  0.00     0.325 C 
HETATM   16  N1  UNL     1      23.120   3.437  52.459  1.00  0.00    -0.309 N 
HETATM   17  O2  UNL     1      22.319   4.583  50.677  1.00  0.00    -0.247 OA
HETATM   18  H6  UNL     1      23.801   3.401  53.267  1.00  0.00     0.170 HD
HETATM   19  H7  UNL     1      24.719   5.650  52.626  1.00  0.00     0.170 HD
BRANCH  16  20
HETATM   20  C5  UNL     1      22.172   2.425  52.133  1.00  0.00     0.036 A 
HETATM   21  C4  UNL     1      22.401   1.251  51.446  1.00  0.00     0.032 A 
HETATM   22  C3  UNL     1      21.350   0.383  51.223  1.00  0.00     0.039 A 
HETATM   23  C2  UNL     1      20.077   0.688  51.686  1.00  0.00     0.068 A 
HETATM   24  C20 UNL     1      19.817   1.869  52.384  1.00  0.00     0.039 A 
HETATM   25  C19 UNL     1      20.883   2.712  52.590  1.00  0.00     0.032 A 
BRANCH  23  26
HETATM   26  O1  UNL     1      19.086  -0.248  51.412  1.00  0.00    -0.356 OA
HETATM   27  C1  UNL     1      18.120  -0.538  52.394  1.00  0.00     0.210 C 
ENDBRANCH  23  26
ENDBRANCH  16  20
ENDBRANCH   1  14
BRANCH  13  28
HETATM   28  O4  UNL     1      23.852   6.514  48.145  1.00  0.00    -0.354 OA
HETATM   29  C17 UNL     1      23.192   5.493  47.631  1.00  0.00     0.206 C 
ENDBRANCH  13  28
BRANCH  13  30
HETATM   30  O5  UNL     1      25.523   5.382  49.225  1.00  0.00    -0.354 OA
HETATM   31  C18 UNL     1      26.685   4.805  48.937  1.00  0.00     0.206 C 
ENDBRANCH  13  30
TORSDOF 5
ENDMDL
MODEL 9
REMARK VINA RESULT:      -6.8      2.413      7.160
REMARK  5 active torsions:
REMARK  status: ('A' for Active; 'I' for Inactive)
REMARK    1  A    between atoms: O1_2  and  C2_3 
REMARK    2  A    between atoms: C5_6  and  N1_7 
REMARK       I    between atoms: N1_7  and  C6_8 
REMARK       I    between atoms: C6_8  and  N2_10 
REMARK    3  A    between atoms: N2_10  and  C7_11 
REMARK    4  A    between atoms: C16_23  and  O4_24 
REMARK    5  A    between atoms: C16_23  and  O5_26 
ROOT
HETATM    1  C7  UNL     1      23.232   4.163  49.190  1.00  0.00     0.051 A 
HETATM    2  C8  UNL     1      22.689   3.302  48.366  1.00  0.00     0.005 A 
HETATM    3  C9  UNL     1      22.880   2.128  49.210  1.00  0.00     0.080 A 
HETATM    4  C10 UNL     1      23.496   3.081  50.153  1.00  0.00     0.174 A 
HETATM    5  O3  UNL     1      24.846   2.951  50.439  1.00  0.00    -0.310 OA
HETATM    6  C11 UNL     1      25.327   1.998  51.329  1.00  0.00     0.174 A 
HETATM    7  N3  UNL     1      26.479   1.414  51.285  1.00  0.00    -0.218 NA
HETATM    8  C12 UNL     1      26.756   0.463  52.312  1.00  0.00     0.229 A 
HETATM    9  N4  UNL     1      25.949   0.150  53.267  1.00  0.00    -0.278 NA
HETATM   10  C13 UNL     1      24.632   0.714  53.450  1.00  0.00     0.193 A 
HETATM   11  C14 UNL     1      24.351   1.705  52.373  1.00  0.00     0.016 A 
HETATM   12  C15 UNL     1      23.159   2.275  52.462  1.00  0.00     0.057 C 
HETATM   13  C16 UNL     1      22.672   3.320  51.459  1.00  0.00     0.222 C 
ENDROOT
BRANCH   1  14
HETATM   14  N2  UNL     1      23.414   5.568  49.045  1.00  0.00    -0.309 N 
HETATM   15  C6  UNL     1      24.699   6.122  48.944  1.00  0.00     0.325 C 
HETATM   16  N1  UNL     1      24.941   7.532  48.795  1.00  0.00    -0.309 N 
HETATM   17  O2  UNL     1      25.752   5.425  48.975  1.00  0.00    -0.247 OA
HETATM   18  H6  UNL     1      24.094   8.165  48.763  1.00  0.00     0.170 HD
HETATM   19  H7  UNL     1      22.571   6.182  49.014  1.00  0.00     0.170 HD
BRANCH  16  20
HETATM   20  C5  UNL     1      26.296   7.961  48.704  1.00  0.00     0.036 A 
HETATM   21  C4  UNL     1      27.178   7.737  47.668  1.00  0.00     0.032 A 
HETATM   22  C3  UNL     1      28.464   8.235  47.756  1.00  0.00     0.039 A 
HETATM   23  C2  UNL     1      28.863   8.955  48.875  1.00  0.00     0.068 A 
HETATM   24  C20 UNL     1      27.990   9.196  49.938  1.00  0.00     0.039 A 
HETATM   25  C19 UNL     1      26.718   8.687  49.820  1.00  0.00     0.032 A 
BRANCH  23  26
HETATM   26  O1  UNL     1      30.175   9.414  48.870  1.00  0.00    -0.356 OA
HETATM   27  C1  UNL     1      30.423  10.794  48.998  1.00  0.00     0.210 C 
ENDBRANCH  23  26
ENDBRANCH  16  20
ENDBRANCH   1  14
BRANCH  13  28
HETATM   28  O4  UNL     1      21.409   3.102  51.103  1.00  0.00    -0.354 OA
HETATM   29  C17 UNL     1      20.335   3.015  51.865  1.00  0.00     0.206 C 
ENDBRANCH  13  28
BRANCH  13  30
HETATM   30  O5  UNL     1      23.011   4.554  51.853  1.00  0.00    -0.354 OA
HETATM   31  C18 UNL     1      23.425   4.917  53.063  1.00  0.00     0.206 C 
ENDBRANCH  13  30
TORSDOF 5
ENDMDL
