MODEL 1
REMARK VINA RESULT:      -7.7      0.000      0.000
REMARK  2 active torsions:
REMARK  status: ('A' for Active; 'I' for Inactive)
REMARK    1  A    between atoms: C7_8  and  N1_9 
REMARK    2  A    between atoms: C11_17  and  N5_18 
ROOT
HETATM    1  C1  UNL     1      28.687  -1.132  53.138  1.00  0.00     0.055 C 
HETATM    2  C2  UNL     1      27.638  -0.199  53.729  1.00  0.00     0.122 C 
HETATM    3  C3  UNL     1      28.131   0.299  55.106  1.00  0.00     0.055 C 
HETATM    4  O1  UNL     1      26.499  -0.993  53.925  1.00  0.00    -0.361 OA
HETATM    5  C4  UNL     1      25.248  -0.579  53.581  1.00  0.00     0.178 C 
HETATM    6  C5  UNL     1      23.945  -0.455  53.444  1.00  0.00     0.011 C 
HETATM    7  C6  UNL     1      23.612   0.703  52.605  1.00  0.00     0.050 C 
HETATM    8  C7  UNL     1      24.356   1.618  51.990  1.00  0.00     0.143 C 
HETATM    9  N4  UNL     1      25.665   1.262  52.374  1.00  0.00    -0.214 NA
HETATM   10  C11 UNL     1      26.662   1.934  52.046  1.00  0.00     0.152 C 
HETATM   11  C12 UNL     1      27.440   0.971  52.864  1.00  0.00     0.222 C 
HETATM   12  O2  UNL     1      28.659   1.381  52.789  1.00  0.00    -0.286 OA
ENDROOT
BRANCH   8  13
HETATM   13  N1  UNL     1      23.915   2.704  51.190  1.00  0.00    -0.272 N 
HETATM   14  C8  UNL     1      23.174   3.816  51.693  1.00  0.00     0.218 C 
HETATM   15  C9  UNL     1      23.911   5.081  51.394  1.00  0.00     0.129 C 
HETATM   16  F1  UNL     1      23.969   6.177  52.160  1.00  0.00    -0.207 F 
HETATM   17  C10 UNL     1      24.584   5.141  50.249  1.00  0.00     0.142 C 
HETATM   18  N2  UNL     1      24.534   3.974  49.411  1.00  0.00    -0.312 N 
HETATM   19  N3  UNL     1      24.232   2.672  49.827  1.00  0.00    -0.145 NA
HETATM   20  H13 UNL     1      24.723   4.006  48.401  1.00  0.00     0.181 HD
HETATM   21  H14 UNL     1      23.340   2.413  49.347  1.00  0.00     0.173 HD
ENDBRANCH   8  13
BRANCH  10  22
HETATM   22  N5  UNL     1      27.209   3.049  51.371  1.00  0.00    -0.284 NA
HETATM   23  H15 UNL     1      26.506   3.799  51.206  1.00  0.00     0.125 HD
HETATM   24  H16 UNL     1      26.404   3.688  51.286  1.00  0.00     0.125 HD
ENDBRANCH  10  22
TORSDOF 2
ENDMDL
MODEL 2
REMARK VINA RESULT:      -7.7      3.218      5.504
REMARK  2 active torsions:
REMARK  status: ('A' for Active; 'I' for Inactive)
REMARK    1  A    between atoms: C7_8  and  N1_9 
REMARK    2  A    between atoms: C11_17  and  N5_18 
ROOT
HETATM    1  C1  UNL     1      22.630   4.707  49.409  1.00  0.00     0.055 C 
HETATM    2  C2  UNL     1      23.092   3.286  49.708  1.00  0.00     0.122 C 
HETATM    3  C3  UNL     1      23.068   2.467  48.398  1.00  0.00     0.055 C 
HETATM    4  O1  UNL     1      22.129   2.756  50.580  1.00  0.00    -0.361 OA
HETATM    5  C4  UNL     1      22.461   2.045  51.693  1.00  0.00     0.178 C 
HETATM    6  C5  UNL     1      22.439   1.276  52.761  1.00  0.00     0.011 C 
HETATM    7  C6  UNL     1      23.774   1.179  53.367  1.00  0.00     0.050 C 
HETATM    8  C7  UNL     1      24.955   1.699  53.040  1.00  0.00     0.143 C 
HETATM    9  N4  UNL     1      24.668   2.396  51.849  1.00  0.00    -0.214 NA
HETATM   10  C11 UNL     1      25.551   2.974  51.186  1.00  0.00     0.152 C 
HETATM   11  C12 UNL     1      24.466   3.286  50.224  1.00  0.00     0.222 C 
HETATM   12  O2  UNL     1      25.043   3.935  49.272  1.00  0.00    -0.286 OA
ENDROOT
BRANCH   8  13
HETATM   13  N1  UNL     1      26.192   1.537  53.715  1.00  0.00    -0.272 N 
HETATM   14  C8  UNL     1      26.776   0.268  54.015  1.00  0.00     0.218 C 
HETATM   15  C9  UNL     1      28.139   0.191  53.407  1.00  0.00     0.129 C 
HETATM   16  F1  UNL     1      28.726  -0.893  52.886  1.00  0.00    -0.207 F 
HETATM   17  C10 UNL     1      28.857   1.309  53.371  1.00  0.00     0.142 C 
HETATM   18  N2  UNL     1      28.245   2.486  53.925  1.00  0.00    -0.312 N 
HETATM   19  N3  UNL     1      26.873   2.696  54.103  1.00  0.00    -0.145 NA
HETATM   20  H13 UNL     1      28.789   3.296  54.248  1.00  0.00     0.181 HD
HETATM   21  H14 UNL     1      26.720   2.768  55.135  1.00  0.00     0.173 HD
ENDBRANCH   8  13
BRANCH  10  22
HETATM   22  N5  UNL     1      26.908   3.332  51.019  1.00  0.00    -0.284 NA
HETATM   23  H15 UNL     1      27.047   4.019  50.249  1.00  0.00     0.125 HD
HETATM   24  H16 UNL     1      26.877   4.003  50.236  1.00  0.00     0.125 HD
ENDBRANCH  10  22
TORSDOF 2
ENDMDL
MODEL 3
REMARK VINA RESULT:      -7.4      3.341      6.152
REMARK  2 active torsions:
REMARK  status: ('A' for Active; 'I' for Inactive)
REMARK    1  A    between atoms: C7_8  and  N1_9 
REMARK    2  A    between atoms: C11_17  and  N5_18 
ROOT
HETATM    1  C1  UNL     1      21.874   1.640  49.263  1.00  0.00     0.055 C 
HETATM    2  C2  UNL     1      22.666   2.382  50.332  1.00  0.00     0.122 C 
HETATM    3  C3  UNL     1      21.777   3.494  50.931  1.00  0.00     0.055 C 
HETATM    4  O1  UNL     1      23.735   2.987  49.653  1.00  0.00    -0.361 OA
HETATM    5  C4  UNL     1      25.013   2.960  50.124  1.00  0.00     0.178 C 
HETATM    6  C5  UNL     1      26.293   3.180  50.333  1.00  0.00     0.011 C 
HETATM    7  C6  UNL     1      26.802   2.332  51.419  1.00  0.00     0.050 C 
HETATM    8  C7  UNL     1      26.227   1.426  52.204  1.00  0.00     0.143 C 
HETATM    9  N4  UNL     1      24.880   1.468  51.790  1.00  0.00    -0.214 NA
HETATM   10  C11 UNL     1      23.991   0.793  52.345  1.00  0.00     0.152 C 
HETATM   11  C12 UNL     1      23.054   1.472  51.416  1.00  0.00     0.222 C 
HETATM   12  O2  UNL     1      21.891   1.007  51.721  1.00  0.00    -0.286 OA
ENDROOT
BRANCH   8  13
HETATM   13  N1  UNL     1      26.831   0.655  53.231  1.00  0.00    -0.272 N 
HETATM   14  C8  UNL     1      27.350  -0.662  53.038  1.00  0.00     0.218 C 
HETATM   15  C9  UNL     1      28.794  -0.689  53.422  1.00  0.00     0.129 C 
HETATM   16  F1  UNL     1      29.764  -1.409  52.846  1.00  0.00    -0.207 F 
HETATM   17  C10 UNL     1      29.171   0.077  54.441  1.00  0.00     0.142 C 
HETATM   18  N2  UNL     1      28.143   0.858  55.073  1.00  0.00    -0.312 N 
HETATM   19  N3  UNL     1      26.921   1.231  54.502  1.00  0.00    -0.145 NA
HETATM   20  H13 UNL     1      28.230   1.218  56.033  1.00  0.00     0.181 HD
HETATM   21  H14 UNL     1      26.179   0.758  55.068  1.00  0.00     0.173 HD
ENDBRANCH   8  13
BRANCH  10  22
HETATM   22  N5  UNL     1      23.613  -0.139  53.337  1.00  0.00    -0.284 NA
HETATM   23  H15 UNL     1      22.582  -0.282  53.378  1.00  0.00     0.125 HD
HETATM   24  H16 UNL     1      22.585  -0.167  53.251  1.00  0.00     0.125 HD
ENDBRANCH  10  22
TORSDOF 2
ENDMDL
MODEL 4
REMARK VINA RESULT:      -6.8      2.595      3.817
REMARK  2 active torsions:
REMARK  status: ('A' for Active; 'I' for Inactive)
REMARK    1  A    between atoms: C7_8  and  N1_9 
REMARK    2  A    between atoms: C11_17  and  N5_18 
ROOT
HETATM    1  C1  UNL     1      27.194   0.224  54.652  1.00  0.00     0.055 C 
HETATM    2  C2  UNL     1      26.595   0.116  53.255  1.00  0.00     0.122 C 
HETATM    3  C3  UNL     1      26.867  -1.301  52.703  1.00  0.00     0.055 C 
HETATM    4  O1  UNL     1      27.303   1.040  52.472  1.00  0.00    -0.361 OA
HETATM    5  C4  UNL     1      26.688   1.886  51.600  1.00  0.00     0.178 C 
HETATM    6  C5  UNL     1      26.422   2.750  50.644  1.00  0.00     0.011 C 
HETATM    7  C6  UNL     1      24.982   3.028  50.571  1.00  0.00     0.050 C 
HETATM    8  C7  UNL     1      23.938   2.577  51.261  1.00  0.00     0.143 C 
HETATM    9  N4  UNL     1      24.527   1.645  52.139  1.00  0.00    -0.214 NA
HETATM   10  C11 UNL     1      23.851   0.947  52.921  1.00  0.00     0.152 C 
HETATM   11  C12 UNL     1      25.142   0.320  53.297  1.00  0.00     0.222 C 
HETATM   12  O2  UNL     1      24.834  -0.574  54.172  1.00  0.00    -0.286 OA
ENDROOT
BRANCH   8  13
HETATM   13  N1  UNL     1      22.572   2.928  51.101  1.00  0.00    -0.272 N 
HETATM   14  C8  UNL     1      21.812   2.656  49.923  1.00  0.00     0.218 C 
HETATM   15  C9  UNL     1      20.616   1.835  50.282  1.00  0.00     0.129 C 
HETATM   16  F1  UNL     1      20.052   0.873  49.543  1.00  0.00    -0.207 F 
HETATM   17  C10 UNL     1      20.039   2.074  51.455  1.00  0.00     0.142 C 
HETATM   18  N2  UNL     1      20.630   3.105  52.264  1.00  0.00    -0.312 N 
HETATM   19  N3  UNL     1      21.944   3.578  52.168  1.00  0.00    -0.145 NA
HETATM   20  H13 UNL     1      20.112   3.596  53.006  1.00  0.00     0.181 HD
HETATM   21  H14 UNL     1      21.872   4.579  51.873  1.00  0.00     0.173 HD
ENDBRANCH   8  13
BRANCH  10  22
HETATM   22  N5  UNL     1      22.591   0.578  53.441  1.00  0.00    -0.284 NA
HETATM   23  H15 UNL     1      22.121   1.360  53.944  1.00  0.00     0.125 HD
HETATM   24  H16 UNL     1      22.264   1.443  53.898  1.00  0.00     0.125 HD
ENDBRANCH  10  22
TORSDOF 2
ENDMDL
MODEL 5
REMARK VINA RESULT:      -6.7      4.433      7.070
REMARK  2 active torsions:
REMARK  status: ('A' for Active; 'I' for Inactive)
REMARK    1  A    between atoms: C7_8  and  N1_9 
REMARK    2  A    between atoms: C11_17  and  N5_18 
ROOT
HETATM    1  C1  UNL     1      27.013   9.708  47.747  1.00  0.00     0.055 C 
HETATM    2  C2  UNL     1      27.368   8.705  48.837  1.00  0.00     0.122 C 
HETATM    3  C3  UNL     1      28.461   9.316  49.742  1.00  0.00     0.055 C 
HETATM    4  O1  UNL     1      27.914   7.600  48.166  1.00  0.00    -0.361 OA
HETATM    5  C4  UNL     1      27.574   6.316  48.468  1.00  0.00     0.178 C 
HETATM    6  C5  UNL     1      27.526   5.005  48.562  1.00  0.00     0.011 C 
HETATM    7  C6  UNL     1      26.393   4.578  49.394  1.00  0.00     0.050 C 
HETATM    8  C7  UNL     1      25.451   5.248  50.052  1.00  0.00     0.143 C 
HETATM    9  N4  UNL     1      25.806   6.592  49.816  1.00  0.00    -0.214 NA
HETATM   10  C11 UNL     1      25.188   7.544  50.332  1.00  0.00     0.152 C 
HETATM   11  C12 UNL     1      26.196   8.409  49.670  1.00  0.00     0.222 C 
HETATM   12  O2  UNL     1      25.880   9.610  50.015  1.00  0.00    -0.286 OA
ENDROOT
BRANCH   8  13
HETATM   13  N1  UNL     1      24.389   4.718  50.830  1.00  0.00    -0.272 N 
HETATM   14  C8  UNL     1      23.438   3.771  50.341  1.00  0.00     0.218 C 
HETATM   15  C9  UNL     1      23.465   2.549  51.201  1.00  0.00     0.129 C 
HETATM   16  F1  UNL     1      23.287   1.284  50.803  1.00  0.00    -0.207 F 
HETATM   17  C10 UNL     1      23.688   2.720  52.500  1.00  0.00     0.142 C 
HETATM   18  N2  UNL     1      23.882   4.073  52.947  1.00  0.00    -0.312 N 
HETATM   19  N3  UNL     1      24.279   5.155  52.154  1.00  0.00    -0.145 NA
HETATM   20  H13 UNL     1      23.737   4.362  53.924  1.00  0.00     0.181 HD
HETATM   21  H14 UNL     1      23.476   5.825  52.153  1.00  0.00     0.173 HD
ENDBRANCH   8  13
BRANCH  10  22
HETATM   22  N5  UNL     1      24.144   8.009  51.162  1.00  0.00    -0.284 NA
HETATM   23  H15 UNL     1      23.777   8.936  50.860  1.00  0.00     0.125 HD
HETATM   24  H16 UNL     1      23.896   8.917  50.739  1.00  0.00     0.125 HD
ENDBRANCH  10  22
TORSDOF 2
ENDMDL
MODEL 6
REMARK VINA RESULT:      -6.7      3.277      4.646
REMARK  2 active torsions:
REMARK  status: ('A' for Active; 'I' for Inactive)
REMARK    1  A    between atoms: C7_8  and  N1_9 
REMARK    2  A    between atoms: C11_17  and  N5_18 
ROOT
HETATM    1  C1  UNL     1      21.380  -0.963  52.630  1.00  0.00     0.055 C 
HETATM    2  C2  UNL     1      21.377   0.410  53.291  1.00  0.00     0.122 C 
HETATM    3  C3  UNL     1      21.100   0.236  54.801  1.00  0.00     0.055 C 
HETATM    4  O1  UNL     1      20.297   1.099  52.718  1.00  0.00    -0.361 OA
HETATM    5  C4  UNL     1      20.392   2.391  52.298  1.00  0.00     0.178 C 
HETATM    6  C5  UNL     1      20.133   3.612  51.881  1.00  0.00     0.011 C 
HETATM    7  C6  UNL     1      21.372   4.381  51.704  1.00  0.00     0.050 C 
HETATM    8  C7  UNL     1      22.655   4.084  51.889  1.00  0.00     0.143 C 
HETATM    9  N4  UNL     1      22.599   2.766  52.387  1.00  0.00    -0.214 NA
HETATM   10  C11 UNL     1      23.618   2.148  52.750  1.00  0.00     0.152 C 
HETATM   11  C12 UNL     1      22.683   1.062  53.137  1.00  0.00     0.222 C 
HETATM   12  O2  UNL     1      23.434   0.139  53.633  1.00  0.00    -0.286 OA
ENDROOT
BRANCH   8  13
HETATM   13  N1  UNL     1      23.781   4.920  51.675  1.00  0.00    -0.272 N 
HETATM   14  C8  UNL     1      24.652   4.813  50.548  1.00  0.00     0.218 C 
HETATM   15  C9  UNL     1      24.688   6.118  49.821  1.00  0.00     0.129 C 
HETATM   16  F1  UNL     1      24.793   6.297  48.499  1.00  0.00    -0.207 F 
HETATM   17  C10 UNL     1      24.609   7.227  50.549  1.00  0.00     0.142 C 
HETATM   18  N2  UNL     1      24.496   7.055  51.972  1.00  0.00    -0.312 N 
HETATM   19  N3  UNL     1      24.042   5.908  52.631  1.00  0.00    -0.145 NA
HETATM   20  H13 UNL     1      24.751   7.792  52.643  1.00  0.00     0.181 HD
HETATM   21  H14 UNL     1      24.856   5.546  53.180  1.00  0.00     0.173 HD
ENDBRANCH   8  13
BRANCH  10  22
HETATM   22  N5  UNL     1      25.019   2.112  52.934  1.00  0.00    -0.284 NA
HETATM   23  H15 UNL     1      25.317   2.571  53.820  1.00  0.00     0.125 HD
HETATM   24  H16 UNL     1      25.148   2.596  53.836  1.00  0.00     0.125 HD
ENDBRANCH  10  22
TORSDOF 2
ENDMDL
MODEL 7
REMARK VINA RESULT:      -6.6      5.907      7.678
REMARK  2 active torsions:
REMARK  status: ('A' for Active; 'I' for Inactive)
REMARK    1  A    between atoms: C7_8  and  N1_9 
REMARK    2  A    between atoms: C11_17  and  N5_18 
ROOT
HETATM    1  C1  UNL     1      30.637   9.343  47.145  1.00  0.00     0.055 C 
HETATM    2  C2  UNL     1      30.232   8.457  48.316  1.00  0.00     0.122 C 
HETATM    3  C3  UNL     1      31.355   8.489  49.378  1.00  0.00     0.055 C 
HETATM    4  O1  UNL     1      30.154   7.158  47.793  1.00  0.00    -0.361 OA
HETATM    5  C4  UNL     1      29.122   6.314  48.076  1.00  0.00     0.178 C 
HETATM    6  C5  UNL     1      28.343   5.263  48.207  1.00  0.00     0.011 C 
HETATM    7  C6  UNL     1      27.068   5.628  48.842  1.00  0.00     0.050 C 
HETATM    8  C7  UNL     1      26.583   6.780  49.297  1.00  0.00     0.143 C 
HETATM    9  N4  UNL     1      27.651   7.674  49.079  1.00  0.00    -0.214 NA
HETATM   10  C11 UNL     1      27.606   8.865  49.443  1.00  0.00     0.152 C 
HETATM   11  C12 UNL     1      28.999   8.953  48.939  1.00  0.00     0.222 C 
HETATM   12  O2  UNL     1      29.362  10.166  49.179  1.00  0.00    -0.286 OA
ENDROOT
BRANCH   8  13
HETATM   13  N1  UNL     1      25.317   7.014  49.893  1.00  0.00    -0.272 N 
HETATM   14  C8  UNL     1      24.076   6.917  49.193  1.00  0.00     0.218 C 
HETATM   15  C9  UNL     1      23.195   5.921  49.876  1.00  0.00     0.129 C 
HETATM   16  F1  UNL     1      22.331   5.082  49.294  1.00  0.00    -0.207 F 
HETATM   17  C10 UNL     1      23.267   5.849  51.202  1.00  0.00     0.142 C 
HETATM   18  N2  UNL     1      24.190   6.743  51.846  1.00  0.00    -0.312 N 
HETATM   19  N3  UNL     1      25.296   7.358  51.249  1.00  0.00    -0.145 NA
HETATM   20  H13 UNL     1      24.105   7.011  52.836  1.00  0.00     0.181 HD
HETATM   21  H14 UNL     1      25.102   8.386  51.266  1.00  0.00     0.173 HD
ENDBRANCH   8  13
BRANCH  10  22
HETATM   22  N5  UNL     1      26.900   9.924  50.057  1.00  0.00    -0.284 NA
HETATM   23  H15 UNL     1      27.504  10.492  50.689  1.00  0.00     0.125 HD
HETATM   24  H16 UNL     1      27.622  10.379  50.637  1.00  0.00     0.125 HD
ENDBRANCH  10  22
TORSDOF 2
ENDMDL
MODEL 8
REMARK VINA RESULT:      -6.6      6.569      8.615
REMARK  2 active torsions:
REMARK  status: ('A' for Active; 'I' for Inactive)
REMARK    1  A    between atoms: C7_8  and  N1_9 
REMARK    2  A    between atoms: C11_17  and  N5_18 
ROOT
HETATM    1  C1  UNL     1      33.340   5.882  48.621  1.00  0.00     0.055 C 
HETATM    2  C2  UNL     1      32.289   6.546  47.741  1.00  0.00     0.122 C 
HETATM    3  C3  UNL     1      32.446   6.024  46.295  1.00  0.00     0.055 C 
HETATM    4  O1  UNL     1      32.598   7.914  47.755  1.00  0.00    -0.361 OA
HETATM    5  C4  UNL     1      31.650   8.879  47.915  1.00  0.00     0.178 C 
HETATM    6  C5  UNL     1      30.997  10.020  47.964  1.00  0.00     0.011 C 
HETATM    7  C6  UNL     1      29.610   9.813  48.403  1.00  0.00     0.050 C 
HETATM    8  C7  UNL     1      28.920   8.726  48.737  1.00  0.00     0.143 C 
HETATM    9  N4  UNL     1      29.852   7.690  48.523  1.00  0.00    -0.214 NA
HETATM   10  C11 UNL     1      29.555   6.488  48.667  1.00  0.00     0.152 C 
HETATM   11  C12 UNL     1      30.937   6.209  48.204  1.00  0.00     0.222 C 
HETATM   12  O2  UNL     1      31.030   4.924  48.193  1.00  0.00    -0.286 OA
ENDROOT
BRANCH   8  13
HETATM   13  N1  UNL     1      27.567   8.650  49.157  1.00  0.00    -0.272 N 
HETATM   14  C8  UNL     1      26.450   8.768  48.274  1.00  0.00     0.218 C 
HETATM   15  C9  UNL     1      25.600   7.544  48.380  1.00  0.00     0.129 C 
HETATM   16  F1  UNL     1      24.920   6.951  47.392  1.00  0.00    -0.207 F 
HETATM   17  C10 UNL     1      25.498   6.972  49.575  1.00  0.00     0.142 C 
HETATM   18  N2  UNL     1      26.221   7.594  50.651  1.00  0.00    -0.312 N 
HETATM   19  N3  UNL     1      27.324   8.445  50.519  1.00  0.00    -0.145 NA
HETATM   20  H13 UNL     1      25.973   7.457  51.640  1.00  0.00     0.181 HD
HETATM   21  H14 UNL     1      27.017   9.377  50.884  1.00  0.00     0.173 HD
ENDBRANCH   8  13
BRANCH  10  22
HETATM   22  N5  UNL     1      28.597   5.502  48.991  1.00  0.00    -0.284 NA
HETATM   23  H15 UNL     1      27.825   5.875  49.583  1.00  0.00     0.125 HD
HETATM   24  H16 UNL     1      27.915   6.020  49.567  1.00  0.00     0.125 HD
ENDBRANCH  10  22
TORSDOF 2
ENDMDL
MODEL 9
REMARK VINA RESULT:      -6.5      9.239     11.328
REMARK  2 active torsions:
REMARK  status: ('A' for Active; 'I' for Inactive)
REMARK    1  A    between atoms: C7_8  and  N1_9 
REMARK    2  A    between atoms: C11_17  and  N5_18 
ROOT
HETATM    1  C1  UNL     1      29.347  10.552  47.601  1.00  0.00     0.055 C 
HETATM    2  C2  UNL     1      30.823  10.183  47.544  1.00  0.00     0.122 C 
HETATM    3  C3  UNL     1      31.663  11.417  47.943  1.00  0.00     0.055 C 
HETATM    4  O1  UNL     1      31.084   9.885  46.198  1.00  0.00    -0.361 OA
HETATM    5  C4  UNL     1      31.810   8.799  45.813  1.00  0.00     0.178 C 
HETATM    6  C5  UNL     1      32.513   7.919  45.134  1.00  0.00     0.011 C 
HETATM    7  C6  UNL     1      32.894   6.782  45.982  1.00  0.00     0.050 C 
HETATM    8  C7  UNL     1      32.675   6.496  47.263  1.00  0.00     0.143 C 
HETATM    9  N4  UNL     1      31.975   7.632  47.718  1.00  0.00    -0.214 NA
HETATM   10  C11 UNL     1      31.642   7.775  48.911  1.00  0.00     0.152 C 
HETATM   11  C12 UNL     1      31.123   9.100  48.489  1.00  0.00     0.222 C 
HETATM   12  O2  UNL     1      30.661   9.634  49.567  1.00  0.00    -0.286 OA
ENDROOT
BRANCH   8  13
HETATM   13  N1  UNL     1      33.094   5.347  47.982  1.00  0.00    -0.272 N 
HETATM   14  C8  UNL     1      32.482   4.062  47.859  1.00  0.00     0.218 C 
HETATM   15  C9  UNL     1      33.509   3.058  47.446  1.00  0.00     0.129 C 
HETATM   16  F1  UNL     1      33.326   2.008  46.638  1.00  0.00    -0.207 F 
HETATM   17  C10 UNL     1      34.740   3.211  47.923  1.00  0.00     0.142 C 
HETATM   18  N2  UNL     1      34.959   4.335  48.793  1.00  0.00    -0.312 N 
HETATM   19  N3  UNL     1      34.175   5.492  48.858  1.00  0.00    -0.145 NA
HETATM   20  H13 UNL     1      35.738   4.376  49.463  1.00  0.00     0.181 HD
HETATM   21  H14 UNL     1      33.750   5.502  49.814  1.00  0.00     0.173 HD
ENDBRANCH   8  13
BRANCH  10  22
HETATM   22  N5  UNL     1      31.615   7.281  50.234  1.00  0.00    -0.284 NA
HETATM   23  H15 UNL     1      32.569   7.174  50.640  1.00  0.00     0.125 HD
HETATM   24  H16 UNL     1      32.615   7.234  50.486  1.00  0.00     0.125 HD
ENDBRANCH  10  22
TORSDOF 2
ENDMDL
