MODEL 1
REMARK VINA RESULT:      -7.3      0.000      0.000
REMARK  7 active torsions:
REMARK  status: ('A' for Active; 'I' for Inactive)
REMARK    1  A    between atoms: O1_2  and  C2_3 
REMARK    2  A    between atoms: C5_6  and  N1_7 
REMARK    3  A    between atoms: N1_7  and  C6_8 
REMARK    4  A    between atoms: C8_10  and  O2_11 
REMARK    5  A    between atoms: C10_13  and  O3_14 
REMARK    6  A    between atoms: C12_16  and  O4_17 
REMARK    7  A    between atoms: C17_25  and  O5_26 
ROOT
HETATM    1  C2  UNL     1      23.006   1.166  52.020  1.00  0.00     0.081 A 
HETATM    2  C3  UNL     1      23.737   1.810  51.096  1.00  0.00     0.052 A 
HETATM    3  C4  UNL     1      25.129   2.004  51.552  1.00  0.00     0.040 A 
HETATM    4  C5  UNL     1      26.287   2.565  51.057  1.00  0.00     0.143 A 
HETATM    5  N2  UNL     1      27.431   2.553  51.779  1.00  0.00    -0.200 NA
HETATM    6  C15 UNL     1      27.461   1.990  53.007  1.00  0.00     0.225 A 
HETATM    7 CL1  UNL     1      28.985   2.025  53.864  1.00  0.00    -0.041 Cl
HETATM    8  N3  UNL     1      26.324   1.432  53.511  1.00  0.00    -0.219 NA
HETATM    9  C16 UNL     1      25.170   1.432  52.805  1.00  0.00     0.087 A 
HETATM   10  C17 UNL     1      23.844   0.856  53.210  1.00  0.00     0.230 A 
ENDROOT
BRANCH   4  11
HETATM   11  N1  UNL     1      26.093   3.131  49.749  1.00  0.00    -0.340 N 
HETATM   12  H5  UNL     1      25.723   2.534  48.965  1.00  0.00     0.167 HD
BRANCH  11  13
HETATM   13  C6  UNL     1      26.385   4.494  49.465  1.00  0.00     0.039 A 
HETATM   14  C7  UNL     1      27.505   4.872  48.754  1.00  0.00     0.069 A 
HETATM   15  C8  UNL     1      27.864   6.163  48.433  1.00  0.00     0.106 A 
HETATM   16  C10 UNL     1      26.990   7.158  48.888  1.00  0.00     0.135 A 
HETATM   17  C12 UNL     1      25.842   6.818  49.613  1.00  0.00     0.106 A 
HETATM   18  C14 UNL     1      25.558   5.503  49.889  1.00  0.00     0.069 A 
BRANCH  15  19
HETATM   19  O2  UNL     1      29.004   6.481  47.712  1.00  0.00    -0.353 OA
HETATM   20  C9  UNL     1      30.139   5.657  47.875  1.00  0.00     0.210 C 
ENDBRANCH  15  19
BRANCH  16  21
HETATM   21  O3  UNL     1      27.375   8.466  48.551  1.00  0.00    -0.351 OA
HETATM   22  C11 UNL     1      28.157   9.280  49.396  1.00  0.00     0.210 C 
ENDBRANCH  16  21
BRANCH  17  23
HETATM   23  O4  UNL     1      25.089   7.917  49.986  1.00  0.00    -0.353 OA
HETATM   24  C13 UNL     1      23.939   7.755  50.776  1.00  0.00     0.210 C 
ENDBRANCH  17  23
ENDBRANCH  11  13
ENDBRANCH   4  11
BRANCH   1  25
HETATM   25  O1  UNL     1      21.668   0.897  51.756  1.00  0.00    -0.357 OA
HETATM   26  C1  UNL     1      20.711   1.436  52.656  1.00  0.00     0.209 C 
ENDBRANCH   1  25
BRANCH  10  27
HETATM   27  O5  UNL     1      23.966  -0.531  53.307  1.00  0.00    -0.378 OA
HETATM   28  C18 UNL     1      23.116  -0.968  54.317  1.00  0.00     0.203 C 
ENDBRANCH  10  27
TORSDOF 7
ENDMDL
MODEL 2
REMARK VINA RESULT:      -7.2      0.513      2.541
REMARK  7 active torsions:
REMARK  status: ('A' for Active; 'I' for Inactive)
REMARK    1  A    between atoms: O1_2  and  C2_3 
REMARK    2  A    between atoms: C5_6  and  N1_7 
REMARK    3  A    between atoms: N1_7  and  C6_8 
REMARK    4  A    between atoms: C8_10  and  O2_11 
REMARK    5  A    between atoms: C10_13  and  O3_14 
REMARK    6  A    between atoms: C12_16  and  O4_17 
REMARK    7  A    between atoms: C17_25  and  O5_26 
ROOT
HETATM    1  C2  UNL     1      23.034   1.183  52.000  1.00  0.00     0.081 A 
HETATM    2  C3  UNL     1      23.774   1.788  51.057  1.00  0.00     0.052 A 
HETATM    3  C4  UNL     1      25.155   2.021  51.526  1.00  0.00     0.040 A 
HETATM    4  C5  UNL     1      26.316   2.569  51.022  1.00  0.00     0.143 A 
HETATM    5  N2  UNL     1      27.447   2.608  51.764  1.00  0.00    -0.200 NA
HETATM    6  C15 UNL     1      27.461   2.108  53.019  1.00  0.00     0.225 A 
HETATM    7 CL1  UNL     1      28.970   2.205  53.899  1.00  0.00    -0.041 Cl
HETATM    8  N3  UNL     1      26.322   1.564  53.531  1.00  0.00    -0.219 NA
HETATM    9  C16 UNL     1      25.180   1.514  52.808  1.00  0.00     0.087 A 
HETATM   10  C17 UNL     1      23.854   0.944  53.218  1.00  0.00     0.230 A 
ENDROOT
BRANCH   4  11
HETATM   11  N1  UNL     1      26.138   3.066  49.684  1.00  0.00    -0.340 N 
HETATM   12  H5  UNL     1      25.796   2.423  48.924  1.00  0.00     0.167 HD
BRANCH  11  13
HETATM   13  C6  UNL     1      26.410   4.419  49.338  1.00  0.00     0.039 A 
HETATM   14  C7  UNL     1      25.522   5.439  49.609  1.00  0.00     0.069 A 
HETATM   15  C8  UNL     1      25.704   6.771  49.312  1.00  0.00     0.106 A 
HETATM   16  C10 UNL     1      26.912   7.085  48.678  1.00  0.00     0.135 A 
HETATM   17  C12 UNL     1      27.842   6.080  48.386  1.00  0.00     0.106 A 
HETATM   18  C14 UNL     1      27.581   4.773  48.717  1.00  0.00     0.069 A 
BRANCH  15  19
HETATM   19  O2  UNL     1      24.773   7.754  49.611  1.00  0.00    -0.353 OA
HETATM   20  C9  UNL     1      24.143   7.703  50.874  1.00  0.00     0.210 C 
ENDBRANCH  15  19
BRANCH  16  21
HETATM   21  O3  UNL     1      27.077   8.448  48.384  1.00  0.00    -0.351 OA
HETATM   22  C11 UNL     1      27.732   9.348  49.250  1.00  0.00     0.210 C 
ENDBRANCH  16  21
BRANCH  17  23
HETATM   23  O4  UNL     1      28.980   6.557  47.759  1.00  0.00    -0.353 OA
HETATM   24  C13 UNL     1      30.227   5.958  47.999  1.00  0.00     0.210 C 
ENDBRANCH  17  23
ENDBRANCH  11  13
ENDBRANCH   4  11
BRANCH   1  25
HETATM   25  O1  UNL     1      21.703   0.885  51.728  1.00  0.00    -0.357 OA
HETATM   26  C1  UNL     1      21.358   0.650  50.371  1.00  0.00     0.209 C 
ENDBRANCH   1  25
BRANCH  10  27
HETATM   27  O5  UNL     1      23.990  -0.435  53.389  1.00  0.00    -0.378 OA
HETATM   28  C18 UNL     1      23.049  -0.847  54.327  1.00  0.00     0.203 C 
ENDBRANCH  10  27
TORSDOF 7
ENDMDL
MODEL 3
REMARK VINA RESULT:      -6.8      4.182      7.241
REMARK  7 active torsions:
REMARK  status: ('A' for Active; 'I' for Inactive)
REMARK    1  A    between atoms: O1_2  and  C2_3 
REMARK    2  A    between atoms: C5_6  and  N1_7 
REMARK    3  A    between atoms: N1_7  and  C6_8 
REMARK    4  A    between atoms: C8_10  and  O2_11 
REMARK    5  A    between atoms: C10_13  and  O3_14 
REMARK    6  A    between atoms: C12_16  and  O4_17 
REMARK    7  A    between atoms: C17_25  and  O5_26 
ROOT
HETATM    1  C2  UNL     1      26.151   0.408  54.309  1.00  0.00     0.081 A 
HETATM    2  C3  UNL     1      25.058   1.125  54.000  1.00  0.00     0.052 A 
HETATM    3  C4  UNL     1      25.287   1.964  52.806  1.00  0.00     0.040 A 
HETATM    4  C5  UNL     1      24.566   2.862  52.048  1.00  0.00     0.143 A 
HETATM    5  N2  UNL     1      25.117   3.461  50.967  1.00  0.00    -0.200 NA
HETATM    6  C15 UNL     1      26.391   3.189  50.607  1.00  0.00     0.225 A 
HETATM    7 CL1  UNL     1      27.015   4.014  49.196  1.00  0.00    -0.041 Cl
HETATM    8  N3  UNL     1      27.116   2.304  51.347  1.00  0.00    -0.219 NA
HETATM    9  C16 UNL     1      26.585   1.694  52.431  1.00  0.00     0.087 A 
HETATM   10  C17 UNL     1      27.242   0.695  53.339  1.00  0.00     0.230 A 
ENDROOT
BRANCH   4  11
HETATM   11  N1  UNL     1      23.236   3.053  52.562  1.00  0.00    -0.340 N 
HETATM   12  H5  UNL     1      23.045   3.819  53.259  1.00  0.00     0.167 HD
BRANCH  11  13
HETATM   13  C6  UNL     1      22.146   2.234  52.157  1.00  0.00     0.039 A 
HETATM   14  C7  UNL     1      21.553   1.327  53.010  1.00  0.00     0.069 A 
HETATM   15  C8  UNL     1      20.496   0.498  52.705  1.00  0.00     0.106 A 
HETATM   16  C10 UNL     1      20.003   0.612  51.399  1.00  0.00     0.135 A 
HETATM   17  C12 UNL     1      20.575   1.521  50.501  1.00  0.00     0.106 A 
HETATM   18  C14 UNL     1      21.629   2.312  50.889  1.00  0.00     0.069 A 
BRANCH  15  19
HETATM   19  O2  UNL     1      19.940  -0.394  53.607  1.00  0.00    -0.353 OA
HETATM   20  C9  UNL     1      20.781  -1.389  54.154  1.00  0.00     0.210 C 
ENDBRANCH  15  19
BRANCH  16  21
HETATM   21  O3  UNL     1      18.927  -0.242  51.109  1.00  0.00    -0.351 OA
HETATM   22  C11 UNL     1      17.578   0.147  51.243  1.00  0.00     0.210 C 
ENDBRANCH  16  21
BRANCH  17  23
HETATM   23  O4  UNL     1      19.972   1.508  49.256  1.00  0.00    -0.353 OA
HETATM   24  C13 UNL     1      20.319   2.466  48.289  1.00  0.00     0.210 C 
ENDBRANCH  17  23
ENDBRANCH  11  13
ENDBRANCH   4  11
BRANCH   1  25
HETATM   25  O1  UNL     1      26.113  -0.441  55.410  1.00  0.00    -0.357 OA
HETATM   26  C1  UNL     1      24.883  -1.096  55.679  1.00  0.00     0.209 C 
ENDBRANCH   1  25
BRANCH  10  27
HETATM   27  O5  UNL     1      27.500  -0.470  52.615  1.00  0.00    -0.378 OA
HETATM   28  C18 UNL     1      28.606  -1.094  53.183  1.00  0.00     0.203 C 
ENDBRANCH  10  27
TORSDOF 7
ENDMDL
MODEL 4
REMARK VINA RESULT:      -6.8      2.576      7.830
REMARK  7 active torsions:
REMARK  status: ('A' for Active; 'I' for Inactive)
REMARK    1  A    between atoms: O1_2  and  C2_3 
REMARK    2  A    between atoms: C5_6  and  N1_7 
REMARK    3  A    between atoms: N1_7  and  C6_8 
REMARK    4  A    between atoms: C8_10  and  O2_11 
REMARK    5  A    between atoms: C10_13  and  O3_14 
REMARK    6  A    between atoms: C12_16  and  O4_17 
REMARK    7  A    between atoms: C17_25  and  O5_26 
ROOT
HETATM    1  C2  UNL     1      28.771   6.173  48.205  1.00  0.00     0.081 A 
HETATM    2  C3  UNL     1      27.940   5.157  48.493  1.00  0.00     0.052 A 
HETATM    3  C4  UNL     1      26.625   5.652  48.948  1.00  0.00     0.040 A 
HETATM    4  C5  UNL     1      25.426   5.108  49.356  1.00  0.00     0.143 A 
HETATM    5  N2  UNL     1      24.386   5.900  49.708  1.00  0.00    -0.200 NA
HETATM    6  C15 UNL     1      24.503   7.245  49.667  1.00  0.00     0.225 A 
HETATM    7 CL1  UNL     1      23.105   8.183  50.142  1.00  0.00    -0.041 Cl
HETATM    8  N3  UNL     1      25.683   7.797  49.267  1.00  0.00    -0.219 NA
HETATM    9  C16 UNL     1      26.735   7.026  48.911  1.00  0.00     0.087 A 
HETATM   10  C17 UNL     1      28.089   7.474  48.442  1.00  0.00     0.230 A 
ENDROOT
BRANCH   4  11
HETATM   11  N1  UNL     1      25.461   3.670  49.357  1.00  0.00    -0.340 N 
HETATM   12  H5  UNL     1      25.477   3.143  48.446  1.00  0.00     0.167 HD
BRANCH  11  13
HETATM   13  C6  UNL     1      25.475   2.916  50.563  1.00  0.00     0.039 A 
HETATM   14  C7  UNL     1      26.650   2.536  51.177  1.00  0.00     0.069 A 
HETATM   15  C8  UNL     1      26.757   1.810  52.342  1.00  0.00     0.106 A 
HETATM   16  C10 UNL     1      25.542   1.438  52.931  1.00  0.00     0.135 A 
HETATM   17  C12 UNL     1      24.327   1.804  52.341  1.00  0.00     0.106 A 
HETATM   18  C14 UNL     1      24.310   2.531  51.175  1.00  0.00     0.069 A 
BRANCH  15  19
HETATM   19  O2  UNL     1      27.970   1.459  52.914  1.00  0.00    -0.353 OA
HETATM   20  C9  UNL     1      28.696   2.463  53.591  1.00  0.00     0.210 C 
ENDBRANCH  15  19
BRANCH  16  21
HETATM   21  O3  UNL     1      25.674   0.698  54.117  1.00  0.00    -0.351 OA
HETATM   22  C11 UNL     1      25.465  -0.694  54.183  1.00  0.00     0.210 C 
ENDBRANCH  16  21
BRANCH  17  23
HETATM   23  O4  UNL     1      23.223   1.358  53.047  1.00  0.00    -0.353 OA
HETATM   24  C13 UNL     1      22.182   0.685  52.388  1.00  0.00     0.210 C 
ENDBRANCH  17  23
ENDBRANCH  11  13
ENDBRANCH   4  11
BRANCH   1  25
HETATM   25  O1  UNL     1      30.057   5.889  47.759  1.00  0.00    -0.357 OA
HETATM   26  C1  UNL     1      31.119   6.640  48.329  1.00  0.00     0.209 C 
ENDBRANCH   1  25
BRANCH  10  27
HETATM   27  O5  UNL     1      27.948   8.122  47.213  1.00  0.00    -0.378 OA
HETATM   28  C18 UNL     1      28.571   9.362  47.307  1.00  0.00     0.203 C 
ENDBRANCH  10  27
TORSDOF 7
ENDMDL
MODEL 5
REMARK VINA RESULT:      -6.7      3.432      7.498
REMARK  7 active torsions:
REMARK  status: ('A' for Active; 'I' for Inactive)
REMARK    1  A    between atoms: O1_2  and  C2_3 
REMARK    2  A    between atoms: C5_6  and  N1_7 
REMARK    3  A    between atoms: N1_7  and  C6_8 
REMARK    4  A    between atoms: C8_10  and  O2_11 
REMARK    5  A    between atoms: C10_13  and  O3_14 
REMARK    6  A    between atoms: C12_16  and  O4_17 
REMARK    7  A    between atoms: C17_25  and  O5_26 
ROOT
HETATM    1  C2  UNL     1      24.505   5.813  49.215  1.00  0.00     0.081 A 
HETATM    2  C3  UNL     1      24.652   5.299  50.447  1.00  0.00     0.052 A 
HETATM    3  C4  UNL     1      23.359   4.845  50.997  1.00  0.00     0.040 A 
HETATM    4  C5  UNL     1      22.905   4.254  52.158  1.00  0.00     0.143 A 
HETATM    5  N2  UNL     1      21.595   3.957  52.322  1.00  0.00    -0.200 NA
HETATM    6  C15 UNL     1      20.702   4.235  51.347  1.00  0.00     0.225 A 
HETATM    7 CL1  UNL     1      19.031   3.816  51.652  1.00  0.00    -0.041 Cl
HETATM    8  N3  UNL     1      21.135   4.820  50.195  1.00  0.00    -0.219 NA
HETATM    9  C16 UNL     1      22.439   5.124  50.009  1.00  0.00     0.087 A 
HETATM   10  C17 UNL     1      23.075   5.755  48.805  1.00  0.00     0.230 A 
ENDROOT
BRANCH   4  11
HETATM   11  N1  UNL     1      23.969   4.032  53.099  1.00  0.00    -0.340 N 
HETATM   12  H5  UNL     1      24.345   4.833  53.669  1.00  0.00     0.167 HD
BRANCH  11  13
HETATM   13  C6  UNL     1      24.545   2.747  53.297  1.00  0.00     0.039 A 
HETATM   14  C7  UNL     1      25.855   2.583  53.696  1.00  0.00     0.069 A 
HETATM   15  C8  UNL     1      26.493   1.381  53.913  1.00  0.00     0.106 A 
HETATM   16  C10 UNL     1      25.709   0.241  53.699  1.00  0.00     0.135 A 
HETATM   17  C12 UNL     1      24.374   0.361  53.295  1.00  0.00     0.106 A 
HETATM   18  C14 UNL     1      23.816   1.602  53.101  1.00  0.00     0.069 A 
BRANCH  15  19
HETATM   19  O2  UNL     1      27.815   1.280  54.315  1.00  0.00    -0.353 OA
HETATM   20  C9  UNL     1      28.763   2.113  53.682  1.00  0.00     0.210 C 
ENDBRANCH  15  19
BRANCH  16  21
HETATM   21  O3  UNL     1      26.378  -0.974  53.925  1.00  0.00    -0.351 OA
HETATM   22  C11 UNL     1      26.993  -1.716  52.897  1.00  0.00     0.210 C 
ENDBRANCH  16  21
BRANCH  17  23
HETATM   23  O4  UNL     1      23.743  -0.858  53.128  1.00  0.00    -0.353 OA
HETATM   24  C13 UNL     1      22.345  -0.926  53.019  1.00  0.00     0.210 C 
ENDBRANCH  17  23
ENDBRANCH  11  13
ENDBRANCH   4  11
BRANCH   1  25
HETATM   25  O1  UNL     1      25.624   6.291  48.543  1.00  0.00    -0.357 OA
HETATM   26  C1  UNL     1      26.224   7.474  49.048  1.00  0.00     0.209 C 
ENDBRANCH   1  25
BRANCH  10  27
HETATM   27  O5  UNL     1      22.966   4.877  47.726  1.00  0.00    -0.378 OA
HETATM   28  C18 UNL     1      22.319   5.544  46.691  1.00  0.00     0.203 C 
ENDBRANCH  10  27
TORSDOF 7
ENDMDL
MODEL 6
REMARK VINA RESULT:      -6.7      2.377      3.397
REMARK  7 active torsions:
REMARK  status: ('A' for Active; 'I' for Inactive)
REMARK    1  A    between atoms: O1_2  and  C2_3 
REMARK    2  A    between atoms: C5_6  and  N1_7 
REMARK    3  A    between atoms: N1_7  and  C6_8 
REMARK    4  A    between atoms: C8_10  and  O2_11 
REMARK    5  A    between atoms: C10_13  and  O3_14 
REMARK    6  A    between atoms: C12_16  and  O4_17 
REMARK    7  A    between atoms: C17_25  and  O5_26 
ROOT
HETATM    1  C2  UNL     1      27.052  -0.775  53.172  1.00  0.00     0.081 A 
HETATM    2  C3  UNL     1      27.144   0.206  52.260  1.00  0.00     0.052 A 
HETATM    3  C4  UNL     1      25.857   0.912  52.099  1.00  0.00     0.040 A 
HETATM    4  C5  UNL     1      25.365   1.960  51.350  1.00  0.00     0.143 A 
HETATM    5  N2  UNL     1      24.078   2.361  51.474  1.00  0.00    -0.200 NA
HETATM    6  C15 UNL     1      23.246   1.739  52.337  1.00  0.00     0.225 A 
HETATM    7 CL1  UNL     1      21.602   2.328  52.426  1.00  0.00    -0.041 Cl
HETATM    8  N3  UNL     1      23.717   0.700  53.083  1.00  0.00    -0.219 NA
HETATM    9  C16 UNL     1      25.000   0.283  52.976  1.00  0.00     0.087 A 
HETATM   10  C17 UNL     1      25.672  -0.829  53.726  1.00  0.00     0.230 A 
ENDROOT
BRANCH   4  11
HETATM   11  N1  UNL     1      26.365   2.511  50.474  1.00  0.00    -0.340 N 
HETATM   12  H5  UNL     1      27.177   1.918  50.164  1.00  0.00     0.167 HD
BRANCH  11  13
HETATM   13  C6  UNL     1      26.297   3.850  50.000  1.00  0.00     0.039 A 
HETATM   14  C7  UNL     1      27.235   4.369  49.132  1.00  0.00     0.069 A 
HETATM   15  C8  UNL     1      27.247   5.649  48.622  1.00  0.00     0.106 A 
HETATM   16  C10 UNL     1      26.197   6.472  49.045  1.00  0.00     0.135 A 
HETATM   17  C12 UNL     1      25.223   5.985  49.925  1.00  0.00     0.106 A 
HETATM   18  C14 UNL     1      25.286   4.692  50.386  1.00  0.00     0.069 A 
BRANCH  15  19
HETATM   19  O2  UNL     1      28.218   6.114  47.749  1.00  0.00    -0.353 OA
HETATM   20  C9  UNL     1      29.538   6.237  48.236  1.00  0.00     0.210 C 
ENDBRANCH  15  19
BRANCH  16  21
HETATM   21  O3  UNL     1      26.228   7.772  48.514  1.00  0.00    -0.351 OA
HETATM   22  C11 UNL     1      25.577   8.130  47.316  1.00  0.00     0.210 C 
ENDBRANCH  16  21
BRANCH  17  23
HETATM   23  O4  UNL     1      24.258   6.924  50.243  1.00  0.00    -0.353 OA
HETATM   24  C13 UNL     1      23.047   6.527  50.832  1.00  0.00     0.210 C 
ENDBRANCH  17  23
ENDBRANCH  11  13
ENDBRANCH   4  11
BRANCH   1  25
HETATM   25  O1  UNL     1      28.174  -1.546  53.452  1.00  0.00    -0.357 OA
HETATM   26  C1  UNL     1      29.378  -0.853  53.743  1.00  0.00     0.209 C 
ENDBRANCH   1  25
BRANCH  10  27
HETATM   27  O5  UNL     1      25.732  -0.489  55.079  1.00  0.00    -0.378 OA
HETATM   28  C18 UNL     1      24.739  -1.198  55.746  1.00  0.00     0.203 C 
ENDBRANCH  10  27
TORSDOF 7
ENDMDL
MODEL 7
REMARK VINA RESULT:      -6.6      4.685      8.622
REMARK  7 active torsions:
REMARK  status: ('A' for Active; 'I' for Inactive)
REMARK    1  A    between atoms: O1_2  and  C2_3 
REMARK    2  A    between atoms: C5_6  and  N1_7 
REMARK    3  A    between atoms: N1_7  and  C6_8 
REMARK    4  A    between atoms: C8_10  and  O2_11 
REMARK    5  A    between atoms: C10_13  and  O3_14 
REMARK    6  A    between atoms: C12_16  and  O4_17 
REMARK    7  A    between atoms: C17_25  and  O5_26 
ROOT
HETATM    1  C2  UNL     1      26.022   0.261  53.662  1.00  0.00     0.081 A 
HETATM    2  C3  UNL     1      24.824  -0.091  53.168  1.00  0.00     0.052 A 
HETATM    3  C4  UNL     1      24.016   1.096  52.822  1.00  0.00     0.040 A 
HETATM    4  C5  UNL     1      22.768   1.351  52.293  1.00  0.00     0.143 A 
HETATM    5  N2  UNL     1      22.342   2.620  52.095  1.00  0.00    -0.200 NA
HETATM    6  C15 UNL     1      23.134   3.667  52.415  1.00  0.00     0.225 A 
HETATM    7 CL1  UNL     1      22.494   5.269  52.124  1.00  0.00    -0.041 Cl
HETATM    8  N3  UNL     1      24.369   3.431  52.939  1.00  0.00    -0.219 NA
HETATM    9  C16 UNL     1      24.816   2.171  53.144  1.00  0.00     0.087 A 
HETATM   10  C17 UNL     1      26.143   1.744  53.699  1.00  0.00     0.230 A 
ENDROOT
BRANCH   4  11
HETATM   11  N1  UNL     1      22.044   0.139  52.016  1.00  0.00    -0.340 N 
HETATM   12  H5  UNL     1      22.560  -0.774  51.925  1.00  0.00     0.167 HD
BRANCH  11  13
HETATM   13  C6  UNL     1      20.631   0.124  51.857  1.00  0.00     0.039 A 
HETATM   14  C7  UNL     1      19.796  -0.484  52.771  1.00  0.00     0.069 A 
HETATM   15  C8  UNL     1      18.422  -0.546  52.698  1.00  0.00     0.106 A 
HETATM   16  C10 UNL     1      17.853   0.077  51.581  1.00  0.00     0.135 A 
HETATM   17  C12 UNL     1      18.663   0.708  50.630  1.00  0.00     0.106 A 
HETATM   18  C14 UNL     1      20.029   0.722  50.780  1.00  0.00     0.069 A 
BRANCH  15  19
HETATM   19  O2  UNL     1      17.634  -1.172  53.651  1.00  0.00    -0.353 OA
HETATM   20  C9  UNL     1      17.669  -2.583  53.712  1.00  0.00     0.210 C 
ENDBRANCH  15  19
BRANCH  16  21
HETATM   21  O3  UNL     1      16.451   0.003  51.526  1.00  0.00    -0.351 OA
HETATM   22  C11 UNL     1      15.607   1.027  52.002  1.00  0.00     0.210 C 
ENDBRANCH  16  21
BRANCH  17  23
HETATM   23  O4  UNL     1      17.945   1.272  49.590  1.00  0.00    -0.353 OA
HETATM   24  C13 UNL     1      18.179   2.602  49.204  1.00  0.00     0.210 C 
ENDBRANCH  17  23
ENDBRANCH  11  13
ENDBRANCH   4  11
BRANCH   1  25
HETATM   25  O1  UNL     1      26.915  -0.734  54.043  1.00  0.00    -0.357 OA
HETATM   26  C1  UNL     1      27.611  -1.408  53.005  1.00  0.00     0.209 C 
ENDBRANCH   1  25
BRANCH  10  27
HETATM   27  O5  UNL     1      27.148   2.121  52.807  1.00  0.00    -0.378 OA
HETATM   28  C18 UNL     1      28.304   2.371  53.539  1.00  0.00     0.203 C 
ENDBRANCH  10  27
TORSDOF 7
ENDMDL
MODEL 8
REMARK VINA RESULT:      -6.6      4.689      8.546
REMARK  7 active torsions:
REMARK  status: ('A' for Active; 'I' for Inactive)
REMARK    1  A    between atoms: O1_2  and  C2_3 
REMARK    2  A    between atoms: C5_6  and  N1_7 
REMARK    3  A    between atoms: N1_7  and  C6_8 
REMARK    4  A    between atoms: C8_10  and  O2_11 
REMARK    5  A    between atoms: C10_13  and  O3_14 
REMARK    6  A    between atoms: C12_16  and  O4_17 
REMARK    7  A    between atoms: C17_25  and  O5_26 
ROOT
HETATM    1  C2  UNL     1      26.042   0.255  53.681  1.00  0.00     0.081 A 
HETATM    2  C3  UNL     1      24.849  -0.101  53.179  1.00  0.00     0.052 A 
HETATM    3  C4  UNL     1      24.040   1.083  52.827  1.00  0.00     0.040 A 
HETATM    4  C5  UNL     1      22.795   1.335  52.289  1.00  0.00     0.143 A 
HETATM    5  N2  UNL     1      22.366   2.602  52.088  1.00  0.00    -0.200 NA
HETATM    6  C15 UNL     1      23.152   3.651  52.412  1.00  0.00     0.225 A 
HETATM    7 CL1  UNL     1      22.509   5.251  52.117  1.00  0.00    -0.041 Cl
HETATM    8  N3  UNL     1      24.385   3.420  52.945  1.00  0.00    -0.219 NA
HETATM    9  C16 UNL     1      24.834   2.161  53.154  1.00  0.00     0.087 A 
HETATM   10  C17 UNL     1      26.159   1.738  53.719  1.00  0.00     0.230 A 
ENDROOT
BRANCH   4  11
HETATM   11  N1  UNL     1      22.076   0.120  52.008  1.00  0.00    -0.340 N 
HETATM   12  H5  UNL     1      22.599  -0.783  51.875  1.00  0.00     0.167 HD
BRANCH  11  13
HETATM   13  C6  UNL     1      20.658   0.090  51.901  1.00  0.00     0.039 A 
HETATM   14  C7  UNL     1      19.988   0.690  50.855  1.00  0.00     0.069 A 
HETATM   15  C8  UNL     1      18.623   0.709  50.671  1.00  0.00     0.106 A 
HETATM   16  C10 UNL     1      17.877   0.049  51.655  1.00  0.00     0.135 A 
HETATM   17  C12 UNL     1      18.517  -0.574  52.733  1.00  0.00     0.106 A 
HETATM   18  C14 UNL     1      19.887  -0.545  52.840  1.00  0.00     0.069 A 
BRANCH  15  19
HETATM   19  O2  UNL     1      18.006   1.328  49.596  1.00  0.00    -0.353 OA
HETATM   20  C9  UNL     1      18.193   2.720  49.440  1.00  0.00     0.210 C 
ENDBRANCH  15  19
BRANCH  16  21
HETATM   21  O3  UNL     1      16.488   0.080  51.449  1.00  0.00    -0.351 OA
HETATM   22  C11 UNL     1      15.651   1.073  51.997  1.00  0.00     0.210 C 
ENDBRANCH  16  21
BRANCH  17  23
HETATM   23  O4  UNL     1      17.637  -1.178  53.614  1.00  0.00    -0.353 OA
HETATM   24  C13 UNL     1      17.573  -2.578  53.707  1.00  0.00     0.210 C 
ENDBRANCH  17  23
ENDBRANCH  11  13
ENDBRANCH   4  11
BRANCH   1  25
HETATM   25  O1  UNL     1      26.936  -0.737  54.068  1.00  0.00    -0.357 OA
HETATM   26  C1  UNL     1      27.774  -1.280  53.059  1.00  0.00     0.209 C 
ENDBRANCH   1  25
BRANCH  10  27
HETATM   27  O5  UNL     1      27.168   2.118  52.832  1.00  0.00    -0.378 OA
HETATM   28  C18 UNL     1      28.318   2.373  53.572  1.00  0.00     0.203 C 
ENDBRANCH  10  27
TORSDOF 7
ENDMDL
MODEL 9
REMARK VINA RESULT:      -6.6      3.331      7.817
REMARK  7 active torsions:
REMARK  status: ('A' for Active; 'I' for Inactive)
REMARK    1  A    between atoms: O1_2  and  C2_3 
REMARK    2  A    between atoms: C5_6  and  N1_7 
REMARK    3  A    between atoms: N1_7  and  C6_8 
REMARK    4  A    between atoms: C8_10  and  O2_11 
REMARK    5  A    between atoms: C10_13  and  O3_14 
REMARK    6  A    between atoms: C12_16  and  O4_17 
REMARK    7  A    between atoms: C17_25  and  O5_26 
ROOT
HETATM    1  C2  UNL     1      24.729   5.837  49.205  1.00  0.00     0.081 A 
HETATM    2  C3  UNL     1      24.928   5.240  50.391  1.00  0.00     0.052 A 
HETATM    3  C4  UNL     1      23.657   4.761  50.971  1.00  0.00     0.040 A 
HETATM    4  C5  UNL     1      23.251   4.098  52.110  1.00  0.00     0.143 A 
HETATM    5  N2  UNL     1      21.946   3.801  52.315  1.00  0.00    -0.200 NA
HETATM    6  C15 UNL     1      21.012   4.152  51.405  1.00  0.00     0.225 A 
HETATM    7 CL1  UNL     1      19.353   3.726  51.760  1.00  0.00    -0.041 Cl
HETATM    8  N3  UNL     1      21.398   4.808  50.275  1.00  0.00    -0.219 NA
HETATM    9  C16 UNL     1      22.696   5.114  50.049  1.00  0.00     0.087 A 
HETATM   10  C17 UNL     1      23.282   5.819  48.860  1.00  0.00     0.230 A 
ENDROOT
BRANCH   4  11
HETATM   11  N1  UNL     1      24.356   3.804  52.983  1.00  0.00    -0.340 N 
HETATM   12  H5  UNL     1      24.794   4.571  53.555  1.00  0.00     0.167 HD
BRANCH  11  13
HETATM   13  C6  UNL     1      24.890   2.492  53.109  1.00  0.00     0.039 A 
HETATM   14  C7  UNL     1      24.085   1.372  53.147  1.00  0.00     0.069 A 
HETATM   15  C8  UNL     1      24.514   0.069  53.265  1.00  0.00     0.106 A 
HETATM   16  C10 UNL     1      25.902  -0.099  53.353  1.00  0.00     0.135 A 
HETATM   17  C12 UNL     1      26.755   1.010  53.317  1.00  0.00     0.106 A 
HETATM   18  C14 UNL     1      26.242   2.279  53.197  1.00  0.00     0.069 A 
BRANCH  15  19
HETATM   19  O2  UNL     1      23.656  -1.018  53.296  1.00  0.00    -0.353 OA
HETATM   20  C9  UNL     1      22.459  -0.893  54.036  1.00  0.00     0.210 C 
ENDBRANCH  15  19
BRANCH  16  21
HETATM   21  O3  UNL     1      26.318  -1.435  53.473  1.00  0.00    -0.351 OA
HETATM   22  C11 UNL     1      26.830  -2.181  52.392  1.00  0.00     0.210 C 
ENDBRANCH  16  21
BRANCH  17  23
HETATM   23  O4  UNL     1      28.093   0.671  53.415  1.00  0.00    -0.353 OA
HETATM   24  C13 UNL     1      28.727   0.636  54.668  1.00  0.00     0.210 C 
ENDBRANCH  17  23
ENDBRANCH  11  13
ENDBRANCH   4  11
BRANCH   1  25
HETATM   25  O1  UNL     1      25.822   6.350  48.514  1.00  0.00    -0.357 OA
HETATM   26  C1  UNL     1      25.592   7.485  47.693  1.00  0.00     0.209 C 
ENDBRANCH   1  25
BRANCH  10  27
HETATM   27  O5  UNL     1      23.112   5.016  47.731  1.00  0.00    -0.378 OA
HETATM   28  C18 UNL     1      22.349   5.725  46.809  1.00  0.00     0.203 C 
ENDBRANCH  10  27
TORSDOF 7
ENDMDL
