MODEL 1
REMARK VINA RESULT:      -7.6      0.000      0.000
REMARK  5 active torsions:
REMARK  status: ('A' for Active; 'I' for Inactive)
REMARK    1  A    between atoms: N1_1  and  C1_2 
REMARK    2  A    between atoms: N2_5  and  C4_6 
REMARK    3  A    between atoms: C4_6  and  C5_7 
REMARK    4  A    between atoms: C9_12  and  N4_13 
REMARK    5  A    between atoms: N4_13  and  C10_14 
ROOT
HETATM    1  C5  UNL     1      26.060   2.494  51.899  1.00  0.00    -0.009 A 
HETATM    2  C6  UNL     1      26.772   2.933  50.780  1.00  0.00     0.028 A 
HETATM    3  C7  UNL     1      25.899   3.134  49.695  1.00  0.00     0.094 A 
HETATM    4  N3  UNL     1      24.690   2.817  50.175  1.00  0.00    -0.335 N 
HETATM    5  C8  UNL     1      24.750   2.440  51.456  1.00  0.00     0.089 A 
HETATM    6  C9  UNL     1      23.327   2.171  51.787  1.00  0.00     0.151 A 
HETATM    7  N5  UNL     1      22.557   2.374  50.785  1.00  0.00    -0.251 NA
HETATM    8  C14 UNL     1      23.347   2.811  49.620  1.00  0.00     0.280 A 
ENDROOT
BRANCH   1   9
HETATM    9  C4  UNL     1      26.488   2.098  53.272  1.00  0.00     0.158 C 
BRANCH   9  10
HETATM   10  N2  UNL     1      27.085   0.841  53.368  1.00  0.00    -0.408 N 
HETATM   11  C3  UNL     1      28.461   0.685  53.488  1.00  0.00     0.119 C 
HETATM   12  C2  UNL     1      28.799  -0.787  53.762  1.00  0.00     0.055 C 
HETATM   13  C1  UNL     1      28.014  -1.613  52.779  1.00  0.00     0.221 C 
HETATM   14  C16 UNL     1      26.527  -1.425  52.980  1.00  0.00     0.055 C 
HETATM   15  C15 UNL     1      26.297  -0.196  53.890  1.00  0.00     0.119 C 
BRANCH  13  16
HETATM   16  N1  UNL     1      28.294  -3.028  53.014  1.00  0.00     0.083 N 
HETATM   17  H1  UNL     1      28.007  -3.249  54.014  1.00  0.00     0.313 HD
HETATM   18  H2  UNL     1      29.354  -3.190  52.944  1.00  0.00     0.313 HD
ENDBRANCH  13  16
ENDBRANCH   9  10
ENDBRANCH   1   9
BRANCH   6  19
HETATM   19  N4  UNL     1      22.981   1.772  53.113  1.00  0.00    -0.352 N 
HETATM   20  H12 UNL     1      23.379   2.151  53.971  1.00  0.00     0.166 HD
BRANCH  19  21
HETATM   21  C10 UNL     1      21.943   0.761  53.270  1.00  0.00     0.070 C 
HETATM   22  C11 UNL     1      21.848  -0.345  53.977  1.00  0.00     0.064 A 
HETATM   23  C12 UNL     1      22.349  -1.317  54.896  1.00  0.00     0.038 A 
HETATM   24  C13 UNL     1      21.080  -1.626  54.392  1.00  0.00     0.395 A 
HETATM   25  F1  UNL     1      19.839  -2.011  53.954  1.00  0.00    -0.456 F 
ENDBRANCH  19  21
ENDBRANCH   6  19
TORSDOF 5
ENDMDL
MODEL 2
REMARK VINA RESULT:      -7.4      2.904      6.428
REMARK  5 active torsions:
REMARK  status: ('A' for Active; 'I' for Inactive)
REMARK    1  A    between atoms: N1_1  and  C1_2 
REMARK    2  A    between atoms: N2_5  and  C4_6 
REMARK    3  A    between atoms: C4_6  and  C5_7 
REMARK    4  A    between atoms: C9_12  and  N4_13 
REMARK    5  A    between atoms: N4_13  and  C10_14 
ROOT
HETATM    1  C5  UNL     1      22.270   0.873  51.857  1.00  0.00    -0.009 A 
HETATM    2  C6  UNL     1      20.930   0.517  52.027  1.00  0.00     0.028 A 
HETATM    3  C7  UNL     1      20.793  -0.355  53.123  1.00  0.00     0.094 A 
HETATM    4  N3  UNL     1      22.038  -0.506  53.588  1.00  0.00    -0.335 N 
HETATM    5  C8  UNL     1      22.922   0.196  52.873  1.00  0.00     0.089 A 
HETATM    6  C9  UNL     1      24.205  -0.085  53.567  1.00  0.00     0.151 A 
HETATM    7  N5  UNL     1      24.046  -0.871  54.565  1.00  0.00    -0.251 NA
HETATM    8  C14 UNL     1      22.626  -1.241  54.695  1.00  0.00     0.280 A 
ENDROOT
BRANCH   1   9
HETATM    9  C4  UNL     1      22.966   1.719  50.845  1.00  0.00     0.158 C 
BRANCH   9  10
HETATM   10  N2  UNL     1      23.329   2.991  51.285  1.00  0.00    -0.408 N 
HETATM   11  C3  UNL     1      22.636   3.648  52.296  1.00  0.00     0.119 C 
HETATM   12  C2  UNL     1      23.376   4.933  52.689  1.00  0.00     0.055 C 
HETATM   13  C1  UNL     1      23.735   5.647  51.413  1.00  0.00     0.221 C 
HETATM   14  C16 UNL     1      24.665   4.807  50.566  1.00  0.00     0.055 C 
HETATM   15  C15 UNL     1      24.671   3.361  51.115  1.00  0.00     0.119 C 
BRANCH  13  16
HETATM   16  N1  UNL     1      24.458   6.874  51.740  1.00  0.00     0.083 N 
HETATM   17  H1  UNL     1      24.887   7.244  50.840  1.00  0.00     0.313 HD
HETATM   18  H2  UNL     1      25.268   6.635  52.405  1.00  0.00     0.313 HD
ENDBRANCH  13  16
ENDBRANCH   9  10
ENDBRANCH   1   9
BRANCH   6  19
HETATM   19  N4  UNL     1      25.403   0.536  53.101  1.00  0.00    -0.352 N 
HETATM   20  H12 UNL     1      25.504   1.519  52.850  1.00  0.00     0.166 HD
BRANCH  19  21
HETATM   21  C10 UNL     1      26.603  -0.285  53.008  1.00  0.00     0.070 C 
HETATM   22  C11 UNL     1      27.761  -0.280  53.634  1.00  0.00     0.064 A 
HETATM   23  C12 UNL     1      28.691   0.230  54.590  1.00  0.00     0.038 A 
HETATM   24  C13 UNL     1      29.195  -0.835  53.835  1.00  0.00     0.395 A 
HETATM   25  F1  UNL     1      29.773  -1.870  53.146  1.00  0.00    -0.456 F 
ENDBRANCH  19  21
ENDBRANCH   6  19
TORSDOF 5
ENDMDL
MODEL 3
REMARK VINA RESULT:      -7.4      1.836      5.273
REMARK  5 active torsions:
REMARK  status: ('A' for Active; 'I' for Inactive)
REMARK    1  A    between atoms: N1_1  and  C1_2 
REMARK    2  A    between atoms: N2_5  and  C4_6 
REMARK    3  A    between atoms: C4_6  and  C5_7 
REMARK    4  A    between atoms: C9_12  and  N4_13 
REMARK    5  A    between atoms: N4_13  and  C10_14 
ROOT
HETATM    1  C5  UNL     1      26.245   1.540  52.258  1.00  0.00    -0.009 A 
HETATM    2  C6  UNL     1      27.182   2.552  52.033  1.00  0.00     0.028 A 
HETATM    3  C7  UNL     1      28.275   2.407  52.906  1.00  0.00     0.094 A 
HETATM    4  N3  UNL     1      27.982   1.322  53.633  1.00  0.00    -0.335 N 
HETATM    5  C8  UNL     1      26.806   0.794  53.280  1.00  0.00     0.089 A 
HETATM    6  C9  UNL     1      26.697  -0.391  54.169  1.00  0.00     0.151 A 
HETATM    7  N5  UNL     1      27.711  -0.502  54.943  1.00  0.00    -0.251 NA
HETATM    8  C14 UNL     1      28.661   0.595  54.692  1.00  0.00     0.280 A 
ENDROOT
BRANCH   1   9
HETATM    9  C4  UNL     1      24.911   1.251  51.656  1.00  0.00     0.158 C 
BRANCH   9  10
HETATM   10  N2  UNL     1      24.047   2.342  51.578  1.00  0.00    -0.408 N 
HETATM   11  C3  UNL     1      23.304   2.615  50.435  1.00  0.00     0.119 C 
HETATM   12  C2  UNL     1      22.314   3.754  50.714  1.00  0.00     0.055 C 
HETATM   13  C1  UNL     1      23.078   4.845  51.414  1.00  0.00     0.221 C 
HETATM   14  C16 UNL     1      23.623   4.360  52.739  1.00  0.00     0.055 C 
HETATM   15  C15 UNL     1      23.518   2.817  52.787  1.00  0.00     0.119 C 
BRANCH  13  16
HETATM   16  N1  UNL     1      22.167   5.948  51.714  1.00  0.00     0.083 N 
HETATM   17  H1  UNL     1      22.511   6.802  51.181  1.00  0.00     0.313 HD
HETATM   18  H2  UNL     1      22.231   6.178  52.762  1.00  0.00     0.313 HD
ENDBRANCH  13  16
ENDBRANCH   9  10
ENDBRANCH   1   9
BRANCH   6  19
HETATM   19  N4  UNL     1      25.560  -1.249  54.056  1.00  0.00    -0.352 N 
HETATM   20  H12 UNL     1      25.562  -2.186  53.656  1.00  0.00     0.166 HD
BRANCH  19  21
HETATM   21  C10 UNL     1      24.292  -0.770  54.589  1.00  0.00     0.070 C 
HETATM   22  C11 UNL     1      23.077  -0.666  54.092  1.00  0.00     0.064 A 
HETATM   23  C12 UNL     1      22.109  -0.807  53.052  1.00  0.00     0.038 A 
HETATM   24  C13 UNL     1      21.595  -0.228  54.218  1.00  0.00     0.395 A 
HETATM   25  F1  UNL     1      21.004   0.346  55.315  1.00  0.00    -0.456 F 
ENDBRANCH  19  21
ENDBRANCH   6  19
TORSDOF 5
ENDMDL
MODEL 4
REMARK VINA RESULT:      -7.2      3.450      5.753
REMARK  5 active torsions:
REMARK  status: ('A' for Active; 'I' for Inactive)
REMARK    1  A    between atoms: N1_1  and  C1_2 
REMARK    2  A    between atoms: N2_5  and  C4_6 
REMARK    3  A    between atoms: C4_6  and  C5_7 
REMARK    4  A    between atoms: C9_12  and  N4_13 
REMARK    5  A    between atoms: N4_13  and  C10_14 
ROOT
HETATM    1  C5  UNL     1      24.167   1.821  52.673  1.00  0.00    -0.009 A 
HETATM    2  C6  UNL     1      23.159   0.863  52.804  1.00  0.00     0.028 A 
HETATM    3  C7  UNL     1      22.356   0.839  51.649  1.00  0.00     0.094 A 
HETATM    4  N3  UNL     1      22.890   1.770  50.851  1.00  0.00    -0.335 N 
HETATM    5  C8  UNL     1      23.947   2.360  51.418  1.00  0.00     0.089 A 
HETATM    6  C9  UNL     1      24.393   3.314  50.370  1.00  0.00     0.151 A 
HETATM    7  N5  UNL     1      23.652   3.260  49.328  1.00  0.00    -0.251 NA
HETATM    8  C14 UNL     1      22.587   2.258  49.516  1.00  0.00     0.280 A 
ENDROOT
BRANCH   1   9
HETATM    9  C4  UNL     1      25.245   2.281  53.596  1.00  0.00     0.158 C 
BRANCH   9  10
HETATM   10  N2  UNL     1      26.458   1.607  53.473  1.00  0.00    -0.408 N 
HETATM   11  C3  UNL     1      26.545   0.222  53.553  1.00  0.00     0.119 C 
HETATM   12  C2  UNL     1      27.965  -0.236  53.194  1.00  0.00     0.055 C 
HETATM   13  C1  UNL     1      28.921   0.640  53.958  1.00  0.00     0.221 C 
HETATM   14  C16 UNL     1      28.774   2.088  53.548  1.00  0.00     0.055 C 
HETATM   15  C15 UNL     1      27.467   2.248  52.737  1.00  0.00     0.119 C 
BRANCH  13  16
HETATM   16  N1  UNL     1      30.291   0.248  53.633  1.00  0.00     0.083 N 
HETATM   17  H1  UNL     1      30.933   0.705  54.348  1.00  0.00     0.313 HD
HETATM   18  H2  UNL     1      30.549   0.649  52.671  1.00  0.00     0.313 HD
ENDBRANCH  13  16
ENDBRANCH   9  10
ENDBRANCH   1   9
BRANCH   6  19
HETATM   19  N4  UNL     1      25.550   4.119  50.603  1.00  0.00    -0.352 N 
HETATM   20  H12 UNL     1      26.214   3.996  51.365  1.00  0.00     0.166 HD
BRANCH  19  21
HETATM   21  C10 UNL     1      25.836   5.187  49.655  1.00  0.00     0.070 C 
HETATM   22  C11 UNL     1      26.889   5.502  48.928  1.00  0.00     0.064 A 
HETATM   23  C12 UNL     1      28.224   5.300  48.466  1.00  0.00     0.038 A 
HETATM   24  C13 UNL     1      27.618   6.445  47.937  1.00  0.00     0.395 A 
HETATM   25  F1  UNL     1      27.106   7.584  47.369  1.00  0.00    -0.456 F 
ENDBRANCH  19  21
ENDBRANCH   6  19
TORSDOF 5
ENDMDL
MODEL 5
REMARK VINA RESULT:      -7.1      2.805      5.789
REMARK  5 active torsions:
REMARK  status: ('A' for Active; 'I' for Inactive)
REMARK    1  A    between atoms: N1_1  and  C1_2 
REMARK    2  A    between atoms: N2_5  and  C4_6 
REMARK    3  A    between atoms: C4_6  and  C5_7 
REMARK    4  A    between atoms: C9_12  and  N4_13 
REMARK    5  A    between atoms: N4_13  and  C10_14 
ROOT
HETATM    1  C5  UNL     1      23.399   1.400  51.775  1.00  0.00    -0.009 A 
HETATM    2  C6  UNL     1      22.426   1.443  50.773  1.00  0.00     0.028 A 
HETATM    3  C7  UNL     1      22.843   2.283  49.724  1.00  0.00     0.094 A 
HETATM    4  N3  UNL     1      24.047   2.724  50.107  1.00  0.00    -0.335 N 
HETATM    5  C8  UNL     1      24.400   2.228  51.297  1.00  0.00     0.089 A 
HETATM    6  C9  UNL     1      25.751   2.808  51.508  1.00  0.00     0.151 A 
HETATM    7  N5  UNL     1      26.107   3.556  50.532  1.00  0.00    -0.251 NA
HETATM    8  C14 UNL     1      25.045   3.596  49.512  1.00  0.00     0.280 A 
ENDROOT
BRANCH   1   9
HETATM    9  C4  UNL     1      23.452   0.714  53.098  1.00  0.00     0.158 C 
BRANCH   9  10
HETATM   10  N2  UNL     1      22.285   0.046  53.466  1.00  0.00    -0.408 N 
HETATM   11  C3  UNL     1      22.274  -1.313  53.762  1.00  0.00     0.119 C 
HETATM   12  C2  UNL     1      20.900  -1.719  54.311  1.00  0.00     0.055 C 
HETATM   13  C1  UNL     1      19.863  -1.123  53.398  1.00  0.00     0.221 C 
HETATM   14  C16 UNL     1      19.945   0.387  53.399  1.00  0.00     0.055 C 
HETATM   15  C15 UNL     1      21.275   0.816  54.062  1.00  0.00     0.119 C 
BRANCH  13  16
HETATM   16  N1  UNL     1      18.534  -1.472  53.894  1.00  0.00     0.083 N 
HETATM   17  H1  UNL     1      18.188  -0.658  54.485  1.00  0.00     0.313 HD
HETATM   18  H2  UNL     1      18.616  -2.325  54.543  1.00  0.00     0.313 HD
ENDBRANCH  13  16
ENDBRANCH   9  10
ENDBRANCH   1   9
BRANCH   6  19
HETATM   19  N4  UNL     1      26.483   2.467  52.686  1.00  0.00    -0.352 N 
HETATM   20  H12 UNL     1      26.346   2.878  53.609  1.00  0.00     0.166 HD
BRANCH  19  21
HETATM   21  C10 UNL     1      27.488   1.419  52.582  1.00  0.00     0.070 C 
HETATM   22  C11 UNL     1      28.093   0.646  53.461  1.00  0.00     0.064 A 
HETATM   23  C12 UNL     1      28.346   0.180  54.787  1.00  0.00     0.038 A 
HETATM   24  C13 UNL     1      29.138  -0.442  53.816  1.00  0.00     0.395 A 
HETATM   25  F1  UNL     1      29.957  -1.104  52.936  1.00  0.00    -0.456 F 
ENDBRANCH  19  21
ENDBRANCH   6  19
TORSDOF 5
ENDMDL
MODEL 6
REMARK VINA RESULT:      -6.9      3.712      7.609
REMARK  5 active torsions:
REMARK  status: ('A' for Active; 'I' for Inactive)
REMARK    1  A    between atoms: N1_1  and  C1_2 
REMARK    2  A    between atoms: N2_5  and  C4_6 
REMARK    3  A    between atoms: C4_6  and  C5_7 
REMARK    4  A    between atoms: C9_12  and  N4_13 
REMARK    5  A    between atoms: N4_13  and  C10_14 
ROOT
HETATM    1  C5  UNL     1      23.725   1.257  51.861  1.00  0.00    -0.009 A 
HETATM    2  C6  UNL     1      23.647   0.442  52.993  1.00  0.00     0.028 A 
HETATM    3  C7  UNL     1      24.904   0.357  53.619  1.00  0.00     0.094 A 
HETATM    4  N3  UNL     1      25.707   1.114  52.863  1.00  0.00    -0.335 N 
HETATM    5  C8  UNL     1      25.051   1.652  51.831  1.00  0.00     0.089 A 
HETATM    6  C9  UNL     1      26.101   2.460  51.159  1.00  0.00     0.151 A 
HETATM    7  N5  UNL     1      27.228   2.372  51.758  1.00  0.00    -0.251 NA
HETATM    8  C14 UNL     1      27.110   1.486  52.929  1.00  0.00     0.280 A 
ENDROOT
BRANCH   1   9
HETATM    9  C4  UNL     1      22.721   1.644  50.828  1.00  0.00     0.158 C 
BRANCH   9  10
HETATM   10  N2  UNL     1      22.354   2.989  50.834  1.00  0.00    -0.408 N 
HETATM   11  C3  UNL     1      22.100   3.690  49.660  1.00  0.00     0.119 C 
HETATM   12  C2  UNL     1      21.541   5.080  49.991  1.00  0.00     0.055 C 
HETATM   13  C1  UNL     1      22.417   5.668  51.063  1.00  0.00     0.221 C 
HETATM   14  C16 UNL     1      22.371   4.830  52.321  1.00  0.00     0.055 C 
HETATM   15  C15 UNL     1      21.718   3.467  51.989  1.00  0.00     0.119 C 
BRANCH  13  16
HETATM   16  N1  UNL     1      21.910   6.991  51.421  1.00  0.00     0.083 N 
HETATM   17  H1  UNL     1      21.701   6.983  52.464  1.00  0.00     0.313 HD
HETATM   18  H2  UNL     1      20.979   7.158  50.911  1.00  0.00     0.313 HD
ENDBRANCH  13  16
ENDBRANCH   9  10
ENDBRANCH   1   9
BRANCH   6  19
HETATM   19  N4  UNL     1      25.760   3.231  50.006  1.00  0.00    -0.352 N 
HETATM   20  H12 UNL     1      24.818   3.371  49.642  1.00  0.00     0.166 HD
BRANCH  19  21
HETATM   21  C10 UNL     1      26.837   3.911  49.300  1.00  0.00     0.070 C 
HETATM   22  C11 UNL     1      27.018   5.149  48.889  1.00  0.00     0.064 A 
HETATM   23  C12 UNL     1      26.617   6.510  48.730  1.00  0.00     0.038 A 
HETATM   24  C13 UNL     1      27.854   6.221  48.144  1.00  0.00     0.395 A 
HETATM   25  F1  UNL     1      29.071   6.032  47.540  1.00  0.00    -0.456 F 
ENDBRANCH  19  21
ENDBRANCH   6  19
TORSDOF 5
ENDMDL
MODEL 7
REMARK VINA RESULT:      -6.8      2.018      2.726
REMARK  5 active torsions:
REMARK  status: ('A' for Active; 'I' for Inactive)
REMARK    1  A    between atoms: N1_1  and  C1_2 
REMARK    2  A    between atoms: N2_5  and  C4_6 
REMARK    3  A    between atoms: C4_6  and  C5_7 
REMARK    4  A    between atoms: C9_12  and  N4_13 
REMARK    5  A    between atoms: N4_13  and  C10_14 
ROOT
HETATM    1  C5  UNL     1      23.804   2.416  52.655  1.00  0.00    -0.009 A 
HETATM    2  C6  UNL     1      24.187   3.584  53.318  1.00  0.00     0.028 A 
HETATM    3  C7  UNL     1      23.494   4.691  52.795  1.00  0.00     0.094 A 
HETATM    4  N3  UNL     1      22.713   4.176  51.839  1.00  0.00    -0.335 N 
HETATM    5  C8  UNL     1      22.870   2.853  51.732  1.00  0.00     0.089 A 
HETATM    6  C9  UNL     1      21.907   2.493  50.659  1.00  0.00     0.151 A 
HETATM    7  N5  UNL     1      21.284   3.519  50.213  1.00  0.00    -0.251 NA
HETATM    8  C14 UNL     1      21.734   4.731  50.919  1.00  0.00     0.280 A 
ENDROOT
BRANCH   1   9
HETATM    9  C4  UNL     1      24.248   0.997  52.777  1.00  0.00     0.158 C 
BRANCH   9  10
HETATM   10  N2  UNL     1      25.613   0.820  52.992  1.00  0.00    -0.408 N 
HETATM   11  C3  UNL     1      26.105  -0.141  53.868  1.00  0.00     0.119 C 
HETATM   12  C2  UNL     1      27.632  -0.225  53.751  1.00  0.00     0.055 C 
HETATM   13  C1  UNL     1      28.159   1.184  53.782  1.00  0.00     0.221 C 
HETATM   14  C16 UNL     1      27.638   1.982  52.607  1.00  0.00     0.055 C 
HETATM   15  C15 UNL     1      26.473   1.205  51.952  1.00  0.00     0.119 C 
BRANCH  13  16
HETATM   16  N1  UNL     1      29.614   1.153  53.657  1.00  0.00     0.083 N 
HETATM   17  H1  UNL     1      29.849   0.575  52.795  1.00  0.00     0.313 HD
HETATM   18  H2  UNL     1      30.026   0.640  54.506  1.00  0.00     0.313 HD
ENDBRANCH  13  16
ENDBRANCH   9  10
ENDBRANCH   1   9
BRANCH   6  19
HETATM   19  N4  UNL     1      21.759   1.124  50.282  1.00  0.00    -0.352 N 
HETATM   20  H12 UNL     1      22.301   0.645  49.563  1.00  0.00     0.166 HD
BRANCH  19  21
HETATM   21  C10 UNL     1      20.781   0.322  51.003  1.00  0.00     0.070 C 
HETATM   22  C11 UNL     1      20.482   0.178  52.278  1.00  0.00     0.064 A 
HETATM   23  C12 UNL     1      20.654   0.461  53.666  1.00  0.00     0.038 A 
HETATM   24  C13 UNL     1      19.671  -0.502  53.411  1.00  0.00     0.395 A 
HETATM   25  F1  UNL     1      18.694  -1.452  53.257  1.00  0.00    -0.456 F 
ENDBRANCH  19  21
ENDBRANCH   6  19
TORSDOF 5
ENDMDL
MODEL 8
REMARK VINA RESULT:      -6.8      7.121      9.001
REMARK  5 active torsions:
REMARK  status: ('A' for Active; 'I' for Inactive)
REMARK    1  A    between atoms: N1_1  and  C1_2 
REMARK    2  A    between atoms: N2_5  and  C4_6 
REMARK    3  A    between atoms: C4_6  and  C5_7 
REMARK    4  A    between atoms: C9_12  and  N4_13 
REMARK    5  A    between atoms: N4_13  and  C10_14 
ROOT
HETATM    1  C5  UNL     1      31.615   7.223  48.725  1.00  0.00    -0.009 A 
HETATM    2  C6  UNL     1      32.241   8.461  48.559  1.00  0.00     0.028 A 
HETATM    3  C7  UNL     1      31.293   9.446  48.226  1.00  0.00     0.094 A 
HETATM    4  N3  UNL     1      30.126   8.792  48.199  1.00  0.00    -0.335 N 
HETATM    5  C8  UNL     1      30.280   7.495  48.485  1.00  0.00     0.089 A 
HETATM    6  C9  UNL     1      28.888   6.980  48.432  1.00  0.00     0.151 A 
HETATM    7  N5  UNL     1      28.048   7.900  48.139  1.00  0.00    -0.251 NA
HETATM    8  C14 UNL     1      28.749   9.182  47.948  1.00  0.00     0.280 A 
ENDROOT
BRANCH   1   9
HETATM    9  C4  UNL     1      32.142   5.862  49.033  1.00  0.00     0.158 C 
BRANCH   9  10
HETATM   10  N2  UNL     1      32.958   5.306  48.050  1.00  0.00    -0.408 N 
HETATM   11  C3  UNL     1      32.573   5.252  46.715  1.00  0.00     0.119 C 
HETATM   12  C2  UNL     1      33.744   4.764  45.851  1.00  0.00     0.055 C 
HETATM   13  C1  UNL     1      34.326   3.556  46.533  1.00  0.00     0.221 C 
HETATM   14  C16 UNL     1      34.865   3.913  47.900  1.00  0.00     0.055 C 
HETATM   15  C15 UNL     1      34.340   5.313  48.294  1.00  0.00     0.119 C 
BRANCH  13  16
HETATM   16  N1  UNL     1      35.458   3.066  45.750  1.00  0.00     0.083 N 
HETATM   17  H1  UNL     1      35.068   2.624  44.864  1.00  0.00     0.313 HD
HETATM   18  H2  UNL     1      35.954   2.288  46.302  1.00  0.00     0.313 HD
ENDBRANCH  13  16
ENDBRANCH   9  10
ENDBRANCH   1   9
BRANCH   6  19
HETATM   19  N4  UNL     1      28.639   5.605  48.728  1.00  0.00    -0.352 N 
HETATM   20  H12 UNL     1      29.344   4.916  48.987  1.00  0.00     0.166 HD
BRANCH  19  21
HETATM   21  C10 UNL     1      27.258   5.141  48.694  1.00  0.00     0.070 C 
HETATM   22  C11 UNL     1      26.600   4.195  49.331  1.00  0.00     0.064 A 
HETATM   23  C12 UNL     1      26.500   3.118  50.263  1.00  0.00     0.038 A 
HETATM   24  C13 UNL     1      25.307   3.375  49.578  1.00  0.00     0.395 A 
HETATM   25  F1  UNL     1      24.097   3.553  48.957  1.00  0.00    -0.456 F 
ENDBRANCH  19  21
ENDBRANCH   6  19
TORSDOF 5
ENDMDL
MODEL 9
REMARK VINA RESULT:      -6.7      2.892      5.938
REMARK  5 active torsions:
REMARK  status: ('A' for Active; 'I' for Inactive)
REMARK    1  A    between atoms: N1_1  and  C1_2 
REMARK    2  A    between atoms: N2_5  and  C4_6 
REMARK    3  A    between atoms: C4_6  and  C5_7 
REMARK    4  A    between atoms: C9_12  and  N4_13 
REMARK    5  A    between atoms: N4_13  and  C10_14 
ROOT
HETATM    1  C5  UNL     1      22.864   0.898  52.526  1.00  0.00    -0.009 A 
HETATM    2  C6  UNL     1      24.249   0.735  52.609  1.00  0.00     0.028 A 
HETATM    3  C7  UNL     1      24.571  -0.196  53.612  1.00  0.00     0.094 A 
HETATM    4  N3  UNL     1      23.388  -0.576  54.110  1.00  0.00    -0.335 N 
HETATM    5  C8  UNL     1      22.374   0.044  53.498  1.00  0.00     0.089 A 
HETATM    6  C9  UNL     1      21.182  -0.536  54.169  1.00  0.00     0.151 A 
HETATM    7  N5  UNL     1      21.507  -1.388  55.067  1.00  0.00    -0.251 NA
HETATM    8  C14 UNL     1      22.973  -1.512  55.140  1.00  0.00     0.280 A 
ENDROOT
BRANCH   1   9
HETATM    9  C4  UNL     1      22.002   1.776  51.683  1.00  0.00     0.158 C 
BRANCH   9  10
HETATM   10  N2  UNL     1      22.472   3.077  51.510  1.00  0.00    -0.408 N 
HETATM   11  C3  UNL     1      22.881   3.556  50.270  1.00  0.00     0.119 C 
HETATM   12  C2  UNL     1      23.162   5.062  50.356  1.00  0.00     0.055 C 
HETATM   13  C1  UNL     1      24.002   5.288  51.584  1.00  0.00     0.221 C 
HETATM   14  C16 UNL     1      23.257   4.874  52.833  1.00  0.00     0.055 C 
HETATM   15  C15 UNL     1      22.021   4.040  52.425  1.00  0.00     0.119 C 
BRANCH  13  16
HETATM   16  N1  UNL     1      24.281   6.716  51.714  1.00  0.00     0.083 N 
HETATM   17  H1  UNL     1      25.006   6.970  50.978  1.00  0.00     0.313 HD
HETATM   18  H2  UNL     1      24.726   6.899  52.675  1.00  0.00     0.313 HD
ENDBRANCH  13  16
ENDBRANCH   9  10
ENDBRANCH   1   9
BRANCH   6  19
HETATM   19  N4  UNL     1      19.878  -0.135  53.748  1.00  0.00    -0.352 N 
HETATM   20  H12 UNL     1      19.564   0.827  53.622  1.00  0.00     0.166 HD
BRANCH  19  21
HETATM   21  C10 UNL     1      18.914  -1.180  53.432  1.00  0.00     0.070 C 
HETATM   22  C11 UNL     1      17.672  -1.172  52.993  1.00  0.00     0.064 A 
HETATM   23  C12 UNL     1      16.479  -0.520  52.559  1.00  0.00     0.038 A 
HETATM   24  C13 UNL     1      16.368  -1.914  52.602  1.00  0.00     0.395 A 
HETATM   25  F1  UNL     1      16.167  -3.271  52.614  1.00  0.00    -0.456 F 
ENDBRANCH  19  21
ENDBRANCH   6  19
TORSDOF 5
ENDMDL
