MODEL 1
REMARK VINA RESULT:      -9.0      0.000      0.000
REMARK  0 active torsions:
REMARK  status: ('A' for Active; 'I' for Inactive)
ROOT
HETATM    1  C1  UNL     1      22.055   4.523  51.870  1.00  0.00     0.016 C 
HETATM    2  C2  UNL     1      21.674   3.337  51.347  1.00  0.00    -0.008 C 
HETATM    3  C3  UNL     1      22.468   2.157  50.849  1.00  0.00     0.095 C 
HETATM    4  C4  UNL     1      22.933   2.482  49.444  1.00  0.00     0.170 C 
HETATM    5  N1  UNL     1      24.221   3.221  49.526  1.00  0.00    -0.274 NA
HETATM    6  C5  UNL     1      24.918   3.603  50.585  1.00  0.00     0.120 C 
HETATM    7  C6  UNL     1      26.090   2.770  51.033  1.00  0.00     0.085 C 
HETATM    8  C7  UNL     1      26.129   2.803  52.553  1.00  0.00     0.048 C 
HETATM    9  C8  UNL     1      27.212   1.931  53.076  1.00  0.00    -0.029 A 
HETATM   10  C9  UNL     1      28.462   2.238  53.552  1.00  0.00     0.124 A 
HETATM   11  N2  UNL     1      29.307   1.323  53.973  1.00  0.00    -0.273 NA
HETATM   12  C10 UNL     1      29.076   0.016  53.995  1.00  0.00     0.117 A 
HETATM   13  C11 UNL     1      27.824  -0.403  53.527  1.00  0.00     0.032 A 
HETATM   14  C12 UNL     1      26.935   0.582  53.083  1.00  0.00    -0.010 A 
HETATM   15  C13 UNL     1      25.678   0.007  52.642  1.00  0.00     0.129 C 
HETATM   16  N3  UNL     1      24.557  -0.458  52.343  1.00  0.00    -0.259 NA
HETATM   17  C14 UNL     1      23.351  -0.423  53.042  1.00  0.00     0.073 A 
HETATM   18  C15 UNL     1      23.505  -0.881  54.332  1.00  0.00     0.033 A 
HETATM   19  C16 UNL     1      22.477  -0.969  55.266  1.00  0.00     0.002 A 
HETATM   20  C17 UNL     1      21.207  -0.577  54.900  1.00  0.00     0.002 A 
HETATM   21  C18 UNL     1      21.059  -0.119  53.608  1.00  0.00     0.021 A 
HETATM   22  C19 UNL     1      22.079  -0.035  52.688  1.00  0.00     0.030 A 
HETATM   23  S1  UNL     1      21.645   0.605  51.053  1.00  0.00    -0.117 SA
HETATM   24  N4  UNL     1      24.546   4.795  51.309  1.00  0.00    -0.246 NA
HETATM   25  C20 UNL     1      23.425   5.106  51.945  1.00  0.00     0.118 C 
ENDROOT
TORSDOF 0
ENDMDL
MODEL 2
REMARK VINA RESULT:      -8.4      2.427      5.145
REMARK  0 active torsions:
REMARK  status: ('A' for Active; 'I' for Inactive)
ROOT
HETATM    1  C1  UNL     1      20.067   1.895  49.279  1.00  0.00     0.016 C 
HETATM    2  C2  UNL     1      20.217   3.155  49.745  1.00  0.00    -0.008 C 
HETATM    3  C3  UNL     1      20.810   3.689  51.023  1.00  0.00     0.095 C 
HETATM    4  C4  UNL     1      19.758   3.550  52.105  1.00  0.00     0.170 C 
HETATM    5  N1  UNL     1      19.869   2.196  52.707  1.00  0.00    -0.274 NA
HETATM    6  C5  UNL     1      20.687   1.196  52.413  1.00  0.00     0.120 C 
HETATM    7  C6  UNL     1      21.918   0.983  53.253  1.00  0.00     0.085 C 
HETATM    8  C7  UNL     1      23.034   0.517  52.332  1.00  0.00     0.048 C 
HETATM    9  C8  UNL     1      24.311   0.366  53.077  1.00  0.00    -0.029 A 
HETATM   10  C9  UNL     1      24.943  -0.752  53.559  1.00  0.00     0.124 A 
HETATM   11  N2  UNL     1      26.082  -0.698  54.214  1.00  0.00    -0.273 NA
HETATM   12  C10 UNL     1      26.757   0.410  54.491  1.00  0.00     0.117 A 
HETATM   13  C11 UNL     1      26.194   1.611  54.042  1.00  0.00     0.032 A 
HETATM   14  C12 UNL     1      24.982   1.538  53.345  1.00  0.00    -0.010 A 
HETATM   15  C13 UNL     1      24.526   2.851  52.930  1.00  0.00     0.129 C 
HETATM   16  N3  UNL     1      24.160   3.960  52.484  1.00  0.00    -0.259 NA
HETATM   17  C14 UNL     1      24.216   4.475  51.189  1.00  0.00     0.073 A 
HETATM   18  C15 UNL     1      25.484   4.368  50.661  1.00  0.00     0.033 A 
HETATM   19  C16 UNL     1      25.848   4.802  49.389  1.00  0.00     0.002 A 
HETATM   20  C17 UNL     1      24.892   5.381  48.583  1.00  0.00     0.002 A 
HETATM   21  C18 UNL     1      23.625   5.484  49.116  1.00  0.00     0.021 A 
HETATM   22  C19 UNL     1      23.270   5.055  50.375  1.00  0.00     0.030 A 
HETATM   23  S1  UNL     1      21.542   5.290  50.855  1.00  0.00    -0.117 SA
HETATM   24  N4  UNL     1      20.407   0.334  51.290  1.00  0.00    -0.246 NA
HETATM   25  C20 UNL     1      20.290   0.608  49.998  1.00  0.00     0.118 C 
ENDROOT
TORSDOF 0
ENDMDL
MODEL 3
REMARK VINA RESULT:      -8.4      2.817      4.931
REMARK  0 active torsions:
REMARK  status: ('A' for Active; 'I' for Inactive)
ROOT
HETATM    1  C1  UNL     1      21.428   5.021  51.896  1.00  0.00     0.016 C 
HETATM    2  C2  UNL     1      21.678   3.732  51.574  1.00  0.00    -0.008 C 
HETATM    3  C3  UNL     1      22.523   3.114  50.490  1.00  0.00     0.095 C 
HETATM    4  C4  UNL     1      21.714   3.144  49.210  1.00  0.00     0.170 C 
HETATM    5  N1  UNL     1      21.937   4.450  48.535  1.00  0.00    -0.274 NA
HETATM    6  C5  UNL     1      22.671   5.488  48.907  1.00  0.00     0.120 C 
HETATM    7  C6  UNL     1      24.046   5.663  48.320  1.00  0.00     0.085 C 
HETATM    8  C7  UNL     1      24.948   6.224  49.408  1.00  0.00     0.048 C 
HETATM    9  C8  UNL     1      26.349   6.346  48.929  1.00  0.00    -0.029 A 
HETATM   10  C9  UNL     1      27.059   7.437  48.496  1.00  0.00     0.124 A 
HETATM   11  N2  UNL     1      28.308   7.358  48.093  1.00  0.00    -0.273 NA
HETATM   12  C10 UNL     1      29.033   6.247  48.049  1.00  0.00     0.117 A 
HETATM   13  C11 UNL     1      28.397   5.072  48.470  1.00  0.00     0.032 A 
HETATM   14  C12 UNL     1      27.068   5.172  48.897  1.00  0.00    -0.010 A 
HETATM   15  C13 UNL     1      26.545   3.885  49.316  1.00  0.00     0.129 C 
HETATM   16  N3  UNL     1      26.103   2.806  49.767  1.00  0.00    -0.259 NA
HETATM   17  C14 UNL     1      25.897   2.395  51.083  1.00  0.00     0.073 A 
HETATM   18  C15 UNL     1      27.030   2.571  51.847  1.00  0.00     0.033 A 
HETATM   19  C16 UNL     1      27.129   2.246  53.197  1.00  0.00     0.002 A 
HETATM   20  C17 UNL     1      26.032   1.711  53.838  1.00  0.00     0.002 A 
HETATM   21  C18 UNL     1      24.901   1.537  53.068  1.00  0.00     0.021 A 
HETATM   22  C19 UNL     1      24.808   1.859  51.733  1.00  0.00     0.030 A 
HETATM   23  S1  UNL     1      23.217   1.548  50.932  1.00  0.00    -0.117 SA
HETATM   24  N4  UNL     1      22.162   6.428  49.877  1.00  0.00    -0.246 NA
HETATM   25  C20 UNL     1      21.786   6.252  51.136  1.00  0.00     0.118 C 
ENDROOT
TORSDOF 0
ENDMDL
MODEL 4
REMARK VINA RESULT:      -7.8      2.778      6.106
REMARK  0 active torsions:
REMARK  status: ('A' for Active; 'I' for Inactive)
ROOT
HETATM    1  C1  UNL     1      23.404   3.774  48.790  1.00  0.00     0.016 C 
HETATM    2  C2  UNL     1      23.795   4.048  50.055  1.00  0.00    -0.008 C 
HETATM    3  C3  UNL     1      23.065   3.975  51.370  1.00  0.00     0.095 C 
HETATM    4  C4  UNL     1      22.226   5.231  51.495  1.00  0.00     0.170 C 
HETATM    5  N1  UNL     1      20.914   4.996  50.837  1.00  0.00    -0.274 NA
HETATM    6  C5  UNL     1      20.457   3.926  50.203  1.00  0.00     0.120 C 
HETATM    7  C6  UNL     1      19.555   2.968  50.933  1.00  0.00     0.085 C 
HETATM    8  C7  UNL     1      19.891   1.562  50.462  1.00  0.00     0.048 C 
HETATM    9  C8  UNL     1      19.097   0.548  51.203  1.00  0.00    -0.029 A 
HETATM   10  C9  UNL     1      17.976  -0.155  50.841  1.00  0.00     0.124 A 
HETATM   11  N2  UNL     1      17.390  -1.020  51.640  1.00  0.00    -0.273 NA
HETATM   12  C10 UNL     1      17.789  -1.324  52.868  1.00  0.00     0.117 A 
HETATM   13  C11 UNL     1      18.930  -0.658  53.335  1.00  0.00     0.032 A 
HETATM   14  C12 UNL     1      19.542   0.260  52.473  1.00  0.00    -0.010 A 
HETATM   15  C13 UNL     1      20.715   0.862  53.081  1.00  0.00     0.129 C 
HETATM   16  N3  UNL     1      21.777   1.324  53.549  1.00  0.00    -0.259 NA
HETATM   17  C14 UNL     1      23.104   1.021  53.246  1.00  0.00     0.073 A 
HETATM   18  C15 UNL     1      23.337  -0.335  53.316  1.00  0.00     0.033 A 
HETATM   19  C16 UNL     1      24.568  -0.937  53.072  1.00  0.00     0.002 A 
HETATM   20  C17 UNL     1      25.644  -0.145  52.732  1.00  0.00     0.002 A 
HETATM   21  C18 UNL     1      25.404   1.211  52.663  1.00  0.00     0.021 A 
HETATM   22  C19 UNL     1      24.185   1.802  52.907  1.00  0.00     0.030 A 
HETATM   23  S1  UNL     1      24.110   3.602  52.747  1.00  0.00    -0.117 SA
HETATM   24  N4  UNL     1      20.837   3.676  48.832  1.00  0.00    -0.246 NA
HETATM   25  C20 UNL     1      22.031   3.481  48.288  1.00  0.00     0.118 C 
ENDROOT
TORSDOF 0
ENDMDL
MODEL 5
REMARK VINA RESULT:      -7.7      2.116      2.769
REMARK  0 active torsions:
REMARK  status: ('A' for Active; 'I' for Inactive)
ROOT
HETATM    1  C1  UNL     1      20.732   5.816  50.467  1.00  0.00     0.016 C 
HETATM    2  C2  UNL     1      20.509   4.779  49.630  1.00  0.00    -0.008 C 
HETATM    3  C3  UNL     1      21.356   3.590  49.256  1.00  0.00     0.095 C 
HETATM    4  C4  UNL     1      22.355   4.051  48.215  1.00  0.00     0.170 C 
HETATM    5  N1  UNL     1      23.553   4.593  48.909  1.00  0.00    -0.274 NA
HETATM    6  C5  UNL     1      23.803   4.722  50.203  1.00  0.00     0.120 C 
HETATM    7  C6  UNL     1      24.648   3.685  50.895  1.00  0.00     0.085 C 
HETATM    8  C7  UNL     1      24.091   3.491  52.296  1.00  0.00     0.048 C 
HETATM    9  C8  UNL     1      24.821   2.416  53.016  1.00  0.00    -0.029 A 
HETATM   10  C9  UNL     1      25.802   2.483  53.973  1.00  0.00     0.124 A 
HETATM   11  N2  UNL     1      26.352   1.412  54.503  1.00  0.00    -0.273 NA
HETATM   12  C10 UNL     1      26.046   0.158  54.194  1.00  0.00     0.117 A 
HETATM   13  C11 UNL     1      25.053  -0.019  53.223  1.00  0.00     0.032 A 
HETATM   14  C12 UNL     1      24.476   1.130  52.668  1.00  0.00    -0.010 A 
HETATM   15  C13 UNL     1      23.457   0.796  51.690  1.00  0.00     0.129 C 
HETATM   16  N3  UNL     1      22.515   0.532  50.912  1.00  0.00    -0.259 NA
HETATM   17  C14 UNL     1      21.136   0.624  51.102  1.00  0.00     0.073 A 
HETATM   18  C15 UNL     1      20.742  -0.033  52.247  1.00  0.00     0.033 A 
HETATM   19  C16 UNL     1      19.426  -0.119  52.693  1.00  0.00     0.002 A 
HETATM   20  C17 UNL     1      18.431   0.488  51.958  1.00  0.00     0.002 A 
HETATM   21  C18 UNL     1      18.831   1.144  50.813  1.00  0.00     0.021 A 
HETATM   22  C19 UNL     1      20.134   1.225  50.375  1.00  0.00     0.030 A 
HETATM   23  S1  UNL     1      20.419   2.148  48.846  1.00  0.00    -0.117 SA
HETATM   24  N4  UNL     1      23.256   5.835  50.942  1.00  0.00    -0.246 NA
HETATM   25  C20 UNL     1      21.999   6.195  51.157  1.00  0.00     0.118 C 
ENDROOT
TORSDOF 0
ENDMDL
MODEL 6
REMARK VINA RESULT:      -7.4      9.783     12.574
REMARK  0 active torsions:
REMARK  status: ('A' for Active; 'I' for Inactive)
ROOT
HETATM    1  C1  UNL     1      33.555   7.248  45.111  1.00  0.00     0.016 C 
HETATM    2  C2  UNL     1      33.507   6.864  46.406  1.00  0.00    -0.008 C 
HETATM    3  C3  UNL     1      33.267   7.640  47.675  1.00  0.00     0.095 C 
HETATM    4  C4  UNL     1      34.573   8.309  48.054  1.00  0.00     0.170 C 
HETATM    5  N1  UNL     1      34.659   9.619  47.356  1.00  0.00    -0.274 NA
HETATM    6  C5  UNL     1      33.815  10.192  46.512  1.00  0.00     0.120 C 
HETATM    7  C6  UNL     1      32.859  11.237  47.023  1.00  0.00     0.085 C 
HETATM    8  C7  UNL     1      31.547  11.075  46.272  1.00  0.00     0.048 C 
HETATM    9  C8  UNL     1      30.521  12.020  46.783  1.00  0.00    -0.029 A 
HETATM   10  C9  UNL     1      30.067  13.212  46.278  1.00  0.00     0.124 A 
HETATM   11  N2  UNL     1      29.144  13.932  46.878  1.00  0.00    -0.273 NA
HETATM   12  C10 UNL     1      28.543  13.617  48.018  1.00  0.00     0.117 A 
HETATM   13  C11 UNL     1      28.938  12.414  48.618  1.00  0.00     0.032 A 
HETATM   14  C12 UNL     1      29.921  11.658  47.968  1.00  0.00    -0.010 A 
HETATM   15  C13 UNL     1      30.219  10.436  48.692  1.00  0.00     0.129 C 
HETATM   16  N3  UNL     1      30.427   9.338  49.251  1.00  0.00    -0.259 NA
HETATM   17  C14 UNL     1      30.014   8.053  48.896  1.00  0.00     0.073 A 
HETATM   18  C15 UNL     1      28.653   8.004  48.685  1.00  0.00     0.033 A 
HETATM   19  C16 UNL     1      27.952   6.857  48.325  1.00  0.00     0.002 A 
HETATM   20  C17 UNL     1      28.643   5.675  48.163  1.00  0.00     0.002 A 
HETATM   21  C18 UNL     1      30.004   5.731  48.375  1.00  0.00     0.021 A 
HETATM   22  C19 UNL     1      30.693   6.868  48.731  1.00  0.00     0.030 A 
HETATM   23  S1  UNL     1      32.481   6.699  48.949  1.00  0.00    -0.117 SA
HETATM   24  N4  UNL     1      33.802   9.804  45.121  1.00  0.00    -0.246 NA
HETATM   25  C20 UNL     1      33.561   8.630  44.553  1.00  0.00     0.118 C 
ENDROOT
TORSDOF 0
ENDMDL
MODEL 7
REMARK VINA RESULT:      -7.2      4.765      8.075
REMARK  0 active torsions:
REMARK  status: ('A' for Active; 'I' for Inactive)
ROOT
HETATM    1  C1  UNL     1      24.018   8.205  44.858  1.00  0.00     0.016 C 
HETATM    2  C2  UNL     1      24.460   8.683  46.043  1.00  0.00    -0.008 C 
HETATM    3  C3  UNL     1      24.083   8.354  47.463  1.00  0.00     0.095 C 
HETATM    4  C4  UNL     1      22.806   9.105  47.782  1.00  0.00     0.170 C 
HETATM    5  N1  UNL     1      21.646   8.277  47.359  1.00  0.00    -0.274 NA
HETATM    6  C5  UNL     1      21.615   7.088  46.776  1.00  0.00     0.120 C 
HETATM    7  C6  UNL     1      21.382   5.862  47.619  1.00  0.00     0.085 C 
HETATM    8  C7  UNL     1      22.224   4.735  47.043  1.00  0.00     0.048 C 
HETATM    9  C8  UNL     1      22.113   3.509  47.874  1.00  0.00    -0.029 A 
HETATM   10  C9  UNL     1      21.382   2.362  47.691  1.00  0.00     0.124 A 
HETATM   11  N2  UNL     1      21.397   1.365  48.548  1.00  0.00    -0.273 NA
HETATM   12  C10 UNL     1      22.098   1.330  49.674  1.00  0.00     0.117 A 
HETATM   13  C11 UNL     1      22.880   2.457  49.956  1.00  0.00     0.032 A 
HETATM   14  C12 UNL     1      22.855   3.511  49.034  1.00  0.00    -0.010 A 
HETATM   15  C13 UNL     1      23.719   4.601  49.446  1.00  0.00     0.129 C 
HETATM   16  N3  UNL     1      24.525   5.511  49.736  1.00  0.00    -0.259 NA
HETATM   17  C14 UNL     1      25.771   5.820  49.190  1.00  0.00     0.073 A 
HETATM   18  C15 UNL     1      26.596   4.717  49.167  1.00  0.00     0.033 A 
HETATM   19  C16 UNL     1      27.902   4.719  48.685  1.00  0.00     0.002 A 
HETATM   20  C17 UNL     1      28.429   5.892  48.191  1.00  0.00     0.002 A 
HETATM   21  C18 UNL     1      27.599   6.992  48.216  1.00  0.00     0.021 A 
HETATM   22  C19 UNL     1      26.308   6.986  48.694  1.00  0.00     0.030 A 
HETATM   23  S1  UNL     1      25.407   8.552  48.618  1.00  0.00    -0.117 SA
HETATM   24  N4  UNL     1      21.820   6.971  45.352  1.00  0.00    -0.246 NA
HETATM   25  C20 UNL     1      22.858   7.305  44.598  1.00  0.00     0.118 C 
ENDROOT
TORSDOF 0
ENDMDL
MODEL 8
REMARK VINA RESULT:      -7.1      8.145     10.174
REMARK  0 active torsions:
REMARK  status: ('A' for Active; 'I' for Inactive)
ROOT
HETATM    1  C1  UNL     1      28.972  12.837  49.063  1.00  0.00     0.016 C 
HETATM    2  C2  UNL     1      28.052  12.388  48.180  1.00  0.00    -0.008 C 
HETATM    3  C3  UNL     1      28.101  11.291  47.149  1.00  0.00     0.095 C 
HETATM    4  C4  UNL     1      28.813  11.843  45.931  1.00  0.00     0.170 C 
HETATM    5  N1  UNL     1      30.276  11.645  46.103  1.00  0.00    -0.274 NA
HETATM    6  C5  UNL     1      30.953  11.115  47.110  1.00  0.00     0.120 C 
HETATM    7  C6  UNL     1      31.406   9.682  47.018  1.00  0.00     0.085 C 
HETATM    8  C7  UNL     1      31.297   9.069  48.405  1.00  0.00     0.048 C 
HETATM    9  C8  UNL     1      31.648   7.626  48.378  1.00  0.00    -0.029 A 
HETATM   10  C9  UNL     1      32.798   6.974  48.745  1.00  0.00     0.124 A 
HETATM   11  N2  UNL     1      32.939   5.671  48.644  1.00  0.00    -0.273 NA
HETATM   12  C10 UNL     1      32.019   4.831  48.188  1.00  0.00     0.117 A 
HETATM   13  C11 UNL     1      30.803   5.398  47.785  1.00  0.00     0.032 A 
HETATM   14  C12 UNL     1      30.667   6.787  47.899  1.00  0.00    -0.010 A 
HETATM   15  C13 UNL     1      29.357   7.232  47.460  1.00  0.00     0.129 C 
HETATM   16  N3  UNL     1      28.207   7.627  47.174  1.00  0.00    -0.259 NA
HETATM   17  C14 UNL     1      27.159   8.029  48.002  1.00  0.00     0.073 A 
HETATM   18  C15 UNL     1      26.895   7.087  48.972  1.00  0.00     0.033 A 
HETATM   19  C16 UNL     1      25.901   7.208  49.938  1.00  0.00     0.002 A 
HETATM   20  C17 UNL     1      25.112   8.338  49.948  1.00  0.00     0.002 A 
HETATM   21  C18 UNL     1      25.381   9.278  48.975  1.00  0.00     0.021 A 
HETATM   22  C19 UNL     1      26.365   9.154  48.021  1.00  0.00     0.030 A 
HETATM   23  S1  UNL     1      26.537  10.522  46.850  1.00  0.00    -0.117 SA
HETATM   24  N4  UNL     1      31.234  11.899  48.289  1.00  0.00    -0.246 NA
HETATM   25  C20 UNL     1      30.417  12.483  49.155  1.00  0.00     0.118 C 
ENDROOT
TORSDOF 0
ENDMDL
MODEL 9
REMARK VINA RESULT:      -7.0      9.017     11.870
REMARK  0 active torsions:
REMARK  status: ('A' for Active; 'I' for Inactive)
ROOT
HETATM    1  C1  UNL     1      33.632   8.938  44.034  1.00  0.00     0.016 C 
HETATM    2  C2  UNL     1      34.205   8.490  45.174  1.00  0.00    -0.008 C 
HETATM    3  C3  UNL     1      33.688   8.390  46.586  1.00  0.00     0.095 C 
HETATM    4  C4  UNL     1      33.811   9.764  47.214  1.00  0.00     0.170 C 
HETATM    5  N1  UNL     1      32.585  10.544  46.899  1.00  0.00    -0.274 NA
HETATM    6  C5  UNL     1      31.521  10.209  46.185  1.00  0.00     0.120 C 
HETATM    7  C6  UNL     1      30.279   9.737  46.894  1.00  0.00     0.085 C 
HETATM    8  C7  UNL     1      29.643   8.650  46.043  1.00  0.00     0.048 C 
HETATM    9  C8  UNL     1      28.453   8.072  46.719  1.00  0.00    -0.029 A 
HETATM   10  C9  UNL     1      27.113   8.291  46.523  1.00  0.00     0.124 A 
HETATM   11  N2  UNL     1      26.183   7.689  47.232  1.00  0.00    -0.273 NA
HETATM   12  C10 UNL     1      26.404   6.814  48.205  1.00  0.00     0.117 A 
HETATM   13  C11 UNL     1      27.745   6.521  48.486  1.00  0.00     0.032 A 
HETATM   14  C12 UNL     1      28.724   7.169  47.723  1.00  0.00    -0.010 A 
HETATM   15  C13 UNL     1      30.060   6.760  48.112  1.00  0.00     0.129 C 
HETATM   16  N3  UNL     1      31.215   6.356  48.369  1.00  0.00    -0.259 NA
HETATM   17  C14 UNL     1      32.047   5.491  47.658  1.00  0.00     0.073 A 
HETATM   18  C15 UNL     1      31.402   4.312  47.353  1.00  0.00     0.033 A 
HETATM   19  C16 UNL     1      31.979   3.255  46.655  1.00  0.00     0.002 A 
HETATM   20  C17 UNL     1      33.285   3.371  46.228  1.00  0.00     0.002 A 
HETATM   21  C18 UNL     1      33.925   4.553  46.536  1.00  0.00     0.021 A 
HETATM   22  C19 UNL     1      33.350   5.595  47.227  1.00  0.00     0.030 A 
HETATM   23  S1  UNL     1      34.385   7.052  47.508  1.00  0.00    -0.117 SA
HETATM   24  N4  UNL     1      31.561  10.280  44.744  1.00  0.00    -0.246 NA
HETATM   25  C20 UNL     1      32.336   9.655  43.868  1.00  0.00     0.118 C 
ENDROOT
TORSDOF 0
ENDMDL
