MODEL 1
REMARK VINA RESULT:      -9.6      0.000      0.000
REMARK  1 active torsions:
REMARK  status: ('A' for Active; 'I' for Inactive)
REMARK    1  A    between atoms: O1_2  and  C2_3 
ROOT
HETATM    1  C2  UNL     1      18.713  -0.499  52.730  1.00  0.00     0.103 A 
HETATM    2  C3  UNL     1      17.911   0.292  51.935  1.00  0.00     0.072 A 
HETATM    3  C4  UNL     1      18.433   1.467  51.390  1.00  0.00     0.075 A 
HETATM    4  N1  UNL     1      17.562   2.158  50.627  1.00  0.00    -0.241 NA
HETATM    5  C5  UNL     1      18.035   3.294  50.083  1.00  0.00     0.236 A 
HETATM    6  N2  UNL     1      19.291   3.654  50.322  1.00  0.00    -0.224 NA
HETATM    7  C6  UNL     1      20.166   2.952  51.093  1.00  0.00     0.142 A 
HETATM    8  C7  UNL     1      19.744   1.791  51.672  1.00  0.00     0.042 A 
HETATM    9  C8  UNL     1      20.510   0.988  52.463  1.00  0.00     0.057 A 
HETATM   10  C9  UNL     1      20.044  -0.183  53.025  1.00  0.00     0.103 A 
HETATM   11  O2  UNL     1      20.748  -0.931  53.756  1.00  0.00    -0.348 OA
HETATM   12  C10 UNL     1      21.486  -1.715  54.522  1.00  0.00     0.176 C 
HETATM   13  C11 UNL     1      22.848  -1.141  54.911  1.00  0.00     0.027 C 
HETATM   14  C12 UNL     1      23.667  -0.935  53.636  1.00  0.00     0.002 C 
HETATM   15  C13 UNL     1      24.979  -0.285  53.932  1.00  0.00     0.000 C 
HETATM   16  C14 UNL     1      25.753  -0.110  52.645  1.00  0.00     0.002 C 
HETATM   17  C15 UNL     1      27.079   0.583  52.909  1.00  0.00     0.020 C 
HETATM   18  C16 UNL     1      26.829   1.988  53.477  1.00  0.00     0.120 C 
HETATM   19  N3  UNL     1      26.154   2.841  52.549  1.00  0.00    -0.387 N 
HETATM   20  C17 UNL     1      25.074   3.069  51.694  1.00  0.00     0.069 A 
HETATM   21  C18 UNL     1      23.769   3.223  52.025  1.00  0.00     0.061 A 
HETATM   22  C19 UNL     1      22.836   3.445  51.037  1.00  0.00     0.035 A 
HETATM   23  C20 UNL     1      23.205   3.516  49.684  1.00  0.00     0.032 A 
HETATM   24  C21 UNL     1      24.532   3.367  49.258  1.00  0.00     0.047 A 
HETATM   25  C22 UNL     1      25.383   3.149  50.329  1.00  0.00     0.142 A 
HETATM   26  F1  UNL     1      26.701   3.002  49.961  1.00  0.00    -0.204 F 
HETATM   27  N4  UNL     1      21.426   3.628  51.113  1.00  0.00    -0.340 N 
HETATM   28  H21 UNL     1      26.685   3.762  52.413  1.00  0.00     0.159 HD
HETATM   29  H25 UNL     1      21.471   4.667  51.196  1.00  0.00     0.167 HD
ENDROOT
BRANCH   1  30
HETATM   30  O1  UNL     1      18.203  -1.660  53.271  1.00  0.00    -0.353 OA
HETATM   31  C1  UNL     1      16.956  -2.228  53.004  1.00  0.00     0.210 C 
ENDBRANCH   1  30
TORSDOF 1
ENDMDL
MODEL 2
REMARK VINA RESULT:      -9.4      3.195      6.963
REMARK  1 active torsions:
REMARK  status: ('A' for Active; 'I' for Inactive)
REMARK    1  A    between atoms: O1_2  and  C2_3 
ROOT
HETATM    1  C2  UNL     1      26.223   0.415  52.956  1.00  0.00     0.103 A 
HETATM    2  C3  UNL     1      25.686  -0.473  53.865  1.00  0.00     0.072 A 
HETATM    3  C4  UNL     1      24.309  -0.468  54.096  1.00  0.00     0.075 A 
HETATM    4  N1  UNL     1      23.896  -1.378  55.001  1.00  0.00    -0.241 NA
HETATM    5  C5  UNL     1      22.573  -1.403  55.243  1.00  0.00     0.236 A 
HETATM    6  N2  UNL     1      21.778  -0.558  54.596  1.00  0.00    -0.224 NA
HETATM    7  C6  UNL     1      22.201   0.360  53.683  1.00  0.00     0.142 A 
HETATM    8  C7  UNL     1      23.534   0.433  53.395  1.00  0.00     0.042 A 
HETATM    9  C8  UNL     1      24.095   1.297  52.504  1.00  0.00     0.057 A 
HETATM   10  C9  UNL     1      25.448   1.334  52.238  1.00  0.00     0.103 A 
HETATM   11  O2  UNL     1      25.974   2.130  51.414  1.00  0.00    -0.348 OA
HETATM   12  C10 UNL     1      26.524   2.964  50.549  1.00  0.00     0.176 C 
HETATM   13  C11 UNL     1      25.582   4.032  49.994  1.00  0.00     0.027 C 
HETATM   14  C12 UNL     1      24.461   3.334  49.224  1.00  0.00     0.002 C 
HETATM   15  C13 UNL     1      23.447   4.315  48.732  1.00  0.00     0.000 C 
HETATM   16  C14 UNL     1      22.366   3.580  47.973  1.00  0.00     0.002 C 
HETATM   17  C15 UNL     1      21.299   4.547  47.490  1.00  0.00     0.020 C 
HETATM   18  C16 UNL     1      20.623   5.221  48.694  1.00  0.00     0.120 C 
HETATM   19  N3  UNL     1      19.919   4.288  49.518  1.00  0.00    -0.387 N 
HETATM   20  C17 UNL     1      19.917   3.108  50.264  1.00  0.00     0.069 A 
HETATM   21  C18 UNL     1      20.601   2.842  51.403  1.00  0.00     0.061 A 
HETATM   22  C19 UNL     1      20.471   1.611  52.005  1.00  0.00     0.035 A 
HETATM   23  C20 UNL     1      19.641   0.615  51.465  1.00  0.00     0.032 A 
HETATM   24  C21 UNL     1      18.902   0.809  50.291  1.00  0.00     0.047 A 
HETATM   25  C22 UNL     1      19.105   2.076  49.771  1.00  0.00     0.142 A 
HETATM   26  F1  UNL     1      18.393   2.318  48.618  1.00  0.00    -0.204 F 
HETATM   27  N4  UNL     1      21.073   1.082  53.182  1.00  0.00    -0.340 N 
HETATM   28  H21 UNL     1      18.906   4.600  49.676  1.00  0.00     0.159 HD
HETATM   29  H25 UNL     1      20.311   1.391  53.825  1.00  0.00     0.167 HD
ENDROOT
BRANCH   1  30
HETATM   30  O1  UNL     1      27.581   0.414  52.725  1.00  0.00    -0.353 OA
HETATM   31  C1  UNL     1      28.570   0.949  53.553  1.00  0.00     0.210 C 
ENDBRANCH   1  30
TORSDOF 1
ENDMDL
MODEL 3
REMARK VINA RESULT:      -9.2      1.619      2.214
REMARK  1 active torsions:
REMARK  status: ('A' for Active; 'I' for Inactive)
REMARK    1  A    between atoms: O1_2  and  C2_3 
ROOT
HETATM    1  C2  UNL     1      18.447   1.838  51.576  1.00  0.00     0.103 A 
HETATM    2  C3  UNL     1      18.292   2.990  50.834  1.00  0.00     0.072 A 
HETATM    3  C4  UNL     1      19.353   3.892  50.740  1.00  0.00     0.075 A 
HETATM    4  N1  UNL     1      19.090   4.979  49.987  1.00  0.00    -0.241 NA
HETATM    5  C5  UNL     1      20.094   5.867  49.872  1.00  0.00     0.236 A 
HETATM    6  N2  UNL     1      21.247   5.627  50.486  1.00  0.00    -0.224 NA
HETATM    7  C6  UNL     1      21.507   4.527  51.246  1.00  0.00     0.142 A 
HETATM    8  C7  UNL     1      20.526   3.590  51.400  1.00  0.00     0.042 A 
HETATM    9  C8  UNL     1      20.648   2.444  52.126  1.00  0.00     0.057 A 
HETATM   10  C9  UNL     1      19.632   1.518  52.251  1.00  0.00     0.103 A 
HETATM   11  O2  UNL     1      19.738   0.456  52.920  1.00  0.00    -0.348 OA
HETATM   12  C10 UNL     1      19.849  -0.659  53.621  1.00  0.00     0.176 C 
HETATM   13  C11 UNL     1      21.125  -0.772  54.455  1.00  0.00     0.027 C 
HETATM   14  C12 UNL     1      22.324  -0.769  53.506  1.00  0.00     0.002 C 
HETATM   15  C13 UNL     1      23.614  -0.781  54.261  1.00  0.00     0.000 C 
HETATM   16  C14 UNL     1      24.767  -0.786  53.282  1.00  0.00     0.002 C 
HETATM   17  C15 UNL     1      26.094  -0.762  54.019  1.00  0.00     0.020 C 
HETATM   18  C16 UNL     1      26.209   0.532  54.842  1.00  0.00     0.120 C 
HETATM   19  N3  UNL     1      26.229   1.702  54.021  1.00  0.00    -0.387 N 
HETATM   20  C17 UNL     1      25.644   2.474  53.016  1.00  0.00     0.069 A 
HETATM   21  C18 UNL     1      24.454   3.123  53.052  1.00  0.00     0.061 A 
HETATM   22  C19 UNL     1      24.037   3.844  51.956  1.00  0.00     0.035 A 
HETATM   23  C20 UNL     1      24.819   3.927  50.793  1.00  0.00     0.032 A 
HETATM   24  C21 UNL     1      26.060   3.285  50.674  1.00  0.00     0.047 A 
HETATM   25  C22 UNL     1      26.380   2.592  51.829  1.00  0.00     0.142 A 
HETATM   26  F1  UNL     1      27.596   1.949  51.764  1.00  0.00    -0.204 F 
HETATM   27  N4  UNL     1      22.849   4.597  51.734  1.00  0.00    -0.340 N 
HETATM   28  H21 UNL     1      27.075   2.321  54.249  1.00  0.00     0.159 HD
HETATM   29  H25 UNL     1      23.243   5.499  52.081  1.00  0.00     0.167 HD
ENDROOT
BRANCH   1  30
HETATM   30  O1  UNL     1      17.403   0.944  51.673  1.00  0.00    -0.353 OA
HETATM   31  C1  UNL     1      17.054  -0.037  50.743  1.00  0.00     0.210 C 
ENDBRANCH   1  30
TORSDOF 1
ENDMDL
MODEL 4
REMARK VINA RESULT:      -8.7      2.606      6.521
REMARK  1 active torsions:
REMARK  status: ('A' for Active; 'I' for Inactive)
REMARK    1  A    between atoms: O1_2  and  C2_3 
ROOT
HETATM    1  C2  UNL     1      25.652   1.035  53.338  1.00  0.00     0.103 A 
HETATM    2  C3  UNL     1      26.493   1.875  52.639  1.00  0.00     0.072 A 
HETATM    3  C4  UNL     1      26.050   2.448  51.445  1.00  0.00     0.075 A 
HETATM    4  N1  UNL     1      26.953   3.254  50.849  1.00  0.00    -0.241 NA
HETATM    5  C5  UNL     1      26.556   3.826  49.699  1.00  0.00     0.236 A 
HETATM    6  N2  UNL     1      25.338   3.573  49.234  1.00  0.00    -0.224 NA
HETATM    7  C6  UNL     1      24.430   2.758  49.839  1.00  0.00     0.142 A 
HETATM    8  C7  UNL     1      24.775   2.148  51.011  1.00  0.00     0.042 A 
HETATM    9  C8  UNL     1      23.969   1.314  51.725  1.00  0.00     0.057 A 
HETATM   10  C9  UNL     1      24.356   0.721  52.909  1.00  0.00     0.103 A 
HETATM   11  O2  UNL     1      23.615  -0.050  53.575  1.00  0.00    -0.348 OA
HETATM   12  C10 UNL     1      22.838  -0.859  54.274  1.00  0.00     0.176 C 
HETATM   13  C11 UNL     1      21.534  -1.257  53.582  1.00  0.00     0.027 C 
HETATM   14  C12 UNL     1      20.703   0.005  53.354  1.00  0.00     0.002 C 
HETATM   15  C13 UNL     1      19.452  -0.297  52.594  1.00  0.00     0.000 C 
HETATM   16  C14 UNL     1      18.662   0.978  52.402  1.00  0.00     0.002 C 
HETATM   17  C15 UNL     1      17.401   0.709  51.600  1.00  0.00     0.020 C 
HETATM   18  C16 UNL     1      17.773   0.196  50.200  1.00  0.00     0.120 C 
HETATM   19  N3  UNL     1      18.490   1.168  49.434  1.00  0.00    -0.387 N 
HETATM   20  C17 UNL     1      19.562   2.054  49.320  1.00  0.00     0.069 A 
HETATM   21  C18 UNL     1      20.883   1.757  49.257  1.00  0.00     0.061 A 
HETATM   22  C19 UNL     1      21.806   2.772  49.142  1.00  0.00     0.035 A 
HETATM   23  C20 UNL     1      21.410   4.119  49.086  1.00  0.00     0.032 A 
HETATM   24  C21 UNL     1      20.066   4.510  49.145  1.00  0.00     0.047 A 
HETATM   25  C22 UNL     1      19.227   3.414  49.260  1.00  0.00     0.142 A 
HETATM   26  F1  UNL     1      17.893   3.747  49.315  1.00  0.00    -0.204 F 
HETATM   27  N4  UNL     1      23.227   2.735  49.066  1.00  0.00    -0.340 N 
HETATM   28  H21 UNL     1      18.028   1.324  48.479  1.00  0.00     0.159 HD
HETATM   29  H25 UNL     1      23.265   2.687  48.025  1.00  0.00     0.167 HD
ENDROOT
BRANCH   1  30
HETATM   30  O1  UNL     1      26.084   0.466  54.517  1.00  0.00    -0.353 OA
HETATM   31  C1  UNL     1      27.395   0.124  54.848  1.00  0.00     0.210 C 
ENDBRANCH   1  30
TORSDOF 1
ENDMDL
MODEL 5
REMARK VINA RESULT:      -8.7      2.956      5.351
REMARK  1 active torsions:
REMARK  status: ('A' for Active; 'I' for Inactive)
REMARK    1  A    between atoms: O1_2  and  C2_3 
ROOT
HETATM    1  C2  UNL     1      21.490   3.710  49.611  1.00  0.00     0.103 A 
HETATM    2  C3  UNL     1      20.217   3.220  49.811  1.00  0.00     0.072 A 
HETATM    3  C4  UNL     1      20.044   2.039  50.537  1.00  0.00     0.075 A 
HETATM    4  N1  UNL     1      18.758   1.656  50.672  1.00  0.00    -0.241 NA
HETATM    5  C5  UNL     1      18.555   0.525  51.371  1.00  0.00     0.236 A 
HETATM    6  N2  UNL     1      19.601  -0.126  51.870  1.00  0.00    -0.224 NA
HETATM    7  C6  UNL     1      20.897   0.265  51.730  1.00  0.00     0.142 A 
HETATM    8  C7  UNL     1      21.165   1.407  51.031  1.00  0.00     0.042 A 
HETATM    9  C8  UNL     1      22.410   1.917  50.816  1.00  0.00     0.057 A 
HETATM   10  C9  UNL     1      22.638   3.079  50.106  1.00  0.00     0.103 A 
HETATM   11  O2  UNL     1      23.786   3.557  49.905  1.00  0.00    -0.348 OA
HETATM   12  C10 UNL     1      24.991   4.058  49.693  1.00  0.00     0.176 C 
HETATM   13  C11 UNL     1      26.148   3.158  50.124  1.00  0.00     0.027 C 
HETATM   14  C12 UNL     1      26.058   2.945  51.636  1.00  0.00     0.002 C 
HETATM   15  C13 UNL     1      27.108   1.994  52.114  1.00  0.00     0.000 C 
HETATM   16  C14 UNL     1      26.983   1.823  53.611  1.00  0.00     0.002 C 
HETATM   17  C15 UNL     1      28.014   0.833  54.124  1.00  0.00     0.020 C 
HETATM   18  C16 UNL     1      27.771  -0.547  53.492  1.00  0.00     0.120 C 
HETATM   19  N3  UNL     1      26.511  -1.107  53.871  1.00  0.00    -0.387 N 
HETATM   20  C17 UNL     1      25.124  -0.984  53.973  1.00  0.00     0.069 A 
HETATM   21  C18 UNL     1      24.220  -0.894  52.967  1.00  0.00     0.061 A 
HETATM   22  C19 UNL     1      22.881  -0.781  53.261  1.00  0.00     0.035 A 
HETATM   23  C20 UNL     1      22.422  -0.756  54.588  1.00  0.00     0.032 A 
HETATM   24  C21 UNL     1      23.289  -0.843  55.685  1.00  0.00     0.047 A 
HETATM   25  C22 UNL     1      24.608  -0.954  55.277  1.00  0.00     0.142 A 
HETATM   26  F1  UNL     1      25.500  -1.049  56.320  1.00  0.00    -0.204 F 
HETATM   27  N4  UNL     1      21.747  -0.663  52.408  1.00  0.00    -0.340 N 
HETATM   28  H21 UNL     1      26.631  -2.096  54.267  1.00  0.00     0.159 HD
HETATM   29  H25 UNL     1      21.567  -1.690  52.349  1.00  0.00     0.167 HD
ENDROOT
BRANCH   1  30
HETATM   30  O1  UNL     1      21.667   4.874  48.895  1.00  0.00    -0.353 OA
HETATM   31  C1  UNL     1      21.612   5.018  47.508  1.00  0.00     0.210 C 
ENDBRANCH   1  30
TORSDOF 1
ENDMDL
MODEL 6
REMARK VINA RESULT:      -8.6      3.096      5.764
REMARK  1 active torsions:
REMARK  status: ('A' for Active; 'I' for Inactive)
REMARK    1  A    between atoms: O1_2  and  C2_3 
ROOT
HETATM    1  C2  UNL     1      21.364   4.716  48.745  1.00  0.00     0.103 A 
HETATM    2  C3  UNL     1      22.467   5.396  48.273  1.00  0.00     0.072 A 
HETATM    3  C4  UNL     1      23.706   5.200  48.886  1.00  0.00     0.075 A 
HETATM    4  N1  UNL     1      24.712   5.913  48.341  1.00  0.00    -0.241 NA
HETATM    5  C5  UNL     1      25.921   5.744  48.906  1.00  0.00     0.236 A 
HETATM    6  N2  UNL     1      26.047   4.910  49.933  1.00  0.00    -0.224 NA
HETATM    7  C6  UNL     1      25.027   4.193  50.480  1.00  0.00     0.142 A 
HETATM    8  C7  UNL     1      23.776   4.323  49.949  1.00  0.00     0.042 A 
HETATM    9  C8  UNL     1      22.667   3.667  50.391  1.00  0.00     0.057 A 
HETATM   10  C9  UNL     1      21.420   3.823  49.822  1.00  0.00     0.103 A 
HETATM   11  O2  UNL     1      20.391   3.218  50.225  1.00  0.00    -0.348 OA
HETATM   12  C10 UNL     1      19.311   2.584  50.648  1.00  0.00     0.176 C 
HETATM   13  C11 UNL     1      19.492   1.799  51.947  1.00  0.00     0.027 C 
HETATM   14  C12 UNL     1      20.537   0.708  51.712  1.00  0.00     0.002 C 
HETATM   15  C13 UNL     1      20.834  -0.040  52.971  1.00  0.00     0.000 C 
HETATM   16  C14 UNL     1      21.864  -1.110  52.686  1.00  0.00     0.002 C 
HETATM   17  C15 UNL     1      22.215  -1.866  53.956  1.00  0.00     0.020 C 
HETATM   18  C16 UNL     1      22.839  -0.903  54.980  1.00  0.00     0.120 C 
HETATM   19  N3  UNL     1      24.081  -0.356  54.528  1.00  0.00    -0.387 N 
HETATM   20  C17 UNL     1      24.809   0.321  53.549  1.00  0.00     0.069 A 
HETATM   21  C18 UNL     1      24.664   1.606  53.144  1.00  0.00     0.061 A 
HETATM   22  C19 UNL     1      25.483   2.107  52.157  1.00  0.00     0.035 A 
HETATM   23  C20 UNL     1      26.474   1.315  51.555  1.00  0.00     0.032 A 
HETATM   24  C21 UNL     1      26.688  -0.022  51.916  1.00  0.00     0.047 A 
HETATM   25  C22 UNL     1      25.814  -0.422  52.912  1.00  0.00     0.142 A 
HETATM   26  F1  UNL     1      25.989  -1.729  53.306  1.00  0.00    -0.204 F 
HETATM   27  N4  UNL     1      25.533   3.396  51.553  1.00  0.00    -0.340 N 
HETATM   28  H21 UNL     1      24.855  -0.503  55.255  1.00  0.00     0.159 HD
HETATM   29  H25 UNL     1      26.231   3.787  52.223  1.00  0.00     0.167 HD
ENDROOT
BRANCH   1  30
HETATM   30  O1  UNL     1      20.138   4.905  48.143  1.00  0.00    -0.353 OA
HETATM   31  C1  UNL     1      19.701   4.344  46.943  1.00  0.00     0.210 C 
ENDBRANCH   1  30
TORSDOF 1
ENDMDL
MODEL 7
REMARK VINA RESULT:      -8.5      2.695      6.203
REMARK  1 active torsions:
REMARK  status: ('A' for Active; 'I' for Inactive)
REMARK    1  A    between atoms: O1_2  and  C2_3 
ROOT
HETATM    1  C2  UNL     1      23.378  -0.148  53.115  1.00  0.00     0.103 A 
HETATM    2  C3  UNL     1      24.701  -0.048  53.492  1.00  0.00     0.072 A 
HETATM    3  C4  UNL     1      25.530   0.870  52.843  1.00  0.00     0.075 A 
HETATM    4  N1  UNL     1      26.801   0.884  53.295  1.00  0.00    -0.241 NA
HETATM    5  C5  UNL     1      27.625   1.760  52.694  1.00  0.00     0.236 A 
HETATM    6  N2  UNL     1      27.153   2.534  51.722  1.00  0.00    -0.224 NA
HETATM    7  C6  UNL     1      25.870   2.515  51.269  1.00  0.00     0.142 A 
HETATM    8  C7  UNL     1      24.985   1.646  51.841  1.00  0.00     0.042 A 
HETATM    9  C8  UNL     1      23.674   1.522  51.492  1.00  0.00     0.057 A 
HETATM   10  C9  UNL     1      22.812   0.633  52.101  1.00  0.00     0.103 A 
HETATM   11  O2  UNL     1      21.598   0.514  51.784  1.00  0.00    -0.348 OA
HETATM   12  C10 UNL     1      20.325   0.390  51.451  1.00  0.00     0.176 C 
HETATM   13  C11 UNL     1      19.906   1.166  50.203  1.00  0.00     0.027 C 
HETATM   14  C12 UNL     1      20.110   2.657  50.469  1.00  0.00     0.002 C 
HETATM   15  C13 UNL     1      19.809   3.473  49.254  1.00  0.00     0.000 C 
HETATM   16  C14 UNL     1      20.018   4.937  49.569  1.00  0.00     0.002 C 
HETATM   17  C15 UNL     1      19.754   5.791  48.341  1.00  0.00     0.020 C 
HETATM   18  C16 UNL     1      20.749   5.424  47.228  1.00  0.00     0.120 C 
HETATM   19  N3  UNL     1      22.103   5.715  47.588  1.00  0.00    -0.387 N 
HETATM   20  C17 UNL     1      23.162   5.579  48.487  1.00  0.00     0.069 A 
HETATM   21  C18 UNL     1      23.840   4.451  48.808  1.00  0.00     0.061 A 
HETATM   22  C19 UNL     1      24.868   4.509  49.723  1.00  0.00     0.035 A 
HETATM   23  C20 UNL     1      25.234   5.718  50.337  1.00  0.00     0.032 A 
HETATM   24  C21 UNL     1      24.583   6.928  50.060  1.00  0.00     0.047 A 
HETATM   25  C22 UNL     1      23.571   6.755  49.131  1.00  0.00     0.142 A 
HETATM   26  F1  UNL     1      22.905   7.919  48.822  1.00  0.00    -0.204 F 
HETATM   27  N4  UNL     1      25.719   3.488  50.233  1.00  0.00    -0.340 N 
HETATM   28  H21 UNL     1      22.580   6.318  46.842  1.00  0.00     0.159 HD
HETATM   29  H25 UNL     1      26.460   3.614  49.509  1.00  0.00     0.167 HD
ENDROOT
BRANCH   1  30
HETATM   30  O1  UNL     1      22.555  -1.052  53.753  1.00  0.00    -0.353 OA
HETATM   31  C1  UNL     1      21.894  -0.866  54.968  1.00  0.00     0.210 C 
ENDBRANCH   1  30
TORSDOF 1
ENDMDL
MODEL 8
REMARK VINA RESULT:      -8.3      3.055      5.376
REMARK  1 active torsions:
REMARK  status: ('A' for Active; 'I' for Inactive)
REMARK    1  A    between atoms: O1_2  and  C2_3 
ROOT
HETATM    1  C2  UNL     1      20.363   5.195  49.817  1.00  0.00     0.103 A 
HETATM    2  C3  UNL     1      19.030   4.861  49.937  1.00  0.00     0.072 A 
HETATM    3  C4  UNL     1      18.682   3.612  50.455  1.00  0.00     0.075 A 
HETATM    4  N1  UNL     1      17.353   3.395  50.528  1.00  0.00    -0.241 NA
HETATM    5  C5  UNL     1      16.983   2.202  51.028  1.00  0.00     0.236 A 
HETATM    6  N2  UNL     1      17.918   1.338  51.407  1.00  0.00    -0.224 NA
HETATM    7  C6  UNL     1      19.259   1.563  51.330  1.00  0.00     0.142 A 
HETATM    8  C7  UNL     1      19.696   2.756  50.831  1.00  0.00     0.042 A 
HETATM    9  C8  UNL     1      21.003   3.116  50.700  1.00  0.00     0.057 A 
HETATM   10  C9  UNL     1      21.403   4.337  50.195  1.00  0.00     0.103 A 
HETATM   11  O2  UNL     1      22.610   4.677  50.072  1.00  0.00    -0.348 OA
HETATM   12  C10 UNL     1      23.876   5.034  49.944  1.00  0.00     0.176 C 
HETATM   13  C11 UNL     1      24.890   3.923  50.214  1.00  0.00     0.027 C 
HETATM   14  C12 UNL     1      24.741   3.475  51.668  1.00  0.00     0.002 C 
HETATM   15  C13 UNL     1      25.640   2.321  51.976  1.00  0.00     0.000 C 
HETATM   16  C14 UNL     1      25.463   1.921  53.423  1.00  0.00     0.002 C 
HETATM   17  C15 UNL     1      26.337   0.726  53.758  1.00  0.00     0.020 C 
HETATM   18  C16 UNL     1      25.918  -0.482  52.904  1.00  0.00     0.120 C 
HETATM   19  N3  UNL     1      24.586  -0.916  53.189  1.00  0.00    -0.387 N 
HETATM   20  C17 UNL     1      23.227  -0.620  53.315  1.00  0.00     0.069 A 
HETATM   21  C18 UNL     1      22.365  -0.239  52.342  1.00  0.00     0.061 A 
HETATM   22  C19 UNL     1      21.049   0.010  52.656  1.00  0.00     0.035 A 
HETATM   23  C20 UNL     1      20.571  -0.124  53.970  1.00  0.00     0.032 A 
HETATM   24  C21 UNL     1      21.397  -0.513  55.033  1.00  0.00     0.047 A 
HETATM   25  C22 UNL     1      22.695  -0.736  54.607  1.00  0.00     0.142 A 
HETATM   26  F1  UNL     1      23.545  -1.128  55.617  1.00  0.00    -0.204 F 
HETATM   27  N4  UNL     1      19.959   0.424  51.839  1.00  0.00    -0.340 N 
HETATM   28  H21 UNL     1      24.561  -1.965  53.413  1.00  0.00     0.159 HD
HETATM   29  H25 UNL     1      19.641  -0.542  51.609  1.00  0.00     0.167 HD
ENDROOT
BRANCH   1  30
HETATM   30  O1  UNL     1      20.713   6.427  49.307  1.00  0.00    -0.353 OA
HETATM   31  C1  UNL     1      20.688   7.648  49.981  1.00  0.00     0.210 C 
ENDBRANCH   1  30
TORSDOF 1
ENDMDL
MODEL 9
REMARK VINA RESULT:      -8.1      3.482      8.171
REMARK  1 active torsions:
REMARK  status: ('A' for Active; 'I' for Inactive)
REMARK    1  A    between atoms: O1_2  and  C2_3 
ROOT
HETATM    1  C2  UNL     1      26.003   4.166  49.544  1.00  0.00     0.103 A 
HETATM    2  C3  UNL     1      26.697   3.217  50.265  1.00  0.00     0.072 A 
HETATM    3  C4  UNL     1      26.018   2.441  51.207  1.00  0.00     0.075 A 
HETATM    4  N1  UNL     1      26.795   1.546  51.850  1.00  0.00    -0.241 NA
HETATM    5  C5  UNL     1      26.171   0.779  52.761  1.00  0.00     0.236 A 
HETATM    6  N2  UNL     1      24.868   0.943  52.966  1.00  0.00    -0.224 NA
HETATM    7  C6  UNL     1      24.089   1.850  52.315  1.00  0.00     0.142 A 
HETATM    8  C7  UNL     1      24.667   2.657  51.377  1.00  0.00     0.042 A 
HETATM    9  C8  UNL     1      24.010   3.603  50.649  1.00  0.00     0.057 A 
HETATM   10  C9  UNL     1      24.632   4.396  49.706  1.00  0.00     0.103 A 
HETATM   11  O2  UNL     1      24.030   5.271  49.028  1.00  0.00    -0.348 OA
HETATM   12  C10 UNL     1      23.399   6.189  48.316  1.00  0.00     0.176 C 
HETATM   13  C11 UNL     1      21.956   6.456  48.743  1.00  0.00     0.027 C 
HETATM   14  C12 UNL     1      21.149   5.171  48.552  1.00  0.00     0.002 C 
HETATM   15  C13 UNL     1      19.746   5.332  49.040  1.00  0.00     0.000 C 
HETATM   16  C14 UNL     1      18.989   4.041  48.823  1.00  0.00     0.002 C 
HETATM   17  C15 UNL     1      17.567   4.161  49.343  1.00  0.00     0.020 C 
HETATM   18  C16 UNL     1      17.587   4.421  50.858  1.00  0.00     0.120 C 
HETATM   19  N3  UNL     1      18.151   3.331  51.592  1.00  0.00    -0.387 N 
HETATM   20  C17 UNL     1      19.206   2.441  51.799  1.00  0.00     0.069 A 
HETATM   21  C18 UNL     1      20.463   2.725  52.217  1.00  0.00     0.061 A 
HETATM   22  C19 UNL     1      21.378   1.707  52.369  1.00  0.00     0.035 A 
HETATM   23  C20 UNL     1      21.039   0.371  52.100  1.00  0.00     0.032 A 
HETATM   24  C21 UNL     1      19.762  -0.006  51.664  1.00  0.00     0.047 A 
HETATM   25  C22 UNL     1      18.925   1.091  51.546  1.00  0.00     0.142 A 
HETATM   26  F1  UNL     1      17.654   0.770  51.126  1.00  0.00    -0.204 F 
HETATM   27  N4  UNL     1      22.742   1.734  52.778  1.00  0.00    -0.340 N 
HETATM   28  H21 UNL     1      17.490   3.008  52.372  1.00  0.00     0.159 HD
HETATM   29  H25 UNL     1      22.538   1.598  53.793  1.00  0.00     0.167 HD
ENDROOT
BRANCH   1  30
HETATM   30  O1  UNL     1      26.668   4.934  48.613  1.00  0.00    -0.353 OA
HETATM   31  C1  UNL     1      28.048   5.113  48.509  1.00  0.00     0.210 C 
ENDBRANCH   1  30
TORSDOF 1
ENDMDL
