MODEL 1
REMARK VINA RESULT:      -7.7      0.000      0.000
REMARK  6 active torsions:
REMARK  status: ('A' for Active; 'I' for Inactive)
REMARK    1  A    between atoms: C2_2  and  C3_3 
REMARK    2  A    between atoms: C4_4  and  C5_5 
REMARK    3  A    between atoms: C6_6  and  C7_7 
REMARK    4  A    between atoms: C7_7  and  C8_8 
REMARK    5  A    between atoms: C8_8  and  C9_9 
REMARK    6  A    between atoms: C15_15  and  C16_16 
ROOT
HETATM    1  C9  UNL     1      25.726   1.918  52.967  1.00  0.00     0.040 C 
HETATM    2  C10 UNL     1      24.313   2.339  52.986  1.00  0.00    -0.018 C 
HETATM    3  C11 UNL     1      23.164   1.655  52.974  1.00  0.00    -0.003 C 
HETATM    4  C12 UNL     1      23.119   0.181  52.936  1.00  0.00    -0.000 C 
HETATM    5  C13 UNL     1      24.032  -0.695  53.389  1.00  0.00     0.000 C 
HETATM    6  C14 UNL     1      25.310  -0.339  54.040  1.00  0.00     0.006 C 
HETATM    7  C15 UNL     1      26.032   0.778  53.858  1.00  0.00    -0.041 C 
ENDROOT
BRANCH   7   8
HETATM    8  C16 UNL     1      27.277   0.811  54.682  1.00  0.00     0.209 C 
HETATM    9  N1  UNL     1      27.808  -0.551  54.834  1.00  0.00    -0.326 N 
HETATM   10  C17 UNL     1      28.666  -0.748  53.705  1.00  0.00     0.323 C 
HETATM   11  H19 UNL     1      27.689  -1.317  55.533  1.00  0.00     0.165 HD
HETATM   12  O1  UNL     1      29.138  -1.764  53.132  1.00  0.00    -0.247 OA
HETATM   13  N2  UNL     1      29.015   0.537  53.176  1.00  0.00    -0.277 N 
HETATM   14  C18 UNL     1      28.375   1.545  53.974  1.00  0.00     0.252 C 
HETATM   15  H20 UNL     1      29.624   0.821  52.355  1.00  0.00     0.173 HD
HETATM   16  O2  UNL     1      28.655   2.782  54.074  1.00  0.00    -0.270 OA
ENDBRANCH   7   8
BRANCH   1  17
HETATM   17  C8  UNL     1      26.084   1.625  51.523  1.00  0.00     0.017 C 
BRANCH  17  18
HETATM   18  C7  UNL     1      26.783   2.896  51.024  1.00  0.00     0.028 C 
BRANCH  18  19
HETATM   19  C6  UNL     1      26.398   3.207  49.635  1.00  0.00    -0.027 C 
HETATM   20  C5  UNL     1      25.370   3.860  49.120  1.00  0.00    -0.004 C 
BRANCH  20  21
HETATM   21  C4  UNL     1      24.339   4.440  49.966  1.00  0.00    -0.000 C 
HETATM   22  C3  UNL     1      23.081   3.987  49.920  1.00  0.00    -0.001 C 
BRANCH  22  23
HETATM   23  C2  UNL     1      22.639   2.917  49.058  1.00  0.00    -0.010 C 
HETATM   24  C1  UNL     1      22.294   1.746  49.527  1.00  0.00     0.011 C 
ENDBRANCH  22  23
ENDBRANCH  20  21
ENDBRANCH  18  19
ENDBRANCH  17  18
ENDBRANCH   1  17
TORSDOF 6
ENDMDL
MODEL 2
REMARK VINA RESULT:      -7.6      1.247      2.206
REMARK  6 active torsions:
REMARK  status: ('A' for Active; 'I' for Inactive)
REMARK    1  A    between atoms: C2_2  and  C3_3 
REMARK    2  A    between atoms: C4_4  and  C5_5 
REMARK    3  A    between atoms: C6_6  and  C7_7 
REMARK    4  A    between atoms: C7_7  and  C8_8 
REMARK    5  A    between atoms: C8_8  and  C9_9 
REMARK    6  A    between atoms: C15_15  and  C16_16 
ROOT
HETATM    1  C9  UNL     1      25.955   1.967  52.906  1.00  0.00     0.040 C 
HETATM    2  C10 UNL     1      24.569   2.469  52.896  1.00  0.00    -0.018 C 
HETATM    3  C11 UNL     1      23.382   1.852  52.895  1.00  0.00    -0.003 C 
HETATM    4  C12 UNL     1      23.252   0.383  52.905  1.00  0.00    -0.000 C 
HETATM    5  C13 UNL     1      24.109  -0.529  53.396  1.00  0.00     0.000 C 
HETATM    6  C14 UNL     1      25.399  -0.225  54.049  1.00  0.00     0.006 C 
HETATM    7  C15 UNL     1      26.187   0.841  53.838  1.00  0.00    -0.041 C 
ENDROOT
BRANCH   7   8
HETATM    8  C16 UNL     1      27.424   0.830  54.673  1.00  0.00     0.209 C 
HETATM    9  N1  UNL     1      27.901  -0.550  54.836  1.00  0.00    -0.326 N 
HETATM   10  C17 UNL     1      28.761  -0.786  53.716  1.00  0.00     0.323 C 
HETATM   11  H19 UNL     1      27.746  -1.308  55.537  1.00  0.00     0.165 HD
HETATM   12  O1  UNL     1      29.199  -1.822  53.153  1.00  0.00    -0.247 OA
HETATM   13  N2  UNL     1      29.165   0.482  53.185  1.00  0.00    -0.277 N 
HETATM   14  C18 UNL     1      28.556   1.518  53.972  1.00  0.00     0.252 C 
HETATM   15  H20 UNL     1      29.791   0.737  52.368  1.00  0.00     0.173 HD
HETATM   16  O2  UNL     1      28.883   2.743  54.069  1.00  0.00    -0.270 OA
ENDBRANCH   7   8
BRANCH   1  17
HETATM   17  C8  UNL     1      26.308   1.605  51.476  1.00  0.00     0.017 C 
BRANCH  17  18
HETATM   18  C7  UNL     1      26.687   2.936  50.815  1.00  0.00     0.028 C 
BRANCH  18  19
HETATM   19  C6  UNL     1      25.812   3.229  49.665  1.00  0.00    -0.027 C 
HETATM   20  C5  UNL     1      25.233   4.341  49.246  1.00  0.00    -0.004 C 
BRANCH  20  21
HETATM   21  C4  UNL     1      25.404   5.599  49.956  1.00  0.00    -0.000 C 
HETATM   22  C3  UNL     1      26.249   6.532  49.502  1.00  0.00    -0.001 C 
BRANCH  22  23
HETATM   23  C2  UNL     1      27.044   6.388  48.307  1.00  0.00    -0.010 C 
HETATM   24  C1  UNL     1      28.268   5.927  48.339  1.00  0.00     0.011 C 
ENDBRANCH  22  23
ENDBRANCH  20  21
ENDBRANCH  18  19
ENDBRANCH  17  18
ENDBRANCH   1  17
TORSDOF 6
ENDMDL
MODEL 3
REMARK VINA RESULT:      -7.2      3.354      5.742
REMARK  6 active torsions:
REMARK  status: ('A' for Active; 'I' for Inactive)
REMARK    1  A    between atoms: C2_2  and  C3_3 
REMARK    2  A    between atoms: C4_4  and  C5_5 
REMARK    3  A    between atoms: C6_6  and  C7_7 
REMARK    4  A    between atoms: C7_7  and  C8_8 
REMARK    5  A    between atoms: C8_8  and  C9_9 
REMARK    6  A    between atoms: C15_15  and  C16_16 
ROOT
HETATM    1  C9  UNL     1      24.185   2.755  51.572  1.00  0.00     0.040 C 
HETATM    2  C10 UNL     1      24.411   2.846  53.026  1.00  0.00    -0.018 C 
HETATM    3  C11 UNL     1      25.362   2.355  53.829  1.00  0.00    -0.003 C 
HETATM    4  C12 UNL     1      26.481   1.537  53.323  1.00  0.00    -0.000 C 
HETATM    5  C13 UNL     1      27.040   1.550  52.100  1.00  0.00     0.000 C 
HETATM    6  C14 UNL     1      26.626   2.420  50.980  1.00  0.00     0.006 C 
HETATM    7  C15 UNL     1      25.406   2.933  50.755  1.00  0.00    -0.041 C 
ENDROOT
BRANCH   7   8
HETATM    8  C16 UNL     1      25.342   3.773  49.523  1.00  0.00     0.209 C 
HETATM    9  N1  UNL     1      24.263   4.762  49.653  1.00  0.00    -0.326 N 
HETATM   10  C17 UNL     1      24.866   5.895  50.287  1.00  0.00     0.323 C 
HETATM   11  H19 UNL     1      23.251   4.790  49.398  1.00  0.00     0.165 HD
HETATM   12  O1  UNL     1      24.416   6.886  50.919  1.00  0.00    -0.247 OA
HETATM   13  N2  UNL     1      26.286   5.803  50.116  1.00  0.00    -0.277 N 
HETATM   14  C18 UNL     1      26.577   4.609  49.373  1.00  0.00     0.252 C 
HETATM   15  H20 UNL     1      27.077   6.435  50.433  1.00  0.00     0.173 HD
HETATM   16  O2  UNL     1      27.631   4.306  48.729  1.00  0.00    -0.270 OA
ENDBRANCH   7   8
BRANCH   1  17
HETATM   17  C8  UNL     1      23.513   1.421  51.309  1.00  0.00     0.017 C 
BRANCH  17  18
HETATM   18  C7  UNL     1      22.064   1.774  50.950  1.00  0.00     0.028 C 
BRANCH  18  19
HETATM   19  C6  UNL     1      21.185   0.596  51.065  1.00  0.00    -0.027 C 
HETATM   20  C5  UNL     1      20.475   0.109  52.069  1.00  0.00    -0.004 C 
BRANCH  20  21
HETATM   21  C4  UNL     1      20.463   0.754  53.373  1.00  0.00    -0.000 C 
HETATM   22  C3  UNL     1      21.200   0.273  54.381  1.00  0.00    -0.001 C 
BRANCH  22  23
HETATM   23  C2  UNL     1      22.048  -0.889  54.278  1.00  0.00    -0.010 C 
HETATM   24  C1  UNL     1      23.352  -0.794  54.223  1.00  0.00     0.011 C 
ENDBRANCH  22  23
ENDBRANCH  20  21
ENDBRANCH  18  19
ENDBRANCH  17  18
ENDBRANCH   1  17
TORSDOF 6
ENDMDL
MODEL 4
REMARK VINA RESULT:      -7.1      1.463      2.245
REMARK  6 active torsions:
REMARK  status: ('A' for Active; 'I' for Inactive)
REMARK    1  A    between atoms: C2_2  and  C3_3 
REMARK    2  A    between atoms: C4_4  and  C5_5 
REMARK    3  A    between atoms: C6_6  and  C7_7 
REMARK    4  A    between atoms: C7_7  and  C8_8 
REMARK    5  A    between atoms: C8_8  and  C9_9 
REMARK    6  A    between atoms: C15_15  and  C16_16 
ROOT
HETATM    1  C9  UNL     1      25.401   1.856  52.497  1.00  0.00     0.040 C 
HETATM    2  C10 UNL     1      24.565   2.998  52.912  1.00  0.00    -0.018 C 
HETATM    3  C11 UNL     1      23.246   3.217  52.871  1.00  0.00    -0.003 C 
HETATM    4  C12 UNL     1      22.294   2.225  52.335  1.00  0.00    -0.000 C 
HETATM    5  C13 UNL     1      22.419   0.888  52.288  1.00  0.00     0.000 C 
HETATM    6  C14 UNL     1      23.579   0.119  52.783  1.00  0.00     0.006 C 
HETATM    7  C15 UNL     1      24.853   0.534  52.871  1.00  0.00    -0.041 C 
ENDROOT
BRANCH   7   8
HETATM    8  C16 UNL     1      25.772  -0.507  53.420  1.00  0.00     0.209 C 
HETATM    9  N1  UNL     1      27.167  -0.120  53.168  1.00  0.00    -0.326 N 
HETATM   10  C17 UNL     1      27.544   0.680  54.294  1.00  0.00     0.323 C 
HETATM   11  H19 UNL     1      27.857  -0.298  52.406  1.00  0.00     0.165 HD
HETATM   12  O1  UNL     1      28.459   1.518  54.504  1.00  0.00    -0.247 OA
HETATM   13  N2  UNL     1      26.636   0.403  55.367  1.00  0.00    -0.277 N 
HETATM   14  C18 UNL     1      25.684  -0.573  54.915  1.00  0.00     0.252 C 
HETATM   15  H20 UNL     1      26.575   0.783  56.355  1.00  0.00     0.173 HD
HETATM   16  O2  UNL     1      24.929  -1.330  55.603  1.00  0.00    -0.270 OA
ENDBRANCH   7   8
BRANCH   1  17
HETATM   17  C8  UNL     1      25.616   1.982  51.001  1.00  0.00     0.017 C 
BRANCH  17  18
HETATM   18  C7  UNL     1      26.748   3.007  50.850  1.00  0.00     0.028 C 
BRANCH  18  19
HETATM   19  C6  UNL     1      26.669   3.701  49.552  1.00  0.00    -0.027 C 
HETATM   20  C5  UNL     1      25.854   4.633  49.088  1.00  0.00    -0.004 C 
BRANCH  20  21
HETATM   21  C4  UNL     1      24.779   5.176  49.904  1.00  0.00    -0.000 C 
HETATM   22  C3  UNL     1      23.503   4.864  49.650  1.00  0.00    -0.001 C 
BRANCH  22  23
HETATM   23  C2  UNL     1      23.082   3.992  48.581  1.00  0.00    -0.010 C 
HETATM   24  C1  UNL     1      22.785   2.735  48.787  1.00  0.00     0.011 C 
ENDBRANCH  22  23
ENDBRANCH  20  21
ENDBRANCH  18  19
ENDBRANCH  17  18
ENDBRANCH   1  17
TORSDOF 6
ENDMDL
MODEL 5
REMARK VINA RESULT:      -7.1      2.463      3.898
REMARK  6 active torsions:
REMARK  status: ('A' for Active; 'I' for Inactive)
REMARK    1  A    between atoms: C2_2  and  C3_3 
REMARK    2  A    between atoms: C4_4  and  C5_5 
REMARK    3  A    between atoms: C6_6  and  C7_7 
REMARK    4  A    between atoms: C7_7  and  C8_8 
REMARK    5  A    between atoms: C8_8  and  C9_9 
REMARK    6  A    between atoms: C15_15  and  C16_16 
ROOT
HETATM    1  C9  UNL     1      25.202   2.519  51.845  1.00  0.00     0.040 C 
HETATM    2  C10 UNL     1      24.303   3.539  52.415  1.00  0.00    -0.018 C 
HETATM    3  C11 UNL     1      22.989   3.549  52.667  1.00  0.00    -0.003 C 
HETATM    4  C12 UNL     1      22.117   2.395  52.376  1.00  0.00    -0.000 C 
HETATM    5  C13 UNL     1      22.443   1.092  52.326  1.00  0.00     0.000 C 
HETATM    6  C14 UNL     1      23.793   0.539  52.563  1.00  0.00     0.006 C 
HETATM    7  C15 UNL     1      24.971   1.150  52.356  1.00  0.00    -0.041 C 
ENDROOT
BRANCH   7   8
HETATM    8  C16 UNL     1      26.143   0.294  52.704  1.00  0.00     0.209 C 
HETATM    9  N1  UNL     1      27.385   1.060  52.531  1.00  0.00    -0.326 N 
HETATM   10  C17 UNL     1      27.602   1.713  53.787  1.00  0.00     0.323 C 
HETATM   11  H19 UNL     1      28.063   1.202  51.751  1.00  0.00     0.165 HD
HETATM   12  O1  UNL     1      28.287   2.703  54.151  1.00  0.00    -0.247 OA
HETATM   13  N2  UNL     1      26.840   1.026  54.788  1.00  0.00    -0.277 N 
HETATM   14  C18 UNL     1      26.142  -0.060  54.160  1.00  0.00     0.252 C 
HETATM   15  H20 UNL     1      26.730   1.194  55.829  1.00  0.00     0.173 HD
HETATM   16  O2  UNL     1      25.630  -1.095  54.694  1.00  0.00    -0.270 OA
ENDBRANCH   7   8
BRANCH   1  17
HETATM   17  C8  UNL     1      25.063   2.595  50.337  1.00  0.00     0.017 C 
BRANCH  17  18
HETATM   18  C7  UNL     1      26.379   3.216  49.850  1.00  0.00     0.028 C 
BRANCH  18  19
HETATM   19  C6  UNL     1      26.162   4.571  49.312  1.00  0.00    -0.027 C 
HETATM   20  C5  UNL     1      26.964   5.427  48.700  1.00  0.00    -0.004 C 
BRANCH  20  21
HETATM   21  C4  UNL     1      28.358   5.106  48.440  1.00  0.00    -0.000 C 
HETATM   22  C3  UNL     1      29.206   6.044  48.003  1.00  0.00    -0.001 C 
BRANCH  22  23
HETATM   23  C2  UNL     1      28.835   7.416  47.757  1.00  0.00    -0.010 C 
HETATM   24  C1  UNL     1      28.594   7.865  46.552  1.00  0.00     0.011 C 
ENDBRANCH  22  23
ENDBRANCH  20  21
ENDBRANCH  18  19
ENDBRANCH  17  18
ENDBRANCH   1  17
TORSDOF 6
ENDMDL
MODEL 6
REMARK VINA RESULT:      -7.0      1.255      1.475
REMARK  6 active torsions:
REMARK  status: ('A' for Active; 'I' for Inactive)
REMARK    1  A    between atoms: C2_2  and  C3_3 
REMARK    2  A    between atoms: C4_4  and  C5_5 
REMARK    3  A    between atoms: C6_6  and  C7_7 
REMARK    4  A    between atoms: C7_7  and  C8_8 
REMARK    5  A    between atoms: C8_8  and  C9_9 
REMARK    6  A    between atoms: C15_15  and  C16_16 
ROOT
HETATM    1  C9  UNL     1      24.586   1.897  52.753  1.00  0.00     0.040 C 
HETATM    2  C10 UNL     1      23.285   2.590  52.757  1.00  0.00    -0.018 C 
HETATM    3  C11 UNL     1      22.035   2.174  52.523  1.00  0.00    -0.003 C 
HETATM    4  C12 UNL     1      21.718   0.775  52.177  1.00  0.00    -0.000 C 
HETATM    5  C13 UNL     1      22.393  -0.341  52.502  1.00  0.00     0.000 C 
HETATM    6  C14 UNL     1      23.635  -0.386  53.303  1.00  0.00     0.006 C 
HETATM    7  C15 UNL     1      24.571   0.571  53.408  1.00  0.00    -0.041 C 
ENDROOT
BRANCH   7   8
HETATM    8  C16 UNL     1      25.699   0.189  54.308  1.00  0.00     0.209 C 
HETATM    9  N1  UNL     1      25.939  -1.257  54.218  1.00  0.00    -0.326 N 
HETATM   10  C17 UNL     1      26.863  -1.419  53.136  1.00  0.00     0.323 C 
HETATM   11  H19 UNL     1      25.599  -2.097  54.736  1.00  0.00     0.165 HD
HETATM   12  O1  UNL     1      27.192  -2.388  52.404  1.00  0.00    -0.247 OA
HETATM   13  N2  UNL     1      27.509  -0.160  52.905  1.00  0.00    -0.277 N 
HETATM   14  C18 UNL     1      26.989   0.795  53.843  1.00  0.00     0.252 C 
HETATM   15  H20 UNL     1      28.247   0.135  52.203  1.00  0.00     0.173 HD
HETATM   16  O2  UNL     1      27.489   1.905  54.212  1.00  0.00    -0.270 OA
ENDBRANCH   7   8
BRANCH   1  17
HETATM   17  C8  UNL     1      25.041   1.813  51.308  1.00  0.00     0.017 C 
BRANCH  17  18
HETATM   18  C7  UNL     1      25.812   3.117  51.063  1.00  0.00     0.028 C 
BRANCH  18  19
HETATM   19  C6  UNL     1      25.742   3.518  49.646  1.00  0.00    -0.027 C 
HETATM   20  C5  UNL     1      24.767   4.026  48.910  1.00  0.00    -0.004 C 
BRANCH  20  21
HETATM   21  C4  UNL     1      23.454   4.294  49.473  1.00  0.00    -0.000 C 
HETATM   22  C3  UNL     1      22.415   3.496  49.198  1.00  0.00    -0.001 C 
BRANCH  22  23
HETATM   23  C2  UNL     1      22.494   2.333  48.347  1.00  0.00    -0.010 C 
HETATM   24  C1  UNL     1      21.718   1.294  48.518  1.00  0.00     0.011 C 
ENDBRANCH  22  23
ENDBRANCH  20  21
ENDBRANCH  18  19
ENDBRANCH  17  18
ENDBRANCH   1  17
TORSDOF 6
ENDMDL
MODEL 7
REMARK VINA RESULT:      -7.0      3.359      5.975
REMARK  6 active torsions:
REMARK  status: ('A' for Active; 'I' for Inactive)
REMARK    1  A    between atoms: C2_2  and  C3_3 
REMARK    2  A    between atoms: C4_4  and  C5_5 
REMARK    3  A    between atoms: C6_6  and  C7_7 
REMARK    4  A    between atoms: C7_7  and  C8_8 
REMARK    5  A    between atoms: C8_8  and  C9_9 
REMARK    6  A    between atoms: C15_15  and  C16_16 
ROOT
HETATM    1  C9  UNL     1      24.157   0.644  53.138  1.00  0.00     0.040 C 
HETATM    2  C10 UNL     1      24.561   1.930  53.736  1.00  0.00    -0.018 C 
HETATM    3  C11 UNL     1      24.549   3.187  53.276  1.00  0.00    -0.003 C 
HETATM    4  C12 UNL     1      24.069   3.532  51.925  1.00  0.00    -0.000 C 
HETATM    5  C13 UNL     1      23.168   2.884  51.167  1.00  0.00     0.000 C 
HETATM    6  C14 UNL     1      22.453   1.650  51.555  1.00  0.00     0.006 C 
HETATM    7  C15 UNL     1      22.877   0.694  52.397  1.00  0.00    -0.041 C 
ENDROOT
BRANCH   7   8
HETATM    8  C16 UNL     1      21.897  -0.419  52.562  1.00  0.00     0.209 C 
HETATM    9  N1  UNL     1      22.511  -1.514  53.325  1.00  0.00    -0.326 N 
HETATM   10  C17 UNL     1      22.256  -1.204  54.699  1.00  0.00     0.323 C 
HETATM   11  H19 UNL     1      23.042  -2.378  53.080  1.00  0.00     0.165 HD
HETATM   12  O1  UNL     1      22.770  -1.569  55.788  1.00  0.00    -0.247 OA
HETATM   13  N2  UNL     1      21.167  -0.273  54.756  1.00  0.00    -0.277 N 
HETATM   14  C18 UNL     1      20.737   0.003  53.413  1.00  0.00     0.252 C 
HETATM   15  H20 UNL     1      20.681   0.195  55.574  1.00  0.00     0.173 HD
HETATM   16  O2  UNL     1      19.634   0.493  53.013  1.00  0.00    -0.270 OA
ENDBRANCH   7   8
BRANCH   1  17
HETATM   17  C8  UNL     1      25.305   0.180  52.262  1.00  0.00     0.017 C 
BRANCH  17  18
HETATM   18  C7  UNL     1      25.971  -0.954  53.053  1.00  0.00     0.028 C 
BRANCH  18  19
HETATM   19  C6  UNL     1      27.378  -1.129  52.651  1.00  0.00    -0.027 C 
HETATM   20  C5  UNL     1      28.520  -0.897  53.276  1.00  0.00    -0.004 C 
BRANCH  20  21
HETATM   21  C4  UNL     1      28.549  -0.365  54.629  1.00  0.00    -0.000 C 
HETATM   22  C3  UNL     1      28.821   0.927  54.851  1.00  0.00    -0.001 C 
BRANCH  22  23
HETATM   23  C2  UNL     1      29.102   1.883  53.808  1.00  0.00    -0.010 C 
HETATM   24  C1  UNL     1      28.152   2.532  53.186  1.00  0.00     0.011 C 
ENDBRANCH  22  23
ENDBRANCH  20  21
ENDBRANCH  18  19
ENDBRANCH  17  18
ENDBRANCH   1  17
TORSDOF 6
ENDMDL
MODEL 8
REMARK VINA RESULT:      -6.8      3.342      4.746
REMARK  6 active torsions:
REMARK  status: ('A' for Active; 'I' for Inactive)
REMARK    1  A    between atoms: C2_2  and  C3_3 
REMARK    2  A    between atoms: C4_4  and  C5_5 
REMARK    3  A    between atoms: C6_6  and  C7_7 
REMARK    4  A    between atoms: C7_7  and  C8_8 
REMARK    5  A    between atoms: C8_8  and  C9_9 
REMARK    6  A    between atoms: C15_15  and  C16_16 
ROOT
HETATM    1  C9  UNL     1      23.901   1.966  52.004  1.00  0.00     0.040 C 
HETATM    2  C10 UNL     1      25.163   2.093  51.252  1.00  0.00    -0.018 C 
HETATM    3  C11 UNL     1      26.412   1.685  51.503  1.00  0.00    -0.003 C 
HETATM    4  C12 UNL     1      26.774   0.948  52.728  1.00  0.00    -0.000 C 
HETATM    5  C13 UNL     1      25.998   0.155  53.487  1.00  0.00     0.000 C 
HETATM    6  C14 UNL     1      24.574  -0.146  53.231  1.00  0.00     0.006 C 
HETATM    7  C15 UNL     1      23.679   0.629  52.597  1.00  0.00    -0.041 C 
ENDROOT
BRANCH   7   8
HETATM    8  C16 UNL     1      22.323   0.012  52.516  1.00  0.00     0.209 C 
HETATM    9  N1  UNL     1      22.356  -1.339  53.092  1.00  0.00    -0.326 N 
HETATM   10  C17 UNL     1      22.093  -1.159  54.488  1.00  0.00     0.323 C 
HETATM   11  H19 UNL     1      22.520  -2.299  52.716  1.00  0.00     0.165 HD
HETATM   12  O1  UNL     1      22.291  -1.862  55.512  1.00  0.00    -0.247 OA
HETATM   13  N2  UNL     1      21.470   0.119  54.667  1.00  0.00    -0.277 N 
HETATM   14  C18 UNL     1      21.341   0.744  53.380  1.00  0.00     0.252 C 
HETATM   15  H20 UNL     1      21.124   0.619  55.535  1.00  0.00     0.173 HD
HETATM   16  O2  UNL     1      20.580   1.701  53.030  1.00  0.00    -0.270 OA
ENDBRANCH   7   8
BRANCH   1  17
HETATM   17  C8  UNL     1      23.894   3.063  53.051  1.00  0.00     0.017 C 
BRANCH  17  18
HETATM   18  C7  UNL     1      22.943   4.132  52.495  1.00  0.00     0.028 C 
BRANCH  18  19
HETATM   19  C6  UNL     1      23.667   5.377  52.182  1.00  0.00    -0.027 C 
HETATM   20  C5  UNL     1      24.059   5.917  51.040  1.00  0.00    -0.004 C 
BRANCH  20  21
HETATM   21  C4  UNL     1      23.795   5.270  49.765  1.00  0.00    -0.000 C 
HETATM   22  C3  UNL     1      24.794   4.994  48.918  1.00  0.00    -0.001 C 
BRANCH  22  23
HETATM   23  C2  UNL     1      26.180   5.300  49.176  1.00  0.00    -0.010 C 
HETATM   24  C1  UNL     1      27.126   4.408  49.036  1.00  0.00     0.011 C 
ENDBRANCH  22  23
ENDBRANCH  20  21
ENDBRANCH  18  19
ENDBRANCH  17  18
ENDBRANCH   1  17
TORSDOF 6
ENDMDL
MODEL 9
REMARK VINA RESULT:      -6.7      1.630      2.435
REMARK  6 active torsions:
REMARK  status: ('A' for Active; 'I' for Inactive)
REMARK    1  A    between atoms: C2_2  and  C3_3 
REMARK    2  A    between atoms: C4_4  and  C5_5 
REMARK    3  A    between atoms: C6_6  and  C7_7 
REMARK    4  A    between atoms: C7_7  and  C8_8 
REMARK    5  A    between atoms: C8_8  and  C9_9 
REMARK    6  A    between atoms: C15_15  and  C16_16 
ROOT
HETATM    1  C9  UNL     1      25.000   2.105  52.654  1.00  0.00     0.040 C 
HETATM    2  C10 UNL     1      23.770   2.914  52.567  1.00  0.00    -0.018 C 
HETATM    3  C11 UNL     1      22.490   2.596  52.344  1.00  0.00    -0.003 C 
HETATM    4  C12 UNL     1      22.046   1.207  52.121  1.00  0.00    -0.000 C 
HETATM    5  C13 UNL     1      22.607   0.068  52.562  1.00  0.00     0.000 C 
HETATM    6  C14 UNL     1      23.828  -0.018  53.390  1.00  0.00     0.006 C 
HETATM    7  C15 UNL     1      24.850   0.853  53.427  1.00  0.00    -0.041 C 
ENDROOT
BRANCH   7   8
HETATM    8  C16 UNL     1      25.925   0.453  54.382  1.00  0.00     0.209 C 
HETATM    9  N1  UNL     1      26.037  -1.012  54.419  1.00  0.00    -0.326 N 
HETATM   10  C17 UNL     1      26.960  -1.345  53.377  1.00  0.00     0.323 C 
HETATM   11  H19 UNL     1      25.615  -1.770  54.998  1.00  0.00     0.165 HD
HETATM   12  O1  UNL     1      27.214  -2.398  52.737  1.00  0.00    -0.247 OA
HETATM   13  N2  UNL     1      27.719  -0.172  53.056  1.00  0.00    -0.277 N 
HETATM   14  C18 UNL     1      27.272   0.902  53.899  1.00  0.00     0.252 C 
HETATM   15  H20 UNL     1      28.492  -0.003  52.350  1.00  0.00     0.173 HD
HETATM   16  O2  UNL     1      27.862   1.992  54.184  1.00  0.00    -0.270 OA
ENDBRANCH   7   8
BRANCH   1  17
HETATM   17  C8  UNL     1      25.463   1.845  51.233  1.00  0.00     0.017 C 
BRANCH  17  18
HETATM   18  C7  UNL     1      26.533   2.912  50.966  1.00  0.00     0.028 C 
BRANCH  18  19
HETATM   19  C6  UNL     1      26.381   3.494  49.620  1.00  0.00    -0.027 C 
HETATM   20  C5  UNL     1      25.606   4.455  49.147  1.00  0.00    -0.004 C 
BRANCH  20  21
HETATM   21  C4  UNL     1      24.671   5.167  50.004  1.00  0.00    -0.000 C 
HETATM   22  C3  UNL     1      24.882   6.447  50.332  1.00  0.00    -0.001 C 
BRANCH  22  23
HETATM   23  C2  UNL     1      26.015   7.219  49.883  1.00  0.00    -0.010 C 
HETATM   24  C1  UNL     1      25.875   8.362  49.262  1.00  0.00     0.011 C 
ENDBRANCH  22  23
ENDBRANCH  20  21
ENDBRANCH  18  19
ENDBRANCH  17  18
ENDBRANCH   1  17
TORSDOF 6
ENDMDL
