MODEL 1
REMARK VINA RESULT:      -6.8      0.000      0.000
REMARK  9 active torsions:
REMARK  status: ('A' for Active; 'I' for Inactive)
REMARK    1  A    between atoms: O1_2  and  C2_3 
REMARK    2  A    between atoms: C3_4  and  C4_5 
REMARK    3  A    between atoms: N1_6  and  O2_7 
REMARK    4  A    between atoms: C6_9  and  N2_10 
REMARK    5  A    between atoms: C6_9  and  C16_23 
REMARK    6  A    between atoms: N2_10  and  C7_11 
REMARK    7  A    between atoms: N3_12  and  C8_13 
REMARK    8  A    between atoms: C8_13  and  N4_14 
REMARK    9  A    between atoms: N4_14  and  C10_16 
ROOT
HETATM    1  C7  UNL     1      24.303   3.022  53.245  1.00  0.00     0.225 C 
HETATM    2  N3  UNL     1      23.570   3.834  52.552  1.00  0.00    -0.264 NA
ENDROOT
BRANCH   1   3
HETATM    3  N2  UNL     1      24.135   1.716  52.846  1.00  0.00    -0.247 NA
BRANCH   3   4
HETATM    4  C6  UNL     1      24.845   0.648  53.379  1.00  0.00     0.187 A 
HETATM    5  N1  UNL     1      24.138  -0.598  54.016  1.00  0.00    -0.125 NA
HETATM    6  C4  UNL     1      25.248  -0.520  53.968  1.00  0.00     0.072 A 
BRANCH   5   7
HETATM    7  O2  UNL     1      22.901  -0.176  53.813  1.00  0.00    -0.301 OA
HETATM    8  C5  UNL     1      21.791  -0.574  54.582  1.00  0.00     0.230 C 
ENDBRANCH   5   7
BRANCH   6   9
HETATM    9  C3  UNL     1      26.300  -0.427  53.912  1.00  0.00    -0.006 A 
HETATM   10  C2  UNL     1      27.434  -0.338  53.831  1.00  0.00     0.133 A 
HETATM   11  C16 UNL     1      26.556  -1.047  52.708  1.00  0.00     0.116 A 
BRANCH  10  12
HETATM   12  O1  UNL     1      28.546  -0.600  53.107  1.00  0.00    -0.376 OA
HETATM   13  C1  UNL     1      29.793  -0.599  53.758  1.00  0.00     0.203 C 
ENDBRANCH  10  12
ENDBRANCH   6   9
ENDBRANCH   3   4
ENDBRANCH   1   3
BRANCH   2  14
HETATM   14  C8  UNL     1      22.730   3.284  51.519  1.00  0.00     0.274 C 
BRANCH  14  15
HETATM   15  N4  UNL     1      23.152   3.734  50.211  1.00  0.00    -0.367 N 
HETATM   16  C9  UNL     1      22.079   3.778  49.227  1.00  0.00     0.151 C 
BRANCH  15  17
HETATM   17  C10 UNL     1      24.452   4.127  49.778  1.00  0.00     0.031 A 
HETATM   18  C11 UNL     1      24.724   5.422  49.368  1.00  0.00     0.031 A 
HETATM   19  C12 UNL     1      25.993   5.767  48.958  1.00  0.00     0.026 A 
HETATM   20  C13 UNL     1      27.046   4.873  48.928  1.00  0.00     0.034 A 
HETATM   21 CL1  UNL     1      28.600   5.483  48.378  1.00  0.00    -0.084 Cl
HETATM   22  C14 UNL     1      26.792   3.584  49.333  1.00  0.00     0.026 A 
HETATM   23  C15 UNL     1      25.515   3.253  49.741  1.00  0.00     0.031 A 
ENDBRANCH  15  17
ENDBRANCH  14  15
ENDBRANCH   2  14
TORSDOF 9
ENDMDL
MODEL 2
REMARK VINA RESULT:      -6.4      1.891      2.182
REMARK  9 active torsions:
REMARK  status: ('A' for Active; 'I' for Inactive)
REMARK    1  A    between atoms: O1_2  and  C2_3 
REMARK    2  A    between atoms: C3_4  and  C4_5 
REMARK    3  A    between atoms: N1_6  and  O2_7 
REMARK    4  A    between atoms: C6_9  and  N2_10 
REMARK    5  A    between atoms: C6_9  and  C16_23 
REMARK    6  A    between atoms: N2_10  and  C7_11 
REMARK    7  A    between atoms: N3_12  and  C8_13 
REMARK    8  A    between atoms: C8_13  and  N4_14 
REMARK    9  A    between atoms: N4_14  and  C10_16 
ROOT
HETATM    1  C7  UNL     1      23.343   4.697  52.668  1.00  0.00     0.225 C 
HETATM    2  N3  UNL     1      23.172   5.563  51.721  1.00  0.00    -0.264 NA
ENDROOT
BRANCH   1   3
HETATM    3  N2  UNL     1      23.182   3.408  52.217  1.00  0.00    -0.247 NA
BRANCH   3   4
HETATM    4  C6  UNL     1      24.103   2.392  52.438  1.00  0.00     0.187 A 
HETATM    5  N1  UNL     1      23.739   0.876  52.268  1.00  0.00    -0.125 NA
HETATM    6  C4  UNL     1      24.759   1.198  52.577  1.00  0.00     0.072 A 
BRANCH   5   7
HETATM    7  O2  UNL     1      22.480   1.073  51.912  1.00  0.00    -0.301 OA
HETATM    8  C5  UNL     1      21.523   0.049  51.783  1.00  0.00     0.230 C 
ENDBRANCH   5   7
BRANCH   6   9
HETATM    9  C3  UNL     1      25.721   1.525  52.870  1.00  0.00    -0.006 A 
HETATM   10  C2  UNL     1      26.766   1.876  53.163  1.00  0.00     0.133 A 
HETATM   11  C16 UNL     1      26.376   1.536  51.657  1.00  0.00     0.116 A 
BRANCH  10  12
HETATM   12  O1  UNL     1      28.019   2.183  52.754  1.00  0.00    -0.376 OA
HETATM   13  C1  UNL     1      29.005   2.428  53.726  1.00  0.00     0.203 C 
ENDBRANCH  10  12
ENDBRANCH   6   9
ENDBRANCH   3   4
ENDBRANCH   1   3
BRANCH   2  14
HETATM   14  C8  UNL     1      22.855   5.079  50.402  1.00  0.00     0.274 C 
BRANCH  14  15
HETATM   15  N4  UNL     1      23.631   5.768  49.394  1.00  0.00    -0.367 N 
HETATM   16  C9  UNL     1      22.859   6.711  48.596  1.00  0.00     0.151 C 
BRANCH  15  17
HETATM   17  C10 UNL     1      25.019   5.643  49.095  1.00  0.00     0.031 A 
HETATM   18  C11 UNL     1      25.733   6.670  48.501  1.00  0.00     0.031 A 
HETATM   19  C12 UNL     1      27.074   6.514  48.227  1.00  0.00     0.026 A 
HETATM   20  C13 UNL     1      27.775   5.359  48.518  1.00  0.00     0.034 A 
HETATM   21 CL1  UNL     1      29.482   5.331  48.102  1.00  0.00    -0.084 Cl
HETATM   22  C14 UNL     1      27.080   4.330  49.108  1.00  0.00     0.026 A 
HETATM   23  C15 UNL     1      25.736   4.501  49.376  1.00  0.00     0.031 A 
ENDBRANCH  15  17
ENDBRANCH  14  15
ENDBRANCH   2  14
TORSDOF 9
ENDMDL
MODEL 3
REMARK VINA RESULT:      -6.4      3.407      5.599
REMARK  9 active torsions:
REMARK  status: ('A' for Active; 'I' for Inactive)
REMARK    1  A    between atoms: O1_2  and  C2_3 
REMARK    2  A    between atoms: C3_4  and  C4_5 
REMARK    3  A    between atoms: N1_6  and  O2_7 
REMARK    4  A    between atoms: C6_9  and  N2_10 
REMARK    5  A    between atoms: C6_9  and  C16_23 
REMARK    6  A    between atoms: N2_10  and  C7_11 
REMARK    7  A    between atoms: N3_12  and  C8_13 
REMARK    8  A    between atoms: C8_13  and  N4_14 
REMARK    9  A    between atoms: N4_14  and  C10_16 
ROOT
HETATM    1  C7  UNL     1      23.897   4.962  51.075  1.00  0.00     0.225 C 
HETATM    2  N3  UNL     1      22.603   4.914  51.078  1.00  0.00    -0.264 NA
ENDROOT
BRANCH   1   3
HETATM    3  N2  UNL     1      24.449   3.842  50.499  1.00  0.00    -0.247 NA
BRANCH   3   4
HETATM    4  C6  UNL     1      25.545   3.166  51.020  1.00  0.00     0.187 A 
HETATM    5  N1  UNL     1      26.947   3.171  50.318  1.00  0.00    -0.125 NA
HETATM    6  C4  UNL     1      26.775   2.619  51.271  1.00  0.00     0.072 A 
BRANCH   5   7
HETATM    7  O2  UNL     1      26.591   3.933  49.298  1.00  0.00    -0.301 OA
HETATM    8  C5  UNL     1      27.428   4.890  48.693  1.00  0.00     0.230 C 
ENDBRANCH   5   7
BRANCH   6   9
HETATM    9  C3  UNL     1      26.590   2.101  52.174  1.00  0.00    -0.006 A 
HETATM   10  C2  UNL     1      26.391   1.522  53.135  1.00  0.00     0.133 A 
HETATM   11  C16 UNL     1      26.502   0.802  51.720  1.00  0.00     0.116 A 
BRANCH  10  12
HETATM   12  O1  UNL     1      26.171   0.318  53.714  1.00  0.00    -0.376 OA
HETATM   13  C1  UNL     1      26.437   0.169  55.086  1.00  0.00     0.203 C 
ENDBRANCH  10  12
ENDBRANCH   6   9
ENDBRANCH   3   4
ENDBRANCH   1   3
BRANCH   2  14
HETATM   14  C8  UNL     1      21.962   3.755  50.510  1.00  0.00     0.274 C 
BRANCH  14  15
HETATM   15  N4  UNL     1      21.101   3.110  51.478  1.00  0.00    -0.367 N 
HETATM   16  C9  UNL     1      19.803   3.753  51.634  1.00  0.00     0.151 C 
BRANCH  15  17
HETATM   17  C10 UNL     1      21.360   1.957  52.274  1.00  0.00     0.031 A 
HETATM   18  C11 UNL     1      20.418   1.454  53.157  1.00  0.00     0.031 A 
HETATM   19  C12 UNL     1      20.702   0.336  53.911  1.00  0.00     0.026 A 
HETATM   20  C13 UNL     1      21.907  -0.336  53.839  1.00  0.00     0.034 A 
HETATM   21 CL1  UNL     1      22.101  -1.746  54.870  1.00  0.00    -0.084 Cl
HETATM   22  C14 UNL     1      22.852   0.151  52.967  1.00  0.00     0.026 A 
HETATM   23  C15 UNL     1      22.554   1.272  52.219  1.00  0.00     0.031 A 
ENDBRANCH  15  17
ENDBRANCH  14  15
ENDBRANCH   2  14
TORSDOF 9
ENDMDL
MODEL 4
REMARK VINA RESULT:      -6.4      1.556      3.676
REMARK  9 active torsions:
REMARK  status: ('A' for Active; 'I' for Inactive)
REMARK    1  A    between atoms: O1_2  and  C2_3 
REMARK    2  A    between atoms: C3_4  and  C4_5 
REMARK    3  A    between atoms: N1_6  and  O2_7 
REMARK    4  A    between atoms: C6_9  and  N2_10 
REMARK    5  A    between atoms: C6_9  and  C16_23 
REMARK    6  A    between atoms: N2_10  and  C7_11 
REMARK    7  A    between atoms: N3_12  and  C8_13 
REMARK    8  A    between atoms: C8_13  and  N4_14 
REMARK    9  A    between atoms: N4_14  and  C10_16 
ROOT
HETATM    1  C7  UNL     1      24.202   3.109  52.962  1.00  0.00     0.225 C 
HETATM    2  N3  UNL     1      24.148   3.812  51.877  1.00  0.00    -0.264 NA
ENDROOT
BRANCH   1   3
HETATM    3  N2  UNL     1      24.831   1.902  52.758  1.00  0.00    -0.247 NA
BRANCH   3   4
HETATM    4  C6  UNL     1      24.315   0.682  53.176  1.00  0.00     0.187 A 
HETATM    5  N1  UNL     1      25.193  -0.400  53.895  1.00  0.00    -0.125 NA
HETATM    6  C4  UNL     1      24.112  -0.571  53.690  1.00  0.00     0.072 A 
BRANCH   5   7
HETATM    7  O2  UNL     1      26.318   0.297  53.875  1.00  0.00    -0.301 OA
HETATM    8  C5  UNL     1      27.359   0.149  54.811  1.00  0.00     0.230 C 
ENDBRANCH   5   7
BRANCH   6   9
HETATM    9  C3  UNL     1      23.085  -0.714  53.485  1.00  0.00    -0.006 A 
HETATM   10  C2  UNL     1      21.973  -0.870  53.287  1.00  0.00     0.133 A 
HETATM   11  C16 UNL     1      22.584  -0.884  54.758  1.00  0.00     0.116 A 
BRANCH  10  12
HETATM   12  O1  UNL     1      20.746  -1.098  53.811  1.00  0.00    -0.376 OA
HETATM   13  C1  UNL     1      19.648  -0.389  53.291  1.00  0.00     0.203 C 
ENDBRANCH  10  12
ENDBRANCH   6   9
ENDBRANCH   3   4
ENDBRANCH   1   3
BRANCH   2  14
HETATM   14  C8  UNL     1      24.721   3.261  50.676  1.00  0.00     0.274 C 
BRANCH  14  15
HETATM   15  N4  UNL     1      24.738   4.241  49.611  1.00  0.00    -0.367 N 
HETATM   16  C9  UNL     1      23.433   4.479  49.009  1.00  0.00     0.151 C 
BRANCH  15  17
HETATM   17  C10 UNL     1      25.841   4.979  49.093  1.00  0.00     0.031 A 
HETATM   18  C11 UNL     1      25.702   6.283  48.647  1.00  0.00     0.031 A 
HETATM   19  C12 UNL     1      26.791   6.967  48.154  1.00  0.00     0.026 A 
HETATM   20  C13 UNL     1      28.056   6.416  48.074  1.00  0.00     0.034 A 
HETATM   21 CL1  UNL     1      29.333   7.431  47.420  1.00  0.00    -0.084 Cl
HETATM   22  C14 UNL     1      28.210   5.123  48.514  1.00  0.00     0.026 A 
HETATM   23  C15 UNL     1      27.109   4.449  49.005  1.00  0.00     0.031 A 
ENDBRANCH  15  17
ENDBRANCH  14  15
ENDBRANCH   2  14
TORSDOF 9
ENDMDL
MODEL 5
REMARK VINA RESULT:      -6.2      3.292      6.246
REMARK  9 active torsions:
REMARK  status: ('A' for Active; 'I' for Inactive)
REMARK    1  A    between atoms: O1_2  and  C2_3 
REMARK    2  A    between atoms: C3_4  and  C4_5 
REMARK    3  A    between atoms: N1_6  and  O2_7 
REMARK    4  A    between atoms: C6_9  and  N2_10 
REMARK    5  A    between atoms: C6_9  and  C16_23 
REMARK    6  A    between atoms: N2_10  and  C7_11 
REMARK    7  A    between atoms: N3_12  and  C8_13 
REMARK    8  A    between atoms: C8_13  and  N4_14 
REMARK    9  A    between atoms: N4_14  and  C10_16 
ROOT
HETATM    1  C7  UNL     1      22.248   2.607  52.057  1.00  0.00     0.225 C 
HETATM    2  N3  UNL     1      23.368   3.242  52.197  1.00  0.00    -0.264 NA
ENDROOT
BRANCH   1   3
HETATM    3  N2  UNL     1      22.226   1.443  52.791  1.00  0.00    -0.247 NA
BRANCH   3   4
HETATM    4  C6  UNL     1      21.132   0.590  52.851  1.00  0.00     0.187 A 
HETATM    5  N1  UNL     1      21.059  -0.613  53.855  1.00  0.00    -0.125 NA
HETATM    6  C4  UNL     1      20.229  -0.396  53.144  1.00  0.00     0.072 A 
BRANCH   5   7
HETATM    7  O2  UNL     1      22.240  -0.402  54.412  1.00  0.00    -0.301 OA
HETATM    8  C5  UNL     1      22.879  -1.307  55.281  1.00  0.00     0.230 C 
ENDBRANCH   5   7
BRANCH   6   9
HETATM    9  C3  UNL     1      19.452  -0.174  52.462  1.00  0.00    -0.006 A 
HETATM   10  C2  UNL     1      18.600   0.051  51.739  1.00  0.00     0.133 A 
HETATM   11  C16 UNL     1      18.421  -0.927  52.982  1.00  0.00     0.116 A 
BRANCH  10  12
HETATM   12  O1  UNL     1      17.308  -0.166  51.400  1.00  0.00    -0.376 OA
HETATM   13  C1  UNL     1      16.918   0.029  50.063  1.00  0.00     0.203 C 
ENDBRANCH  10  12
ENDBRANCH   6   9
ENDBRANCH   3   4
ENDBRANCH   1   3
BRANCH   2  14
HETATM   14  C8  UNL     1      24.375   2.670  53.054  1.00  0.00     0.274 C 
BRANCH  14  15
HETATM   15  N4  UNL     1      25.575   2.356  52.308  1.00  0.00    -0.367 N 
HETATM   16  C9  UNL     1      25.636   2.987  50.996  1.00  0.00     0.151 C 
BRANCH  15  17
HETATM   17  C10 UNL     1      26.672   1.529  52.687  1.00  0.00     0.031 A 
HETATM   18  C11 UNL     1      26.618   0.149  52.576  1.00  0.00     0.031 A 
HETATM   19  C12 UNL     1      27.698  -0.619  52.951  1.00  0.00     0.026 A 
HETATM   20  C13 UNL     1      28.870  -0.081  53.448  1.00  0.00     0.034 A 
HETATM   21 CL1  UNL     1      30.150  -1.207  53.877  1.00  0.00    -0.084 Cl
HETATM   22  C14 UNL     1      28.939   1.287  53.565  1.00  0.00     0.026 A 
HETATM   23  C15 UNL     1      27.848   2.044  53.185  1.00  0.00     0.031 A 
ENDBRANCH  15  17
ENDBRANCH  14  15
ENDBRANCH   2  14
TORSDOF 9
ENDMDL
MODEL 6
REMARK VINA RESULT:      -6.2      3.239      5.211
REMARK  9 active torsions:
REMARK  status: ('A' for Active; 'I' for Inactive)
REMARK    1  A    between atoms: O1_2  and  C2_3 
REMARK    2  A    between atoms: C3_4  and  C4_5 
REMARK    3  A    between atoms: N1_6  and  O2_7 
REMARK    4  A    between atoms: C6_9  and  N2_10 
REMARK    5  A    between atoms: C6_9  and  C16_23 
REMARK    6  A    between atoms: N2_10  and  C7_11 
REMARK    7  A    between atoms: N3_12  and  C8_13 
REMARK    8  A    between atoms: C8_13  and  N4_14 
REMARK    9  A    between atoms: N4_14  and  C10_16 
ROOT
HETATM    1  C7  UNL     1      21.593   0.873  49.810  1.00  0.00     0.225 C 
HETATM    2  N3  UNL     1      22.448   1.830  49.640  1.00  0.00    -0.264 NA
ENDROOT
BRANCH   1   3
HETATM    3  N2  UNL     1      20.635   1.202  50.741  1.00  0.00    -0.247 NA
BRANCH   3   4
HETATM    4  C6  UNL     1      20.288   0.390  51.813  1.00  0.00     0.187 A 
HETATM    5  N1  UNL     1      18.812  -0.070  52.076  1.00  0.00    -0.125 NA
HETATM    6  C4  UNL     1      19.647  -0.379  52.746  1.00  0.00     0.072 A 
BRANCH   5   7
HETATM    7  O2  UNL     1      18.284   0.554  51.035  1.00  0.00    -0.301 OA
HETATM    8  C5  UNL     1      17.219   0.048  50.265  1.00  0.00     0.230 C 
ENDBRANCH   5   7
BRANCH   6   9
HETATM    9  C3  UNL     1      20.452  -0.661  53.370  1.00  0.00    -0.006 A 
HETATM   10  C2  UNL     1      21.319  -0.945  54.055  1.00  0.00     0.133 A 
HETATM   11  C16 UNL     1      20.531   0.430  54.208  1.00  0.00     0.116 A 
BRANCH  10  12
HETATM   12  O1  UNL     1      22.105  -0.594  55.099  1.00  0.00    -0.376 OA
HETATM   13  C1  UNL     1      23.123  -1.475  55.504  1.00  0.00     0.203 C 
ENDBRANCH  10  12
ENDBRANCH   6   9
ENDBRANCH   3   4
ENDBRANCH   1   3
BRANCH   2  14
HETATM   14  C8  UNL     1      22.283   3.038  50.409  1.00  0.00     0.274 C 
BRANCH  14  15
HETATM   15  N4  UNL     1      23.262   3.115  51.472  1.00  0.00    -0.367 N 
HETATM   16  C9  UNL     1      23.136   4.305  52.303  1.00  0.00     0.151 C 
BRANCH  15  17
HETATM   17  C10 UNL     1      24.303   2.198  51.795  1.00  0.00     0.031 A 
HETATM   18  C11 UNL     1      24.086   1.112  52.627  1.00  0.00     0.031 A 
HETATM   19  C12 UNL     1      25.116   0.244  52.918  1.00  0.00     0.026 A 
HETATM   20  C13 UNL     1      26.394   0.395  52.415  1.00  0.00     0.034 A 
HETATM   21 CL1  UNL     1      27.589  -0.804  52.887  1.00  0.00    -0.084 Cl
HETATM   22  C14 UNL     1      26.626   1.469  51.588  1.00  0.00     0.026 A 
HETATM   23  C15 UNL     1      25.584   2.330  51.306  1.00  0.00     0.031 A 
ENDBRANCH  15  17
ENDBRANCH  14  15
ENDBRANCH   2  14
TORSDOF 9
ENDMDL
MODEL 7
REMARK VINA RESULT:      -6.1      3.666      6.855
REMARK  9 active torsions:
REMARK  status: ('A' for Active; 'I' for Inactive)
REMARK    1  A    between atoms: O1_2  and  C2_3 
REMARK    2  A    between atoms: C3_4  and  C4_5 
REMARK    3  A    between atoms: N1_6  and  O2_7 
REMARK    4  A    between atoms: C6_9  and  N2_10 
REMARK    5  A    between atoms: C6_9  and  C16_23 
REMARK    6  A    between atoms: N2_10  and  C7_11 
REMARK    7  A    between atoms: N3_12  and  C8_13 
REMARK    8  A    between atoms: C8_13  and  N4_14 
REMARK    9  A    between atoms: N4_14  and  C10_16 
ROOT
HETATM    1  C7  UNL     1      23.214   1.945  51.857  1.00  0.00     0.225 C 
HETATM    2  N3  UNL     1      23.486   1.471  53.030  1.00  0.00    -0.264 NA
ENDROOT
BRANCH   1   3
HETATM    3  N2  UNL     1      22.625   1.002  51.048  1.00  0.00    -0.247 NA
BRANCH   3   4
HETATM    4  C6  UNL     1      21.739   1.308  50.023  1.00  0.00     0.187 A 
HETATM    5  N1  UNL     1      20.222   0.915  50.077  1.00  0.00    -0.125 NA
HETATM    6  C4  UNL     1      20.651   1.459  49.205  1.00  0.00     0.072 A 
BRANCH   5   7
HETATM    7  O2  UNL     1      20.272   0.328  51.261  1.00  0.00    -0.301 OA
HETATM    8  C5  UNL     1      19.141   0.014  52.039  1.00  0.00     0.230 C 
ENDBRANCH   5   7
BRANCH   6   9
HETATM    9  C3  UNL     1      21.078   1.976  48.387  1.00  0.00    -0.006 A 
HETATM   10  C2  UNL     1      21.534   2.553  47.516  1.00  0.00     0.133 A 
HETATM   11  C16 UNL     1      20.898   3.285  48.779  1.00  0.00     0.116 A 
BRANCH  10  12
HETATM   12  O1  UNL     1      21.826   3.761  46.981  1.00  0.00    -0.376 OA
HETATM   13  C1  UNL     1      21.942   3.872  45.584  1.00  0.00     0.203 C 
ENDBRANCH  10  12
ENDBRANCH   6   9
ENDBRANCH   3   4
ENDBRANCH   1   3
BRANCH   2  14
HETATM   14  C8  UNL     1      23.150   0.097  53.306  1.00  0.00     0.274 C 
BRANCH  14  15
HETATM   15  N4  UNL     1      24.153  -0.526  54.142  1.00  0.00    -0.367 N 
HETATM   16  C9  UNL     1      23.605  -1.275  55.264  1.00  0.00     0.151 C 
BRANCH  15  17
HETATM   17  C10 UNL     1      25.572  -0.498  54.006  1.00  0.00     0.031 A 
HETATM   18  C11 UNL     1      26.217  -1.122  52.951  1.00  0.00     0.031 A 
HETATM   19  C12 UNL     1      27.589  -1.073  52.850  1.00  0.00     0.026 A 
HETATM   20  C13 UNL     1      28.390  -0.419  53.767  1.00  0.00     0.034 A 
HETATM   21 CL1  UNL     1      30.125  -0.455  53.485  1.00  0.00    -0.084 Cl
HETATM   22  C14 UNL     1      27.766   0.206  54.820  1.00  0.00     0.026 A 
HETATM   23  C15 UNL     1      26.388   0.148  54.908  1.00  0.00     0.031 A 
ENDBRANCH  15  17
ENDBRANCH  14  15
ENDBRANCH   2  14
TORSDOF 9
ENDMDL
MODEL 8
REMARK VINA RESULT:      -6.0      3.501      6.849
REMARK  9 active torsions:
REMARK  status: ('A' for Active; 'I' for Inactive)
REMARK    1  A    between atoms: O1_2  and  C2_3 
REMARK    2  A    between atoms: C3_4  and  C4_5 
REMARK    3  A    between atoms: N1_6  and  O2_7 
REMARK    4  A    between atoms: C6_9  and  N2_10 
REMARK    5  A    between atoms: C6_9  and  C16_23 
REMARK    6  A    between atoms: N2_10  and  C7_11 
REMARK    7  A    between atoms: N3_12  and  C8_13 
REMARK    8  A    between atoms: C8_13  and  N4_14 
REMARK    9  A    between atoms: N4_14  and  C10_16 
ROOT
HETATM    1  C7  UNL     1      24.424   3.370  49.627  1.00  0.00     0.225 C 
HETATM    2  N3  UNL     1      23.984   2.479  50.456  1.00  0.00    -0.264 NA
ENDROOT
BRANCH   1   3
HETATM    3  N2  UNL     1      25.110   4.374  50.271  1.00  0.00    -0.247 NA
BRANCH   3   4
HETATM    4  C6  UNL     1      25.884   5.323  49.617  1.00  0.00     0.187 A 
HETATM    5  N1  UNL     1      25.419   6.810  49.439  1.00  0.00    -0.125 NA
HETATM    6  C4  UNL     1      26.398   6.455  49.042  1.00  0.00     0.072 A 
BRANCH   5   7
HETATM    7  O2  UNL     1      24.262   6.671  50.064  1.00  0.00    -0.301 OA
HETATM    8  C5  UNL     1      23.559   7.726  50.675  1.00  0.00     0.230 C 
ENDBRANCH   5   7
BRANCH   6   9
HETATM    9  C3  UNL     1      27.322   6.098  48.673  1.00  0.00    -0.006 A 
HETATM   10  C2  UNL     1      28.324   5.735  48.267  1.00  0.00     0.133 A 
HETATM   11  C16 UNL     1      27.862   7.254  48.151  1.00  0.00     0.116 A 
BRANCH  10  12
HETATM   12  O1  UNL     1      29.477   6.053  47.635  1.00  0.00    -0.376 OA
HETATM   13  C1  UNL     1      30.601   5.229  47.825  1.00  0.00     0.203 C 
ENDBRANCH  10  12
ENDBRANCH   6   9
ENDBRANCH   3   4
ENDBRANCH   1   3
BRANCH   2  14
HETATM   14  C8  UNL     1      24.260   2.657  51.859  1.00  0.00     0.274 C 
BRANCH  14  15
HETATM   15  N4  UNL     1      24.625   1.402  52.480  1.00  0.00    -0.367 N 
HETATM   16  C9  UNL     1      23.485   0.575  52.853  1.00  0.00     0.151 C 
BRANCH  15  17
HETATM   17  C10 UNL     1      25.924   0.890  52.764  1.00  0.00     0.031 A 
HETATM   18  C11 UNL     1      26.218  -0.459  52.648  1.00  0.00     0.031 A 
HETATM   19  C12 UNL     1      27.486  -0.919  52.929  1.00  0.00     0.026 A 
HETATM   20  C13 UNL     1      28.516  -0.092  53.333  1.00  0.00     0.034 A 
HETATM   21 CL1  UNL     1      30.072  -0.845  53.649  1.00  0.00    -0.084 Cl
HETATM   22  C14 UNL     1      28.241   1.250  53.452  1.00  0.00     0.026 A 
HETATM   23  C15 UNL     1      26.965   1.696  53.167  1.00  0.00     0.031 A 
ENDBRANCH  15  17
ENDBRANCH  14  15
ENDBRANCH   2  14
TORSDOF 9
ENDMDL
MODEL 9
REMARK VINA RESULT:      -6.0      4.434      7.776
REMARK  9 active torsions:
REMARK  status: ('A' for Active; 'I' for Inactive)
REMARK    1  A    between atoms: O1_2  and  C2_3 
REMARK    2  A    between atoms: C3_4  and  C4_5 
REMARK    3  A    between atoms: N1_6  and  O2_7 
REMARK    4  A    between atoms: C6_9  and  N2_10 
REMARK    5  A    between atoms: C6_9  and  C16_23 
REMARK    6  A    between atoms: N2_10  and  C7_11 
REMARK    7  A    between atoms: N3_12  and  C8_13 
REMARK    8  A    between atoms: C8_13  and  N4_14 
REMARK    9  A    between atoms: N4_14  and  C10_16 
ROOT
HETATM    1  C7  UNL     1      26.968   4.220  49.194  1.00  0.00     0.225 C 
HETATM    2  N3  UNL     1      26.763   3.148  49.889  1.00  0.00    -0.264 NA
ENDROOT
BRANCH   1   3
HETATM    3  N2  UNL     1      25.963   5.143  49.369  1.00  0.00    -0.247 NA
BRANCH   3   4
HETATM    4  C6  UNL     1      26.185   6.502  49.554  1.00  0.00     0.187 A 
HETATM    5  N1  UNL     1      25.131   7.441  50.235  1.00  0.00    -0.125 NA
HETATM    6  C4  UNL     1      26.108   7.832  49.868  1.00  0.00     0.072 A 
BRANCH   5   7
HETATM    7  O2  UNL     1      24.227   6.501  50.454  1.00  0.00    -0.301 OA
HETATM    8  C5  UNL     1      22.884   6.757  50.793  1.00  0.00     0.230 C 
ENDBRANCH   5   7
BRANCH   6   9
HETATM    9  C3  UNL     1      27.040   8.183  49.513  1.00  0.00    -0.006 A 
HETATM   10  C2  UNL     1      28.044   8.578  49.146  1.00  0.00     0.133 A 
HETATM   11  C16 UNL     1      27.262   9.246  50.361  1.00  0.00     0.116 A 
BRANCH  10  12
HETATM   12  O1  UNL     1      29.027   9.497  49.293  1.00  0.00    -0.376 OA
HETATM   13  C1  UNL     1      30.359   9.103  49.070  1.00  0.00     0.203 C 
ENDBRANCH  10  12
ENDBRANCH   6   9
ENDBRANCH   3   4
ENDBRANCH   1   3
BRANCH   2  14
HETATM   14  C8  UNL     1      25.576   3.078  50.703  1.00  0.00     0.274 C 
BRANCH  14  15
HETATM   15  N4  UNL     1      25.748   2.145  51.795  1.00  0.00    -0.367 N 
HETATM   16  C9  UNL     1      27.124   2.030  52.262  1.00  0.00     0.151 C 
BRANCH  15  17
HETATM   17  C10 UNL     1      24.767   1.347  52.452  1.00  0.00     0.031 A 
HETATM   18  C11 UNL     1      25.111   0.220  53.181  1.00  0.00     0.031 A 
HETATM   19  C12 UNL     1      24.136  -0.527  53.804  1.00  0.00     0.026 A 
HETATM   20  C13 UNL     1      22.792  -0.214  53.745  1.00  0.00     0.034 A 
HETATM   21 CL1  UNL     1      21.682  -1.276  54.599  1.00  0.00    -0.084 Cl
HETATM   22  C14 UNL     1      22.434   0.901  53.024  1.00  0.00     0.026 A 
HETATM   23  C15 UNL     1      23.422   1.641  52.405  1.00  0.00     0.031 A 
ENDBRANCH  15  17
ENDBRANCH  14  15
ENDBRANCH   2  14
TORSDOF 9
ENDMDL
