MODEL 1
REMARK VINA RESULT:      -7.3      0.000      0.000
REMARK  7 active torsions:
REMARK  status: ('A' for Active; 'I' for Inactive)
REMARK    1  A    between atoms: O1_2  and  C2_3 
REMARK    2  A    between atoms: C2_3  and  O2_4 
REMARK    3  A    between atoms: O2_4  and  C3_5 
REMARK    4  A    between atoms: C9_13  and  N3_14 
REMARK    5  A    between atoms: N3_14  and  C10_15 
REMARK    6  A    between atoms: C13_18  and  N4_19 
REMARK    7  A    between atoms: N4_19  and  C14_20 
ROOT
HETATM    1  C3  UNL     1      22.338   1.305  50.846  1.00  0.00     0.087 A 
HETATM    2  C4  UNL     1      21.394   0.863  49.944  1.00  0.00     0.038 A 
HETATM    3  C5  UNL     1      21.327   1.401  48.660  1.00  0.00     0.005 A 
HETATM    4  C6  UNL     1      22.234   2.393  48.309  1.00  0.00     0.033 A 
HETATM    5  C7  UNL     1      23.185   2.849  49.195  1.00  0.00     0.075 A 
HETATM    6  N1  UNL     1      24.071   3.808  48.886  1.00  0.00    -0.241 NA
HETATM    7  C8  UNL     1      24.973   4.231  49.758  1.00  0.00     0.236 A 
HETATM    8  N2  UNL     1      24.986   3.674  50.980  1.00  0.00    -0.223 NA
HETATM    9  C9  UNL     1      24.144   2.717  51.370  1.00  0.00     0.144 A 
HETATM   10  C17 UNL     1      23.216   2.289  50.458  1.00  0.00     0.072 A 
ENDROOT
BRANCH   9  11
HETATM   11  N3  UNL     1      24.297   2.238  52.697  1.00  0.00    -0.340 N 
HETATM   12  H10 UNL     1      23.802   2.277  53.604  1.00  0.00     0.167 HD
BRANCH  11  13
HETATM   13  C10 UNL     1      25.426   1.445  53.046  1.00  0.00     0.033 A 
HETATM   14  C11 UNL     1      26.496   1.817  53.872  1.00  0.00     0.032 A 
HETATM   15  C12 UNL     1      27.566   1.015  54.154  1.00  0.00     0.032 A 
HETATM   16  C13 UNL     1      27.655  -0.243  53.625  1.00  0.00     0.034 A 
HETATM   17  C15 UNL     1      26.634  -0.658  52.809  1.00  0.00     0.032 A 
HETATM   18  C16 UNL     1      25.553   0.151  52.524  1.00  0.00     0.032 A 
BRANCH  16  19
HETATM   19  N4  UNL     1      28.813  -0.957  54.003  1.00  0.00    -0.334 N 
HETATM   20  H13 UNL     1      29.413  -0.710  54.812  1.00  0.00     0.168 HD
BRANCH  19  21
HETATM   21  C14 UNL     1      29.357  -2.097  53.374  1.00  0.00     0.353 C 
HETATM   22  O3  UNL     1      28.872  -3.233  53.514  1.00  0.00    -0.283 OA
ENDBRANCH  19  21
ENDBRANCH  16  19
ENDBRANCH  11  13
ENDBRANCH   9  11
BRANCH   1  23
HETATM   23  O2  UNL     1      22.308   0.700  52.085  1.00  0.00    -0.325 OA
BRANCH  23  24
HETATM   24  C2  UNL     1      21.578  -0.433  52.438  1.00  0.00     0.344 C 
BRANCH  24  25
HETATM   25  O1  UNL     1      22.363  -1.247  53.260  1.00  0.00    -0.371 OA
HETATM   26  C1  UNL     1      22.150  -0.822  54.586  1.00  0.00     0.204 C 
ENDBRANCH  24  25
ENDBRANCH  23  24
ENDBRANCH   1  23
TORSDOF 7
ENDMDL
MODEL 2
REMARK VINA RESULT:      -7.0      2.087      4.322
REMARK  7 active torsions:
REMARK  status: ('A' for Active; 'I' for Inactive)
REMARK    1  A    between atoms: O1_2  and  C2_3 
REMARK    2  A    between atoms: C2_3  and  O2_4 
REMARK    3  A    between atoms: O2_4  and  C3_5 
REMARK    4  A    between atoms: C9_13  and  N3_14 
REMARK    5  A    between atoms: N3_14  and  C10_15 
REMARK    6  A    between atoms: C13_18  and  N4_19 
REMARK    7  A    between atoms: N4_19  and  C14_20 
ROOT
HETATM    1  C3  UNL     1      20.946   0.450  51.618  1.00  0.00     0.087 A 
HETATM    2  C4  UNL     1      19.605   0.312  51.331  1.00  0.00     0.038 A 
HETATM    3  C5  UNL     1      18.756  -0.369  52.202  1.00  0.00     0.005 A 
HETATM    4  C6  UNL     1      19.293  -0.906  53.365  1.00  0.00     0.033 A 
HETATM    5  C7  UNL     1      20.630  -0.780  53.670  1.00  0.00     0.075 A 
HETATM    6  N1  UNL     1      21.176  -1.291  54.784  1.00  0.00    -0.241 NA
HETATM    7  C8  UNL     1      22.467  -1.158  55.051  1.00  0.00     0.236 A 
HETATM    8  N2  UNL     1      23.233  -0.491  54.172  1.00  0.00    -0.223 NA
HETATM    9  C9  UNL     1      22.773   0.048  53.043  1.00  0.00     0.144 A 
HETATM   10  C17 UNL     1      21.436  -0.097  52.779  1.00  0.00     0.072 A 
ENDROOT
BRANCH   9  11
HETATM   11  N3  UNL     1      23.719   0.720  52.227  1.00  0.00    -0.340 N 
HETATM   12  H10 UNL     1      23.744   1.273  51.354  1.00  0.00     0.167 HD
BRANCH  11  13
HETATM   13  C10 UNL     1      25.096   0.727  52.585  1.00  0.00     0.033 A 
HETATM   14  C11 UNL     1      26.030  -0.296  52.369  1.00  0.00     0.032 A 
HETATM   15  C12 UNL     1      27.340  -0.237  52.756  1.00  0.00     0.032 A 
HETATM   16  C13 UNL     1      27.829   0.865  53.401  1.00  0.00     0.034 A 
HETATM   17  C15 UNL     1      26.957   1.897  53.638  1.00  0.00     0.032 A 
HETATM   18  C16 UNL     1      25.635   1.838  53.247  1.00  0.00     0.032 A 
BRANCH  16  19
HETATM   19  N4  UNL     1      29.198   0.786  53.739  1.00  0.00    -0.334 N 
HETATM   20  H13 UNL     1      29.698   1.487  54.315  1.00  0.00     0.168 HD
BRANCH  19  21
HETATM   21  C14 UNL     1      30.111  -0.224  53.369  1.00  0.00     0.353 C 
HETATM   22  O3  UNL     1      30.289  -1.247  54.050  1.00  0.00    -0.283 OA
ENDBRANCH  19  21
ENDBRANCH  16  19
ENDBRANCH  11  13
ENDBRANCH   9  11
BRANCH   1  23
HETATM   23  O2  UNL     1      21.687   1.143  50.683  1.00  0.00    -0.325 OA
BRANCH  23  24
HETATM   24  C2  UNL     1      21.202   1.762  49.532  1.00  0.00     0.344 C 
BRANCH  24  25
HETATM   25  O1  UNL     1      21.822   1.199  48.413  1.00  0.00    -0.371 OA
HETATM   26  C1  UNL     1      22.306   2.265  47.629  1.00  0.00     0.204 C 
ENDBRANCH  24  25
ENDBRANCH  23  24
ENDBRANCH   1  23
TORSDOF 7
ENDMDL
MODEL 3
REMARK VINA RESULT:      -6.9      2.931      6.084
REMARK  7 active torsions:
REMARK  status: ('A' for Active; 'I' for Inactive)
REMARK    1  A    between atoms: O1_2  and  C2_3 
REMARK    2  A    between atoms: C2_3  and  O2_4 
REMARK    3  A    between atoms: O2_4  and  C3_5 
REMARK    4  A    between atoms: C9_13  and  N3_14 
REMARK    5  A    between atoms: N3_14  and  C10_15 
REMARK    6  A    between atoms: C13_18  and  N4_19 
REMARK    7  A    between atoms: N4_19  and  C14_20 
ROOT
HETATM    1  C3  UNL     1      21.843   0.547  53.016  1.00  0.00     0.087 A 
HETATM    2  C4  UNL     1      21.080  -0.094  53.968  1.00  0.00     0.038 A 
HETATM    3  C5  UNL     1      21.672  -0.932  54.912  1.00  0.00     0.005 A 
HETATM    4  C6  UNL     1      23.049  -1.106  54.870  1.00  0.00     0.033 A 
HETATM    5  C7  UNL     1      23.830  -0.476  53.926  1.00  0.00     0.075 A 
HETATM    6  N1  UNL     1      25.162  -0.629  53.860  1.00  0.00    -0.241 NA
HETATM    7  C8  UNL     1      25.889  -0.014  52.939  1.00  0.00     0.236 A 
HETATM    8  N2  UNL     1      25.259   0.780  52.058  1.00  0.00    -0.223 NA
HETATM    9  C9  UNL     1      23.943   0.988  52.052  1.00  0.00     0.144 A 
HETATM   10  C17 UNL     1      23.203   0.346  53.009  1.00  0.00     0.072 A 
ENDROOT
BRANCH   9  11
HETATM   11  N3  UNL     1      23.440   1.859  51.051  1.00  0.00    -0.340 N 
HETATM   12  H10 UNL     1      22.795   1.831  50.244  1.00  0.00     0.167 HD
BRANCH  11  13
HETATM   13  C10 UNL     1      23.858   3.219  51.010  1.00  0.00     0.033 A 
HETATM   14  C11 UNL     1      24.711   3.812  50.069  1.00  0.00     0.032 A 
HETATM   15  C12 UNL     1      25.093   5.124  50.095  1.00  0.00     0.032 A 
HETATM   16  C13 UNL     1      24.646   5.962  51.079  1.00  0.00     0.034 A 
HETATM   17  C15 UNL     1      23.807   5.433  52.026  1.00  0.00     0.032 A 
HETATM   18  C16 UNL     1      23.422   4.108  52.000  1.00  0.00     0.032 A 
BRANCH  16  19
HETATM   19  N4  UNL     1      25.121   7.288  50.978  1.00  0.00    -0.334 N 
HETATM   20  H13 UNL     1      24.804   8.069  51.582  1.00  0.00     0.168 HD
BRANCH  19  21
HETATM   21  C14 UNL     1      26.079   7.785  50.069  1.00  0.00     0.353 C 
HETATM   22  O3  UNL     1      26.943   8.616  50.396  1.00  0.00    -0.283 OA
ENDBRANCH  19  21
ENDBRANCH  16  19
ENDBRANCH  11  13
ENDBRANCH   9  11
BRANCH   1  23
HETATM   23  O2  UNL     1      21.148   1.350  52.136  1.00  0.00    -0.325 OA
BRANCH  23  24
HETATM   24  C2  UNL     1      19.884   1.903  52.338  1.00  0.00     0.344 C 
BRANCH  24  25
HETATM   25  O1  UNL     1      20.022   3.257  52.656  1.00  0.00    -0.371 OA
HETATM   26  C1  UNL     1      19.823   3.983  51.465  1.00  0.00     0.204 C 
ENDBRANCH  24  25
ENDBRANCH  23  24
ENDBRANCH   1  23
TORSDOF 7
ENDMDL
MODEL 4
REMARK VINA RESULT:      -6.9      2.904      6.491
REMARK  7 active torsions:
REMARK  status: ('A' for Active; 'I' for Inactive)
REMARK    1  A    between atoms: O1_2  and  C2_3 
REMARK    2  A    between atoms: C2_3  and  O2_4 
REMARK    3  A    between atoms: O2_4  and  C3_5 
REMARK    4  A    between atoms: C9_13  and  N3_14 
REMARK    5  A    between atoms: N3_14  and  C10_15 
REMARK    6  A    between atoms: C13_18  and  N4_19 
REMARK    7  A    between atoms: N4_19  and  C14_20 
ROOT
HETATM    1  C3  UNL     1      23.992  -0.144  53.780  1.00  0.00     0.087 A 
HETATM    2  C4  UNL     1      24.022  -0.948  54.900  1.00  0.00     0.038 A 
HETATM    3  C5  UNL     1      22.865  -1.577  55.357  1.00  0.00     0.005 A 
HETATM    4  C6  UNL     1      21.682  -1.376  54.658  1.00  0.00     0.033 A 
HETATM    5  C7  UNL     1      21.630  -0.576  53.538  1.00  0.00     0.075 A 
HETATM    6  N1  UNL     1      20.501  -0.360  52.846  1.00  0.00    -0.241 NA
HETATM    7  C8  UNL     1      20.478   0.417  51.774  1.00  0.00     0.236 A 
HETATM    8  N2  UNL     1      21.626   0.995  51.384  1.00  0.00    -0.223 NA
HETATM    9  C9  UNL     1      22.790   0.836  52.012  1.00  0.00     0.144 A 
HETATM   10  C17 UNL     1      22.799   0.030  53.119  1.00  0.00     0.072 A 
ENDROOT
BRANCH   9  11
HETATM   11  N3  UNL     1      23.907   1.519  51.465  1.00  0.00    -0.340 N 
HETATM   12  H10 UNL     1      24.799   1.303  50.990  1.00  0.00     0.167 HD
BRANCH  11  13
HETATM   13  C10 UNL     1      23.967   2.941  51.507  1.00  0.00     0.033 A 
HETATM   14  C11 UNL     1      23.519   3.775  52.542  1.00  0.00     0.032 A 
HETATM   15  C12 UNL     1      23.586   5.140  52.514  1.00  0.00     0.032 A 
HETATM   16  C13 UNL     1      24.114   5.791  51.433  1.00  0.00     0.034 A 
HETATM   17  C15 UNL     1      24.568   5.023  50.393  1.00  0.00     0.032 A 
HETATM   18  C16 UNL     1      24.501   3.645  50.420  1.00  0.00     0.032 A 
BRANCH  16  19
HETATM   19  N4  UNL     1      24.120   7.199  51.544  1.00  0.00    -0.334 N 
HETATM   20  H13 UNL     1      24.206   7.713  52.440  1.00  0.00     0.168 HD
BRANCH  19  21
HETATM   21  C14 UNL     1      24.010   8.138  50.497  1.00  0.00     0.353 C 
HETATM   22  O3  UNL     1      22.929   8.395  49.940  1.00  0.00    -0.283 OA
ENDBRANCH  19  21
ENDBRANCH  16  19
ENDBRANCH  11  13
ENDBRANCH   9  11
BRANCH   1  23
HETATM   23  O2  UNL     1      25.197   0.426  53.423  1.00  0.00    -0.325 OA
BRANCH  23  24
HETATM   24  C2  UNL     1      26.251   0.743  54.278  1.00  0.00     0.344 C 
BRANCH  24  25
HETATM   25  O1  UNL     1      26.646   2.064  54.048  1.00  0.00    -0.371 OA
HETATM   26  C1  UNL     1      27.352   2.078  52.829  1.00  0.00     0.204 C 
ENDBRANCH  24  25
ENDBRANCH  23  24
ENDBRANCH   1  23
TORSDOF 7
ENDMDL
MODEL 5
REMARK VINA RESULT:      -6.8      2.000      3.739
REMARK  7 active torsions:
REMARK  status: ('A' for Active; 'I' for Inactive)
REMARK    1  A    between atoms: O1_2  and  C2_3 
REMARK    2  A    between atoms: C2_3  and  O2_4 
REMARK    3  A    between atoms: O2_4  and  C3_5 
REMARK    4  A    between atoms: C9_13  and  N3_14 
REMARK    5  A    between atoms: N3_14  and  C10_15 
REMARK    6  A    between atoms: C13_18  and  N4_19 
REMARK    7  A    between atoms: N4_19  and  C14_20 
ROOT
HETATM    1  C3  UNL     1      22.787   2.104  50.270  1.00  0.00     0.087 A 
HETATM    2  C4  UNL     1      22.181   2.193  49.035  1.00  0.00     0.038 A 
HETATM    3  C5  UNL     1      20.954   1.575  48.796  1.00  0.00     0.005 A 
HETATM    4  C6  UNL     1      20.358   0.866  49.830  1.00  0.00     0.033 A 
HETATM    5  C7  UNL     1      20.947   0.764  51.071  1.00  0.00     0.075 A 
HETATM    6  N1  UNL     1      20.396   0.082  52.088  1.00  0.00    -0.241 NA
HETATM    7  C8  UNL     1      20.986  -0.003  53.271  1.00  0.00     0.236 A 
HETATM    8  N2  UNL     1      22.166   0.615  53.438  1.00  0.00    -0.223 NA
HETATM    9  C9  UNL     1      22.784   1.311  52.484  1.00  0.00     0.144 A 
HETATM   10  C17 UNL     1      22.163   1.392  51.266  1.00  0.00     0.072 A 
ENDROOT
BRANCH   9  11
HETATM   11  N3  UNL     1      24.026   1.902  52.830  1.00  0.00    -0.340 N 
HETATM   12  H10 UNL     1      24.422   2.840  53.010  1.00  0.00     0.167 HD
BRANCH  11  13
HETATM   13  C10 UNL     1      25.178   1.088  53.022  1.00  0.00     0.033 A 
HETATM   14  C11 UNL     1      25.773   0.232  52.084  1.00  0.00     0.032 A 
HETATM   15  C12 UNL     1      26.870  -0.543  52.335  1.00  0.00     0.032 A 
HETATM   16  C13 UNL     1      27.470  -0.526  53.564  1.00  0.00     0.034 A 
HETATM   17  C15 UNL     1      26.929   0.295  54.520  1.00  0.00     0.032 A 
HETATM   18  C16 UNL     1      25.821   1.078  54.266  1.00  0.00     0.032 A 
BRANCH  16  19
HETATM   19  N4  UNL     1      28.593  -1.375  53.679  1.00  0.00    -0.334 N 
HETATM   20  H13 UNL     1      28.543  -2.410  53.691  1.00  0.00     0.168 HD
BRANCH  19  21
HETATM   21  C14 UNL     1      29.945  -0.990  53.797  1.00  0.00     0.353 C 
HETATM   22  O3  UNL     1      30.370   0.098  53.374  1.00  0.00    -0.283 OA
ENDBRANCH  19  21
ENDBRANCH  16  19
ENDBRANCH  11  13
ENDBRANCH   9  11
BRANCH   1  23
HETATM   23  O2  UNL     1      23.997   2.756  50.389  1.00  0.00    -0.325 OA
BRANCH  23  24
HETATM   24  C2  UNL     1      24.422   3.858  49.648  1.00  0.00     0.344 C 
BRANCH  24  25
HETATM   25  O1  UNL     1      25.594   4.366  50.215  1.00  0.00    -0.371 OA
HETATM   26  C1  UNL     1      26.660   3.582  49.731  1.00  0.00     0.204 C 
ENDBRANCH  24  25
ENDBRANCH  23  24
ENDBRANCH   1  23
TORSDOF 7
ENDMDL
MODEL 6
REMARK VINA RESULT:      -6.6      2.360      4.008
REMARK  7 active torsions:
REMARK  status: ('A' for Active; 'I' for Inactive)
REMARK    1  A    between atoms: O1_2  and  C2_3 
REMARK    2  A    between atoms: C2_3  and  O2_4 
REMARK    3  A    between atoms: O2_4  and  C3_5 
REMARK    4  A    between atoms: C9_13  and  N3_14 
REMARK    5  A    between atoms: N3_14  and  C10_15 
REMARK    6  A    between atoms: C13_18  and  N4_19 
REMARK    7  A    between atoms: N4_19  and  C14_20 
ROOT
HETATM    1  C3  UNL     1      23.468   4.459  49.192  1.00  0.00     0.087 A 
HETATM    2  C4  UNL     1      23.309   5.311  48.120  1.00  0.00     0.038 A 
HETATM    3  C5  UNL     1      22.465   4.977  47.062  1.00  0.00     0.005 A 
HETATM    4  C6  UNL     1      21.788   3.765  47.113  1.00  0.00     0.033 A 
HETATM    5  C7  UNL     1      21.934   2.899  48.174  1.00  0.00     0.075 A 
HETATM    6  N1  UNL     1      21.296   1.721  48.248  1.00  0.00    -0.241 NA
HETATM    7  C8  UNL     1      21.456   0.905  49.279  1.00  0.00     0.236 A 
HETATM    8  N2  UNL     1      22.283   1.285  50.267  1.00  0.00    -0.223 NA
HETATM    9  C9  UNL     1      22.956   2.435  50.274  1.00  0.00     0.144 A 
HETATM   10  C17 UNL     1      22.780   3.270  49.202  1.00  0.00     0.072 A 
ENDROOT
BRANCH   9  11
HETATM   11  N3  UNL     1      23.787   2.680  51.398  1.00  0.00    -0.340 N 
HETATM   12  H10 UNL     1      24.023   3.454  52.041  1.00  0.00     0.167 HD
BRANCH  11  13
HETATM   13  C10 UNL     1      24.610   1.643  51.919  1.00  0.00     0.033 A 
HETATM   14  C11 UNL     1      25.922   1.332  51.534  1.00  0.00     0.032 A 
HETATM   15  C12 UNL     1      26.656   0.305  52.060  1.00  0.00     0.032 A 
HETATM   16  C13 UNL     1      26.130  -0.505  53.028  1.00  0.00     0.034 A 
HETATM   17  C15 UNL     1      24.849  -0.244  53.442  1.00  0.00     0.032 A 
HETATM   18  C16 UNL     1      24.108   0.791  52.911  1.00  0.00     0.032 A 
BRANCH  16  19
HETATM   19  N4  UNL     1      27.002  -1.521  53.478  1.00  0.00    -0.334 N 
HETATM   20  H13 UNL     1      26.742  -2.249  54.167  1.00  0.00     0.168 HD
BRANCH  19  21
HETATM   21  C14 UNL     1      28.343  -1.728  53.090  1.00  0.00     0.353 C 
HETATM   22  O3  UNL     1      28.974  -2.756  53.388  1.00  0.00    -0.283 OA
ENDBRANCH  19  21
ENDBRANCH  16  19
ENDBRANCH  11  13
ENDBRANCH   9  11
BRANCH   1  23
HETATM   23  O2  UNL     1      24.328   4.896  50.178  1.00  0.00    -0.325 OA
BRANCH  23  24
HETATM   24  C2  UNL     1      25.619   5.390  49.995  1.00  0.00     0.344 C 
BRANCH  24  25
HETATM   25  O1  UNL     1      26.467   4.334  49.649  1.00  0.00    -0.371 OA
HETATM   26  C1  UNL     1      27.393   4.838  48.714  1.00  0.00     0.204 C 
ENDBRANCH  24  25
ENDBRANCH  23  24
ENDBRANCH   1  23
TORSDOF 7
ENDMDL
MODEL 7
REMARK VINA RESULT:      -6.6      3.419      6.622
REMARK  7 active torsions:
REMARK  status: ('A' for Active; 'I' for Inactive)
REMARK    1  A    between atoms: O1_2  and  C2_3 
REMARK    2  A    between atoms: C2_3  and  O2_4 
REMARK    3  A    between atoms: O2_4  and  C3_5 
REMARK    4  A    between atoms: C9_13  and  N3_14 
REMARK    5  A    between atoms: N3_14  and  C10_15 
REMARK    6  A    between atoms: C13_18  and  N4_19 
REMARK    7  A    between atoms: N4_19  and  C14_20 
ROOT
HETATM    1  C3  UNL     1      23.725   1.720  51.197  1.00  0.00     0.087 A 
HETATM    2  C4  UNL     1      22.749   1.068  51.921  1.00  0.00     0.038 A 
HETATM    3  C5  UNL     1      23.036   0.514  53.167  1.00  0.00     0.005 A 
HETATM    4  C6  UNL     1      24.327   0.634  53.664  1.00  0.00     0.033 A 
HETATM    5  C7  UNL     1      25.317   1.281  52.957  1.00  0.00     0.075 A 
HETATM    6  N1  UNL     1      26.573   1.409  53.411  1.00  0.00    -0.241 NA
HETATM    7  C8  UNL     1      27.507   2.033  52.709  1.00  0.00     0.236 A 
HETATM    8  N2  UNL     1      27.169   2.546  51.514  1.00  0.00    -0.223 NA
HETATM    9  C9  UNL     1      25.947   2.464  50.989  1.00  0.00     0.144 A 
HETATM   10  C17 UNL     1      24.990   1.816  51.726  1.00  0.00     0.072 A 
ENDROOT
BRANCH   9  11
HETATM   11  N3  UNL     1      25.760   3.061  49.716  1.00  0.00    -0.340 N 
HETATM   12  H10 UNL     1      25.396   2.810  48.781  1.00  0.00     0.167 HD
BRANCH  11  13
HETATM   13  C10 UNL     1      26.141   4.415  49.497  1.00  0.00     0.033 A 
HETATM   14  C11 UNL     1      25.465   5.563  49.932  1.00  0.00     0.032 A 
HETATM   15  C12 UNL     1      25.872   6.842  49.670  1.00  0.00     0.032 A 
HETATM   16  C13 UNL     1      27.005   7.079  48.942  1.00  0.00     0.034 A 
HETATM   17  C15 UNL     1      27.706   5.990  48.492  1.00  0.00     0.032 A 
HETATM   18  C16 UNL     1      27.295   4.699  48.755  1.00  0.00     0.032 A 
BRANCH  16  19
HETATM   19  N4  UNL     1      27.304   8.446  48.753  1.00  0.00    -0.334 N 
HETATM   20  H13 UNL     1      28.025   8.801  48.099  1.00  0.00     0.168 HD
BRANCH  19  21
HETATM   21  C14 UNL     1      26.701   9.548  49.396  1.00  0.00     0.353 C 
HETATM   22  O3  UNL     1      27.119  10.004  50.473  1.00  0.00    -0.283 OA
ENDBRANCH  19  21
ENDBRANCH  16  19
ENDBRANCH  11  13
ENDBRANCH   9  11
BRANCH   1  23
HETATM   23  O2  UNL     1      23.325   2.227  49.978  1.00  0.00    -0.325 OA
BRANCH  23  24
HETATM   24  C2  UNL     1      22.250   3.085  49.749  1.00  0.00     0.344 C 
BRANCH  24  25
HETATM   25  O1  UNL     1      22.275   3.503  48.415  1.00  0.00    -0.371 OA
HETATM   26  C1  UNL     1      22.422   2.347  47.622  1.00  0.00     0.204 C 
ENDBRANCH  24  25
ENDBRANCH  23  24
ENDBRANCH   1  23
TORSDOF 7
ENDMDL
MODEL 8
REMARK VINA RESULT:      -6.6      3.352      5.690
REMARK  7 active torsions:
REMARK  status: ('A' for Active; 'I' for Inactive)
REMARK    1  A    between atoms: O1_2  and  C2_3 
REMARK    2  A    between atoms: C2_3  and  O2_4 
REMARK    3  A    between atoms: O2_4  and  C3_5 
REMARK    4  A    between atoms: C9_13  and  N3_14 
REMARK    5  A    between atoms: N3_14  and  C10_15 
REMARK    6  A    between atoms: C13_18  and  N4_19 
REMARK    7  A    between atoms: N4_19  and  C14_20 
ROOT
HETATM    1  C3  UNL     1      23.504   1.843  52.345  1.00  0.00     0.087 A 
HETATM    2  C4  UNL     1      22.877   0.802  52.995  1.00  0.00     0.038 A 
HETATM    3  C5  UNL     1      21.915   0.031  52.344  1.00  0.00     0.005 A 
HETATM    4  C6  UNL     1      21.604   0.336  51.025  1.00  0.00     0.033 A 
HETATM    5  C7  UNL     1      22.218   1.372  50.358  1.00  0.00     0.075 A 
HETATM    6  N1  UNL     1      21.935   1.691  49.086  1.00  0.00    -0.241 NA
HETATM    7  C8  UNL     1      22.539   2.696  48.468  1.00  0.00     0.236 A 
HETATM    8  N2  UNL     1      23.456   3.401  49.150  1.00  0.00    -0.223 NA
HETATM    9  C9  UNL     1      23.798   3.153  50.414  1.00  0.00     0.144 A 
HETATM   10  C17 UNL     1      23.166   2.111  51.040  1.00  0.00     0.072 A 
ENDROOT
BRANCH   9  11
HETATM   11  N3  UNL     1      24.787   3.995  50.983  1.00  0.00    -0.340 N 
HETATM   12  H10 UNL     1      25.113   4.297  51.917  1.00  0.00     0.167 HD
BRANCH  11  13
HETATM   13  C10 UNL     1      25.682   4.717  50.144  1.00  0.00     0.033 A 
HETATM   14  C11 UNL     1      25.624   6.080  49.821  1.00  0.00     0.032 A 
HETATM   15  C12 UNL     1      26.505   6.713  48.990  1.00  0.00     0.032 A 
HETATM   16  C13 UNL     1      27.531   6.024  48.404  1.00  0.00     0.034 A 
HETATM   17  C15 UNL     1      27.635   4.686  48.687  1.00  0.00     0.032 A 
HETATM   18  C16 UNL     1      26.746   4.046  49.526  1.00  0.00     0.032 A 
BRANCH  16  19
HETATM   19  N4  UNL     1      28.362   6.806  47.572  1.00  0.00    -0.334 N 
HETATM   20  H13 UNL     1      28.161   7.014  46.577  1.00  0.00     0.168 HD
BRANCH  19  21
HETATM   21  C14 UNL     1      29.579   7.427  47.923  1.00  0.00     0.353 C 
HETATM   22  O3  UNL     1      30.513   6.810  48.463  1.00  0.00    -0.283 OA
ENDBRANCH  19  21
ENDBRANCH  16  19
ENDBRANCH  11  13
ENDBRANCH   9  11
BRANCH   1  23
HETATM   23  O2  UNL     1      24.438   2.535  53.089  1.00  0.00    -0.325 OA
BRANCH  23  24
HETATM   24  C2  UNL     1      25.646   2.037  53.575  1.00  0.00     0.344 C 
BRANCH  24  25
HETATM   25  O1  UNL     1      26.572   1.984  52.529  1.00  0.00    -0.371 OA
HETATM   26  C1  UNL     1      27.013   0.650  52.435  1.00  0.00     0.204 C 
ENDBRANCH  24  25
ENDBRANCH  23  24
ENDBRANCH   1  23
TORSDOF 7
ENDMDL
MODEL 9
REMARK VINA RESULT:      -6.5      2.527      6.454
REMARK  7 active torsions:
REMARK  status: ('A' for Active; 'I' for Inactive)
REMARK    1  A    between atoms: O1_2  and  C2_3 
REMARK    2  A    between atoms: C2_3  and  O2_4 
REMARK    3  A    between atoms: O2_4  and  C3_5 
REMARK    4  A    between atoms: C9_13  and  N3_14 
REMARK    5  A    between atoms: N3_14  and  C10_15 
REMARK    6  A    between atoms: C13_18  and  N4_19 
REMARK    7  A    between atoms: N4_19  and  C14_20 
ROOT
HETATM    1  C3  UNL     1      24.642  -0.066  53.319  1.00  0.00     0.087 A 
HETATM    2  C4  UNL     1      25.647  -0.988  53.523  1.00  0.00     0.038 A 
HETATM    3  C5  UNL     1      26.899  -0.821  52.935  1.00  0.00     0.005 A 
HETATM    4  C6  UNL     1      27.112   0.296  52.138  1.00  0.00     0.033 A 
HETATM    5  C7  UNL     1      26.123   1.229  51.920  1.00  0.00     0.075 A 
HETATM    6  N1  UNL     1      26.299   2.315  51.152  1.00  0.00    -0.241 NA
HETATM    7  C8  UNL     1      25.328   3.195  50.956  1.00  0.00     0.236 A 
HETATM    8  N2  UNL     1      24.144   2.978  51.551  1.00  0.00    -0.223 NA
HETATM    9  C9  UNL     1      23.883   1.927  52.328  1.00  0.00     0.144 A 
HETATM   10  C17 UNL     1      24.895   1.025  52.522  1.00  0.00     0.072 A 
ENDROOT
BRANCH   9  11
HETATM   11  N3  UNL     1      22.578   1.851  52.879  1.00  0.00    -0.340 N 
HETATM   12  H10 UNL     1      22.116   1.889  53.803  1.00  0.00     0.167 HD
BRANCH  11  13
HETATM   13  C10 UNL     1      21.451   1.665  52.028  1.00  0.00     0.033 A 
HETATM   14  C11 UNL     1      21.360   0.808  50.923  1.00  0.00     0.032 A 
HETATM   15  C12 UNL     1      20.253   0.689  50.130  1.00  0.00     0.032 A 
HETATM   16  C13 UNL     1      19.131   1.429  50.381  1.00  0.00     0.034 A 
HETATM   17  C15 UNL     1      19.166   2.284  51.452  1.00  0.00     0.032 A 
HETATM   18  C16 UNL     1      20.283   2.405  52.253  1.00  0.00     0.032 A 
BRANCH  16  19
HETATM   19  N4  UNL     1      18.066   1.201  49.482  1.00  0.00    -0.334 N 
HETATM   20  H13 UNL     1      18.026   1.579  48.518  1.00  0.00     0.168 HD
BRANCH  19  21
HETATM   21  C14 UNL     1      16.897   0.447  49.718  1.00  0.00     0.353 C 
HETATM   22  O3  UNL     1      16.864  -0.502  50.519  1.00  0.00    -0.283 OA
ENDBRANCH  19  21
ENDBRANCH  16  19
ENDBRANCH  11  13
ENDBRANCH   9  11
BRANCH   1  23
HETATM   23  O2  UNL     1      23.447  -0.337  53.952  1.00  0.00    -0.325 OA
BRANCH  23  24
HETATM   24  C2  UNL     1      23.251  -1.216  55.015  1.00  0.00     0.344 C 
BRANCH  24  25
HETATM   25  O1  UNL     1      21.891  -1.252  55.335  1.00  0.00    -0.371 OA
HETATM   26  C1  UNL     1      21.192  -1.521  54.141  1.00  0.00     0.204 C 
ENDBRANCH  24  25
ENDBRANCH  23  24
ENDBRANCH   1  23
TORSDOF 7
ENDMDL
