MODEL 1
REMARK VINA RESULT:      -7.7      0.000      0.000
REMARK  7 active torsions:
REMARK  status: ('A' for Active; 'I' for Inactive)
REMARK    1  A    between atoms: C1_1  and  N1_6 
REMARK    2  A    between atoms: C2_2  and  C3_3 
REMARK    3  A    between atoms: N1_6  and  P1_7 
REMARK    4  A    between atoms: P1_7  and  C6_8 
REMARK    5  A    between atoms: C10_14  and  O1_15 
REMARK    6  A    between atoms: O1_15  and  C11_16 
REMARK    7  A    between atoms: C11_16  and  C12_17 
ROOT
HETATM    1  C6  UNL     1      21.037   3.467  51.868  1.00  0.00     0.107 A 
HETATM    2  N2  UNL     1      21.387   4.722  51.505  1.00  0.00    -0.238 NA
HETATM    3  C7  UNL     1      22.666   5.110  51.572  1.00  0.00     0.234 A 
HETATM    4  N3  UNL     1      23.616   4.268  51.999  1.00  0.00    -0.241 NA
HETATM    5  C8  UNL     1      23.273   3.035  52.355  1.00  0.00     0.076 A 
HETATM    6  C9  UNL     1      24.214   2.152  52.794  1.00  0.00     0.072 A 
HETATM    7  C10 UNL     1      24.057   0.851  53.201  1.00  0.00     0.107 A 
HETATM    8  C15 UNL     1      22.725   0.414  53.142  1.00  0.00     0.136 A 
HETATM    9  C16 UNL     1      21.688   1.259  52.702  1.00  0.00     0.120 A 
HETATM   10  C17 UNL     1      21.973   2.555  52.315  1.00  0.00     0.061 A 
HETATM   11  O3  UNL     1      20.337   0.986  52.584  1.00  0.00    -0.345 OA
HETATM   12  C18 UNL     1      19.840  -0.277  53.040  1.00  0.00     0.202 C 
HETATM   13  C19 UNL     1      20.870  -0.964  53.910  1.00  0.00     0.202 C 
HETATM   14  O4  UNL     1      22.184  -0.827  53.472  1.00  0.00    -0.344 OA
ENDROOT
BRANCH   7  15
HETATM   15  O1  UNL     1      24.778  -0.139  53.637  1.00  0.00    -0.346 OA
BRANCH  15  16
HETATM   16  C11 UNL     1      25.778  -0.948  53.339  1.00  0.00     0.208 C 
BRANCH  16  17
HETATM   17  C12 UNL     1      27.189  -0.408  53.341  1.00  0.00     0.150 C 
HETATM   18  C13 UNL     1      27.450   0.366  54.563  1.00  0.00     0.041 C 
HETATM   19  C14 UNL     1      28.962   0.610  54.682  1.00  0.00     0.063 C 
HETATM   20  P2  UNL     1      29.574  -0.802  53.632  1.00  0.00     0.012 P 
HETATM   21  O2  UNL     1      28.012  -1.545  53.355  1.00  0.00    -0.359 OA
HETATM   22  H13 UNL     1      30.357  -1.728  54.433  1.00  0.00     0.087 HD
ENDBRANCH  16  17
ENDBRANCH  15  16
ENDBRANCH   7  15
BRANCH   1  23
HETATM   23  P1  UNL     1      19.288   2.923  51.780  1.00  0.00     0.132 P 
BRANCH  23  24
HETATM   24  N1  UNL     1      18.160   3.975  51.252  1.00  0.00    -0.198 NA
BRANCH  24  25
HETATM   25  C1  UNL     1      16.875   3.939  51.795  1.00  0.00     0.039 C 
HETATM   26  C2  UNL     1      15.765   3.909  52.272  1.00  0.00    -0.046 C 
BRANCH  26  27
HETATM   27  C3  UNL     1      14.450   3.891  52.856  1.00  0.00    -0.003 A 
HETATM   28  C4  UNL     1      13.596   4.454  53.786  1.00  0.00    -0.005 A 
HETATM   29  C5  UNL     1      13.054   3.360  52.986  1.00  0.00     0.076 A 
ENDBRANCH  26  27
ENDBRANCH  24  25
ENDBRANCH  23  24
ENDBRANCH   1  23
TORSDOF 7
ENDMDL
MODEL 2
REMARK VINA RESULT:      -7.6      3.378      9.073
REMARK  7 active torsions:
REMARK  status: ('A' for Active; 'I' for Inactive)
REMARK    1  A    between atoms: C1_1  and  N1_6 
REMARK    2  A    between atoms: C2_2  and  C3_3 
REMARK    3  A    between atoms: N1_6  and  P1_7 
REMARK    4  A    between atoms: P1_7  and  C6_8 
REMARK    5  A    between atoms: C10_14  and  O1_15 
REMARK    6  A    between atoms: O1_15  and  C11_16 
REMARK    7  A    between atoms: C11_16  and  C12_17 
ROOT
HETATM    1  C6  UNL     1      23.520   0.667  53.084  1.00  0.00     0.107 A 
HETATM    2  N2  UNL     1      23.496  -0.632  53.459  1.00  0.00    -0.238 NA
HETATM    3  C7  UNL     1      22.330  -1.280  53.568  1.00  0.00     0.234 A 
HETATM    4  N3  UNL     1      21.173  -0.657  53.310  1.00  0.00    -0.241 NA
HETATM    5  C8  UNL     1      21.195   0.619  52.941  1.00  0.00     0.076 A 
HETATM    6  C9  UNL     1      20.037   1.284  52.671  1.00  0.00     0.072 A 
HETATM    7  C10 UNL     1      19.858   2.587  52.281  1.00  0.00     0.107 A 
HETATM    8  C15 UNL     1      21.064   3.294  52.157  1.00  0.00     0.136 A 
HETATM    9  C16 UNL     1      22.307   2.687  52.417  1.00  0.00     0.120 A 
HETATM   10  C17 UNL     1      22.359   1.361  52.805  1.00  0.00     0.061 A 
HETATM   11  O3  UNL     1      23.575   3.237  52.343  1.00  0.00    -0.345 OA
HETATM   12  C18 UNL     1      23.711   4.633  52.058  1.00  0.00     0.202 C 
HETATM   13  C19 UNL     1      22.385   5.339  52.238  1.00  0.00     0.202 C 
HETATM   14  O4  UNL     1      21.280   4.621  51.788  1.00  0.00    -0.344 OA
ENDROOT
BRANCH   7  15
HETATM   15  O1  UNL     1      18.891   3.402  51.976  1.00  0.00    -0.346 OA
BRANCH  15  16
HETATM   16  C11 UNL     1      17.987   3.694  51.059  1.00  0.00     0.208 C 
BRANCH  16  17
HETATM   17  C12 UNL     1      16.521   3.557  51.399  1.00  0.00     0.150 C 
HETATM   18  C13 UNL     1      16.184   2.159  51.700  1.00  0.00     0.041 C 
HETATM   19  C14 UNL     1      14.793   2.113  52.352  1.00  0.00     0.063 C 
HETATM   20  P2  UNL     1      14.713   3.858  53.002  1.00  0.00     0.012 P 
HETATM   21  O2  UNL     1      16.348   4.314  52.568  1.00  0.00    -0.359 OA
HETATM   22  H13 UNL     1      14.637   3.856  54.453  1.00  0.00     0.087 HD
ENDBRANCH  16  17
ENDBRANCH  15  16
ENDBRANCH   7  15
BRANCH   1  23
HETATM   23  P1  UNL     1      25.111   1.566  52.931  1.00  0.00     0.132 P 
BRANCH  23  24
HETATM   24  N1  UNL     1      26.029   1.325  51.605  1.00  0.00    -0.198 NA
BRANCH  24  25
HETATM   25  C1  UNL     1      26.361   2.408  50.790  1.00  0.00     0.039 C 
HETATM   26  C2  UNL     1      26.654   3.349  50.090  1.00  0.00    -0.046 C 
BRANCH  26  27
HETATM   27  C3  UNL     1      27.027   4.465  49.263  1.00  0.00    -0.003 A 
HETATM   28  C4  UNL     1      28.015   5.046  48.490  1.00  0.00    -0.005 A 
HETATM   29  C5  UNL     1      26.758   5.781  48.596  1.00  0.00     0.076 A 
ENDBRANCH  26  27
ENDBRANCH  24  25
ENDBRANCH  23  24
ENDBRANCH   1  23
TORSDOF 7
ENDMDL
MODEL 3
REMARK VINA RESULT:      -7.6      3.139      9.666
REMARK  7 active torsions:
REMARK  status: ('A' for Active; 'I' for Inactive)
REMARK    1  A    between atoms: C1_1  and  N1_6 
REMARK    2  A    between atoms: C2_2  and  C3_3 
REMARK    3  A    between atoms: N1_6  and  P1_7 
REMARK    4  A    between atoms: P1_7  and  C6_8 
REMARK    5  A    between atoms: C10_14  and  O1_15 
REMARK    6  A    between atoms: O1_15  and  C11_16 
REMARK    7  A    between atoms: C11_16  and  C12_17 
ROOT
HETATM    1  C6  UNL     1      23.659   1.308  52.884  1.00  0.00     0.107 A 
HETATM    2  N2  UNL     1      23.771   0.068  53.413  1.00  0.00    -0.238 NA
HETATM    3  C7  UNL     1      22.675  -0.635  53.718  1.00  0.00     0.234 A 
HETATM    4  N3  UNL     1      21.454  -0.127  53.508  1.00  0.00    -0.241 NA
HETATM    5  C8  UNL     1      21.342   1.091  52.989  1.00  0.00     0.076 A 
HETATM    6  C9  UNL     1      20.116   1.639  52.762  1.00  0.00     0.072 A 
HETATM    7  C10 UNL     1      19.800   2.867  52.238  1.00  0.00     0.107 A 
HETATM    8  C15 UNL     1      20.931   3.630  51.906  1.00  0.00     0.136 A 
HETATM    9  C16 UNL     1      22.236   3.143  52.108  1.00  0.00     0.120 A 
HETATM   10  C17 UNL     1      22.426   1.883  52.644  1.00  0.00     0.061 A 
HETATM   11  O3  UNL     1      23.445   3.760  51.837  1.00  0.00    -0.345 OA
HETATM   12  C18 UNL     1      23.445   5.115  51.374  1.00  0.00     0.202 C 
HETATM   13  C19 UNL     1      22.091   5.750  51.604  1.00  0.00     0.202 C 
HETATM   14  O4  UNL     1      21.008   4.910  51.360  1.00  0.00    -0.344 OA
ENDROOT
BRANCH   7  15
HETATM   15  O1  UNL     1      18.749   3.572  51.939  1.00  0.00    -0.346 OA
BRANCH  15  16
HETATM   16  C11 UNL     1      17.793   3.741  51.044  1.00  0.00     0.208 C 
BRANCH  16  17
HETATM   17  C12 UNL     1      16.349   3.647  51.482  1.00  0.00     0.150 C 
HETATM   18  C13 UNL     1      15.993   2.261  51.811  1.00  0.00     0.041 C 
HETATM   19  C14 UNL     1      14.647   2.257  52.555  1.00  0.00     0.063 C 
HETATM   20  P2  UNL     1      14.662   4.006  53.200  1.00  0.00     0.012 P 
HETATM   21  O2  UNL     1      16.277   4.413  52.656  1.00  0.00    -0.359 OA
HETATM   22  H13 UNL     1      14.682   4.010  54.653  1.00  0.00     0.087 HD
ENDBRANCH  16  17
ENDBRANCH  15  16
ENDBRANCH   7  15
BRANCH   1  23
HETATM   23  P1  UNL     1      25.154   2.281  52.460  1.00  0.00     0.132 P 
BRANCH  23  24
HETATM   24  N1  UNL     1      26.429   2.252  53.476  1.00  0.00    -0.198 NA
BRANCH  24  25
HETATM   25  C1  UNL     1      27.293   1.156  53.469  1.00  0.00     0.039 C 
HETATM   26  C2  UNL     1      28.036   0.203  53.468  1.00  0.00    -0.046 C 
BRANCH  26  27
HETATM   27  C3  UNL     1      28.900  -0.947  53.464  1.00  0.00    -0.003 A 
HETATM   28  C4  UNL     1      30.166  -1.437  53.727  1.00  0.00    -0.005 A 
HETATM   29  C5  UNL     1      29.191  -2.398  53.222  1.00  0.00     0.076 A 
ENDBRANCH  26  27
ENDBRANCH  24  25
ENDBRANCH  23  24
ENDBRANCH   1  23
TORSDOF 7
ENDMDL
MODEL 4
REMARK VINA RESULT:      -7.6      3.903      9.336
REMARK  7 active torsions:
REMARK  status: ('A' for Active; 'I' for Inactive)
REMARK    1  A    between atoms: C1_1  and  N1_6 
REMARK    2  A    between atoms: C2_2  and  C3_3 
REMARK    3  A    between atoms: N1_6  and  P1_7 
REMARK    4  A    between atoms: P1_7  and  C6_8 
REMARK    5  A    between atoms: C10_14  and  O1_15 
REMARK    6  A    between atoms: O1_15  and  C11_16 
REMARK    7  A    between atoms: C11_16  and  C12_17 
ROOT
HETATM    1  C6  UNL     1      23.262   0.105  53.442  1.00  0.00     0.107 A 
HETATM    2  N2  UNL     1      23.912  -0.529  54.445  1.00  0.00    -0.238 NA
HETATM    3  C7  UNL     1      23.250  -1.362  55.255  1.00  0.00     0.234 A 
HETATM    4  N3  UNL     1      21.939  -1.581  55.091  1.00  0.00    -0.241 NA
HETATM    5  C8  UNL     1      21.299  -0.959  54.107  1.00  0.00     0.076 A 
HETATM    6  C9  UNL     1      19.966  -1.159  53.911  1.00  0.00     0.072 A 
HETATM    7  C10 UNL     1      19.140  -0.615  52.960  1.00  0.00     0.107 A 
HETATM    8  C15 UNL     1      19.806   0.265  52.092  1.00  0.00     0.136 A 
HETATM    9  C16 UNL     1      21.182   0.530  52.222  1.00  0.00     0.120 A 
HETATM   10  C17 UNL     1      21.911  -0.083  53.224  1.00  0.00     0.061 A 
HETATM   11  O3  UNL     1      21.983   1.362  51.457  1.00  0.00    -0.345 OA
HETATM   12  C18 UNL     1      21.378   2.162  50.436  1.00  0.00     0.202 C 
HETATM   13  C19 UNL     1      19.877   2.205  50.621  1.00  0.00     0.202 C 
HETATM   14  O4  UNL     1      19.306   0.998  51.017  1.00  0.00    -0.344 OA
ENDROOT
BRANCH   7  15
HETATM   15  O1  UNL     1      17.893  -0.659  52.594  1.00  0.00    -0.346 OA
BRANCH  15  16
HETATM   16  C11 UNL     1      16.716  -1.194  52.866  1.00  0.00     0.208 C 
BRANCH  16  17
HETATM   17  C12 UNL     1      16.498  -2.666  52.606  1.00  0.00     0.150 C 
HETATM   18  C13 UNL     1      17.160  -3.481  53.634  1.00  0.00     0.041 C 
HETATM   19  C14 UNL     1      16.647  -4.926  53.529  1.00  0.00     0.063 C 
HETATM   20  P2  UNL     1      15.022  -4.601  52.676  1.00  0.00     0.012 P 
HETATM   21  O2  UNL     1      15.111  -2.852  52.721  1.00  0.00    -0.359 OA
HETATM   22  H13 UNL     1      13.914  -4.999  53.528  1.00  0.00     0.087 HD
ENDBRANCH  16  17
ENDBRANCH  15  16
ENDBRANCH   7  15
BRANCH   1  23
HETATM   23  P1  UNL     1      24.158   1.248  52.324  1.00  0.00     0.132 P 
BRANCH  23  24
HETATM   24  N1  UNL     1      25.594   1.856  52.801  1.00  0.00    -0.198 NA
BRANCH  24  25
HETATM   25  C1  UNL     1      26.677   0.997  52.994  1.00  0.00     0.039 C 
HETATM   26  C2  UNL     1      27.610   0.247  53.161  1.00  0.00    -0.046 C 
BRANCH  26  27
HETATM   27  C3  UNL     1      28.711  -0.661  53.342  1.00  0.00    -0.003 A 
HETATM   28  C4  UNL     1      29.147  -1.971  53.270  1.00  0.00    -0.005 A 
HETATM   29  C5  UNL     1      30.129  -0.983  53.705  1.00  0.00     0.076 A 
ENDBRANCH  26  27
ENDBRANCH  24  25
ENDBRANCH  23  24
ENDBRANCH   1  23
TORSDOF 7
ENDMDL
MODEL 5
REMARK VINA RESULT:      -7.6      3.867      8.636
REMARK  7 active torsions:
REMARK  status: ('A' for Active; 'I' for Inactive)
REMARK    1  A    between atoms: C1_1  and  N1_6 
REMARK    2  A    between atoms: C2_2  and  C3_3 
REMARK    3  A    between atoms: N1_6  and  P1_7 
REMARK    4  A    between atoms: P1_7  and  C6_8 
REMARK    5  A    between atoms: C10_14  and  O1_15 
REMARK    6  A    between atoms: O1_15  and  C11_16 
REMARK    7  A    between atoms: C11_16  and  C12_17 
ROOT
HETATM    1  C6  UNL     1      25.768   1.562  51.866  1.00  0.00     0.107 A 
HETATM    2  N2  UNL     1      26.895   0.842  52.068  1.00  0.00    -0.238 NA
HETATM    3  C7  UNL     1      26.848  -0.305  52.755  1.00  0.00     0.234 A 
HETATM    4  N3  UNL     1      25.691  -0.758  53.254  1.00  0.00    -0.241 NA
HETATM    5  C8  UNL     1      24.583  -0.052  53.057  1.00  0.00     0.076 A 
HETATM    6  C9  UNL     1      23.388  -0.483  53.551  1.00  0.00     0.072 A 
HETATM    7  C10 UNL     1      22.150   0.099  53.452  1.00  0.00     0.107 A 
HETATM    8  C15 UNL     1      22.166   1.306  52.735  1.00  0.00     0.136 A 
HETATM    9  C16 UNL     1      23.355   1.827  52.190  1.00  0.00     0.120 A 
HETATM   10  C17 UNL     1      24.546   1.143  52.357  1.00  0.00     0.061 A 
HETATM   11  O3  UNL     1      23.542   2.990  51.464  1.00  0.00    -0.345 OA
HETATM   12  C18 UNL     1      22.436   3.880  51.282  1.00  0.00     0.202 C 
HETATM   13  C19 UNL     1      21.320   3.536  52.244  1.00  0.00     0.202 C 
HETATM   14  O4  UNL     1      21.117   2.172  52.433  1.00  0.00    -0.344 OA
ENDROOT
BRANCH   7  15
HETATM   15  O1  UNL     1      20.923  -0.121  53.823  1.00  0.00    -0.346 OA
BRANCH  15  16
HETATM   16  C11 UNL     1      19.918  -0.974  53.744  1.00  0.00     0.208 C 
BRANCH  16  17
HETATM   17  C12 UNL     1      18.611  -0.519  53.137  1.00  0.00     0.150 C 
HETATM   18  C13 UNL     1      18.756  -0.298  51.692  1.00  0.00     0.041 C 
HETATM   19  C14 UNL     1      17.358  -0.164  51.068  1.00  0.00     0.063 C 
HETATM   20  P2  UNL     1      16.368  -1.065  52.364  1.00  0.00     0.012 P 
HETATM   21  O2  UNL     1      17.728  -1.594  53.332  1.00  0.00    -0.359 OA
HETATM   22  H13 UNL     1      15.754  -2.254  51.797  1.00  0.00     0.087 HD
ENDBRANCH  16  17
ENDBRANCH  15  16
ENDBRANCH   7  15
BRANCH   1  23
HETATM   23  P1  UNL     1      25.819   3.135  50.926  1.00  0.00     0.132 P 
BRANCH  23  24
HETATM   24  N1  UNL     1      26.488   3.143  49.439  1.00  0.00    -0.198 NA
BRANCH  24  25
HETATM   25  C1  UNL     1      27.112   4.300  48.969  1.00  0.00     0.039 C 
HETATM   26  C2  UNL     1      27.648   5.306  48.568  1.00  0.00    -0.046 C 
BRANCH  26  27
HETATM   27  C3  UNL     1      28.292   6.510  48.115  1.00  0.00    -0.003 A 
HETATM   28  C4  UNL     1      29.311   7.054  47.356  1.00  0.00    -0.005 A 
HETATM   29  C5  UNL     1      28.442   8.000  48.049  1.00  0.00     0.076 A 
ENDBRANCH  26  27
ENDBRANCH  24  25
ENDBRANCH  23  24
ENDBRANCH   1  23
TORSDOF 7
ENDMDL
MODEL 6
REMARK VINA RESULT:      -7.2      4.992      8.640
REMARK  7 active torsions:
REMARK  status: ('A' for Active; 'I' for Inactive)
REMARK    1  A    between atoms: C1_1  and  N1_6 
REMARK    2  A    between atoms: C2_2  and  C3_3 
REMARK    3  A    between atoms: N1_6  and  P1_7 
REMARK    4  A    between atoms: P1_7  and  C6_8 
REMARK    5  A    between atoms: C10_14  and  O1_15 
REMARK    6  A    between atoms: O1_15  and  C11_16 
REMARK    7  A    between atoms: C11_16  and  C12_17 
ROOT
HETATM    1  C6  UNL     1      26.007   6.204  49.202  1.00  0.00     0.107 A 
HETATM    2  N2  UNL     1      27.193   6.260  48.555  1.00  0.00    -0.238 NA
HETATM    3  C7  UNL     1      27.965   5.170  48.470  1.00  0.00     0.234 A 
HETATM    4  N3  UNL     1      27.580   4.012  49.021  1.00  0.00    -0.241 NA
HETATM    5  C8  UNL     1      26.415   3.956  49.656  1.00  0.00     0.076 A 
HETATM    6  C9  UNL     1      25.992   2.794  50.228  1.00  0.00     0.072 A 
HETATM    7  C10 UNL     1      24.833   2.540  50.918  1.00  0.00     0.107 A 
HETATM    8  C15 UNL     1      24.000   3.666  51.025  1.00  0.00     0.136 A 
HETATM    9  C16 UNL     1      24.358   4.906  50.465  1.00  0.00     0.120 A 
HETATM   10  C17 UNL     1      25.557   5.037  49.789  1.00  0.00     0.061 A 
HETATM   11  O3  UNL     1      23.659   6.100  50.480  1.00  0.00    -0.345 OA
HETATM   12  C18 UNL     1      22.440   6.182  51.226  1.00  0.00     0.202 C 
HETATM   13  C19 UNL     1      22.322   5.007  52.172  1.00  0.00     0.202 C 
HETATM   14  O4  UNL     1      22.760   3.794  51.647  1.00  0.00    -0.344 OA
ENDROOT
BRANCH   7  15
HETATM   15  O1  UNL     1      24.241   1.554  51.523  1.00  0.00    -0.346 OA
BRANCH  15  16
HETATM   16  C11 UNL     1      24.279   0.775  52.589  1.00  0.00     0.208 C 
BRANCH  16  17
HETATM   17  C12 UNL     1      23.031   0.028  53.001  1.00  0.00     0.150 C 
HETATM   18  C13 UNL     1      23.265  -0.742  54.230  1.00  0.00     0.041 C 
HETATM   19  C14 UNL     1      21.912  -1.209  54.789  1.00  0.00     0.063 C 
HETATM   20  P2  UNL     1      20.809   0.066  53.994  1.00  0.00     0.012 P 
HETATM   21  O2  UNL     1      22.086   1.029  53.280  1.00  0.00    -0.359 OA
HETATM   22  H13 UNL     1      20.167   0.885  55.009  1.00  0.00     0.087 HD
ENDBRANCH  16  17
ENDBRANCH  15  16
ENDBRANCH   7  15
BRANCH   1  23
HETATM   23  P1  UNL     1      24.939   7.689  49.326  1.00  0.00     0.132 P 
BRANCH  23  24
HETATM   24  N1  UNL     1      25.567   9.064  49.938  1.00  0.00    -0.198 NA
BRANCH  24  25
HETATM   25  C1  UNL     1      26.928   9.330  49.782  1.00  0.00     0.039 C 
HETATM   26  C2  UNL     1      28.107   9.555  49.641  1.00  0.00    -0.046 C 
BRANCH  26  27
HETATM   27  C3  UNL     1      29.507   9.822  49.447  1.00  0.00    -0.003 A 
HETATM   28  C4  UNL     1      30.466  10.765  49.127  1.00  0.00    -0.005 A 
HETATM   29  C5  UNL     1      30.951   9.419  49.415  1.00  0.00     0.076 A 
ENDBRANCH  26  27
ENDBRANCH  24  25
ENDBRANCH  23  24
ENDBRANCH   1  23
TORSDOF 7
ENDMDL
MODEL 7
REMARK VINA RESULT:      -7.2      4.618      6.393
REMARK  7 active torsions:
REMARK  status: ('A' for Active; 'I' for Inactive)
REMARK    1  A    between atoms: C1_1  and  N1_6 
REMARK    2  A    between atoms: C2_2  and  C3_3 
REMARK    3  A    between atoms: N1_6  and  P1_7 
REMARK    4  A    between atoms: P1_7  and  C6_8 
REMARK    5  A    between atoms: C10_14  and  O1_15 
REMARK    6  A    between atoms: O1_15  and  C11_16 
REMARK    7  A    between atoms: C11_16  and  C12_17 
ROOT
HETATM    1  C6  UNL     1      24.355   1.120  52.580  1.00  0.00     0.107 A 
HETATM    2  N2  UNL     1      25.175   0.333  53.313  1.00  0.00    -0.238 NA
HETATM    3  C7  UNL     1      26.501   0.414  53.158  1.00  0.00     0.234 A 
HETATM    4  N3  UNL     1      27.038   1.270  52.279  1.00  0.00    -0.241 NA
HETATM    5  C8  UNL     1      26.234   2.044  51.558  1.00  0.00     0.076 A 
HETATM    6  C9  UNL     1      26.745   2.926  50.655  1.00  0.00     0.072 A 
HETATM    7  C10 UNL     1      26.085   3.799  49.828  1.00  0.00     0.107 A 
HETATM    8  C15 UNL     1      24.689   3.738  49.967  1.00  0.00     0.136 A 
HETATM    9  C16 UNL     1      24.075   2.856  50.876  1.00  0.00     0.120 A 
HETATM   10  C17 UNL     1      24.851   2.022  51.659  1.00  0.00     0.061 A 
HETATM   11  O3  UNL     1      22.727   2.674  51.134  1.00  0.00    -0.345 OA
HETATM   12  C18 UNL     1      21.767   3.380  50.340  1.00  0.00     0.202 C 
HETATM   13  C19 UNL     1      22.423   3.947  49.101  1.00  0.00     0.202 C 
HETATM   14  O4  UNL     1      23.700   4.463  49.305  1.00  0.00    -0.344 OA
ENDROOT
BRANCH   7  15
HETATM   15  O1  UNL     1      26.351   4.698  48.927  1.00  0.00    -0.346 OA
BRANCH  15  16
HETATM   16  C11 UNL     1      26.803   5.925  48.740  1.00  0.00     0.208 C 
BRANCH  16  17
HETATM   17  C12 UNL     1      28.146   6.122  48.076  1.00  0.00     0.150 C 
HETATM   18  C13 UNL     1      28.677   7.462  48.360  1.00  0.00     0.041 C 
HETATM   19  C14 UNL     1      30.160   7.504  47.957  1.00  0.00     0.063 C 
HETATM   20  P2  UNL     1      30.541   5.682  48.039  1.00  0.00     0.012 P 
HETATM   21  O2  UNL     1      28.990   5.175  48.679  1.00  0.00    -0.359 OA
HETATM   22  H13 UNL     1      31.537   5.417  49.064  1.00  0.00     0.087 HD
ENDBRANCH  16  17
ENDBRANCH  15  16
ENDBRANCH   7  15
BRANCH   1  23
HETATM   23  P1  UNL     1      22.535   1.020  52.783  1.00  0.00     0.132 P 
BRANCH  23  24
HETATM   24  N1  UNL     1      21.923   0.046  53.938  1.00  0.00    -0.198 NA
BRANCH  24  25
HETATM   25  C1  UNL     1      20.685  -0.567  53.740  1.00  0.00     0.039 C 
HETATM   26  C2  UNL     1      19.616  -1.104  53.572  1.00  0.00    -0.046 C 
BRANCH  26  27
HETATM   27  C3  UNL     1      18.342  -1.750  53.397  1.00  0.00    -0.003 A 
HETATM   28  C4  UNL     1      17.578  -2.875  53.645  1.00  0.00    -0.005 A 
HETATM   29  C5  UNL     1      16.933  -1.806  52.888  1.00  0.00     0.076 A 
ENDBRANCH  26  27
ENDBRANCH  24  25
ENDBRANCH  23  24
ENDBRANCH   1  23
TORSDOF 7
ENDMDL
MODEL 8
REMARK VINA RESULT:      -7.2      5.769      8.997
REMARK  7 active torsions:
REMARK  status: ('A' for Active; 'I' for Inactive)
REMARK    1  A    between atoms: C1_1  and  N1_6 
REMARK    2  A    between atoms: C2_2  and  C3_3 
REMARK    3  A    between atoms: N1_6  and  P1_7 
REMARK    4  A    between atoms: P1_7  and  C6_8 
REMARK    5  A    between atoms: C10_14  and  O1_15 
REMARK    6  A    between atoms: O1_15  and  C11_16 
REMARK    7  A    between atoms: C11_16  and  C12_17 
ROOT
HETATM    1  C6  UNL     1      26.687   6.849  48.706  1.00  0.00     0.107 A 
HETATM    2  N2  UNL     1      27.921   6.879  48.153  1.00  0.00    -0.238 NA
HETATM    3  C7  UNL     1      28.667   5.769  48.112  1.00  0.00     0.234 A 
HETATM    4  N3  UNL     1      28.209   4.616  48.615  1.00  0.00    -0.241 NA
HETATM    5  C8  UNL     1      26.997   4.585  49.158  1.00  0.00     0.076 A 
HETATM    6  C9  UNL     1      26.500   3.428  49.679  1.00  0.00     0.072 A 
HETATM    7  C10 UNL     1      25.285   3.200  50.275  1.00  0.00     0.107 A 
HETATM    8  C15 UNL     1      24.477   4.347  50.333  1.00  0.00     0.136 A 
HETATM    9  C16 UNL     1      24.911   5.584  49.820  1.00  0.00     0.120 A 
HETATM   10  C17 UNL     1      26.162   5.688  49.240  1.00  0.00     0.061 A 
HETATM   11  O3  UNL     1      24.245   6.797  49.798  1.00  0.00    -0.345 OA
HETATM   12  C18 UNL     1      22.976   6.904  50.450  1.00  0.00     0.202 C 
HETATM   13  C19 UNL     1      22.753   5.721  51.367  1.00  0.00     0.202 C 
HETATM   14  O4  UNL     1      23.196   4.503  50.860  1.00  0.00    -0.344 OA
ENDROOT
BRANCH   7  15
HETATM   15  O1  UNL     1      24.621   2.223  50.819  1.00  0.00    -0.346 OA
BRANCH  15  16
HETATM   16  C11 UNL     1      24.606   1.370  51.827  1.00  0.00     0.208 C 
BRANCH  16  17
HETATM   17  C12 UNL     1      25.889   1.090  52.574  1.00  0.00     0.150 C 
HETATM   18  C13 UNL     1      25.619   0.820  53.992  1.00  0.00     0.041 C 
HETATM   19  C14 UNL     1      26.882   0.224  54.634  1.00  0.00     0.063 C 
HETATM   20  P2  UNL     1      27.704  -0.445  53.101  1.00  0.00     0.012 P 
HETATM   21  O2  UNL     1      26.399  -0.082  51.991  1.00  0.00    -0.359 OA
HETATM   22  H13 UNL     1      27.817  -1.893  53.176  1.00  0.00     0.087 HD
ENDBRANCH  16  17
ENDBRANCH  15  16
ENDBRANCH   7  15
BRANCH   1  23
HETATM   23  P1  UNL     1      25.654   8.363  48.769  1.00  0.00     0.132 P 
BRANCH  23  24
HETATM   24  N1  UNL     1      26.184   9.644  49.626  1.00  0.00    -0.198 NA
BRANCH  24  25
HETATM   25  C1  UNL     1      27.427  10.206  49.331  1.00  0.00     0.039 C 
HETATM   26  C2  UNL     1      28.506  10.691  49.084  1.00  0.00    -0.046 C 
BRANCH  26  27
HETATM   27  C3  UNL     1      29.801  11.249  48.800  1.00  0.00    -0.003 A 
HETATM   28  C4  UNL     1      30.991  11.105  48.110  1.00  0.00    -0.005 A 
HETATM   29  C5  UNL     1      30.868  12.292  48.952  1.00  0.00     0.076 A 
ENDBRANCH  26  27
ENDBRANCH  24  25
ENDBRANCH  23  24
ENDBRANCH   1  23
TORSDOF 7
ENDMDL
MODEL 9
REMARK VINA RESULT:      -7.2      3.220      6.434
REMARK  7 active torsions:
REMARK  status: ('A' for Active; 'I' for Inactive)
REMARK    1  A    between atoms: C1_1  and  N1_6 
REMARK    2  A    between atoms: C2_2  and  C3_3 
REMARK    3  A    between atoms: N1_6  and  P1_7 
REMARK    4  A    between atoms: P1_7  and  C6_8 
REMARK    5  A    between atoms: C10_14  and  O1_15 
REMARK    6  A    between atoms: O1_15  and  C11_16 
REMARK    7  A    between atoms: C11_16  and  C12_17 
ROOT
HETATM    1  C6  UNL     1      21.756   4.389  50.973  1.00  0.00     0.107 A 
HETATM    2  N2  UNL     1      20.428   4.378  51.230  1.00  0.00    -0.238 NA
HETATM    3  C7  UNL     1      19.899   3.421  52.001  1.00  0.00     0.234 A 
HETATM    4  N3  UNL     1      20.670   2.461  52.529  1.00  0.00    -0.241 NA
HETATM    5  C8  UNL     1      21.975   2.470  52.278  1.00  0.00     0.076 A 
HETATM    6  C9  UNL     1      22.788   1.510  52.798  1.00  0.00     0.072 A 
HETATM    7  C10 UNL     1      24.144   1.353  52.654  1.00  0.00     0.107 A 
HETATM    8  C15 UNL     1      24.730   2.343  51.850  1.00  0.00     0.136 A 
HETATM    9  C16 UNL     1      23.965   3.373  51.271  1.00  0.00     0.120 A 
HETATM   10  C17 UNL     1      22.600   3.425  51.491  1.00  0.00     0.061 A 
HETATM   11  O3  UNL     1      24.382   4.416  50.462  1.00  0.00    -0.345 OA
HETATM   12  C18 UNL     1      25.749   4.464  50.041  1.00  0.00     0.202 C 
HETATM   13  C19 UNL     1      26.423   3.131  50.288  1.00  0.00     0.202 C 
HETATM   14  O4  UNL     1      26.063   2.511  51.481  1.00  0.00    -0.344 OA
ENDROOT
BRANCH   7  15
HETATM   15  O1  UNL     1      25.091   0.551  53.043  1.00  0.00    -0.346 OA
BRANCH  15  16
HETATM   16  C11 UNL     1      25.591  -0.089  54.084  1.00  0.00     0.208 C 
BRANCH  16  17
HETATM   17  C12 UNL     1      27.067   0.035  54.386  1.00  0.00     0.150 C 
HETATM   18  C13 UNL     1      27.867  -0.665  53.372  1.00  0.00     0.041 C 
HETATM   19  C14 UNL     1      29.338  -0.243  53.522  1.00  0.00     0.063 C 
HETATM   20  P2  UNL     1      29.090   1.389  54.386  1.00  0.00     0.012 P 
HETATM   21  O2  UNL     1      27.341   1.409  54.294  1.00  0.00    -0.359 OA
HETATM   22  H13 UNL     1      29.579   2.480  53.559  1.00  0.00     0.087 HD
ENDBRANCH  16  17
ENDBRANCH  15  16
ENDBRANCH   7  15
BRANCH   1  23
HETATM   23  P1  UNL     1      22.494   5.695  49.919  1.00  0.00     0.132 P 
BRANCH  23  24
HETATM   24  N1  UNL     1      22.720   7.182  50.547  1.00  0.00    -0.198 NA
BRANCH  24  25
HETATM   25  C1  UNL     1      23.926   7.848  50.328  1.00  0.00     0.039 C 
HETATM   26  C2  UNL     1      24.970   8.423  50.129  1.00  0.00    -0.046 C 
BRANCH  26  27
HETATM   27  C3  UNL     1      26.203   9.119  49.873  1.00  0.00    -0.003 A 
HETATM   28  C4  UNL     1      26.847  10.079  49.115  1.00  0.00    -0.005 A 
HETATM   29  C5  UNL     1      27.652   9.405  50.129  1.00  0.00     0.076 A 
ENDBRANCH  26  27
ENDBRANCH  24  25
ENDBRANCH  23  24
ENDBRANCH   1  23
TORSDOF 7
ENDMDL
