MODEL 1
REMARK VINA RESULT:      -9.0      0.000      0.000
REMARK  5 active torsions:
REMARK  status: ('A' for Active; 'I' for Inactive)
REMARK    1  A    between atoms: C6_6  and  N1_7 
REMARK    2  A    between atoms: N1_7  and  C7_8 
REMARK    3  A    between atoms: C9_10  and  N2_11 
REMARK    4  A    between atoms: N2_11  and  C10_12 
REMARK    5  A    between atoms: C10_12  and  C11_13 
ROOT
HETATM    1  C7  UNL     1      25.849   2.825  51.770  1.00  0.00     0.121 A 
HETATM    2  C8  UNL     1      24.633   2.628  51.409  1.00  0.00     0.071 A 
HETATM    3  C9  UNL     1      24.078   3.134  50.349  1.00  0.00     0.140 A 
HETATM    4  N4  UNL     1      24.821   3.866  49.372  1.00  0.00    -0.226 NA
HETATM    5  C20 UNL     1      26.089   4.091  49.568  1.00  0.00     0.211 A 
HETATM    6  N5  UNL     1      26.600   3.550  50.806  1.00  0.00    -0.336 N 
HETATM    7  H22 UNL     1      27.619   3.700  50.966  1.00  0.00     0.168 HD
ENDROOT
BRANCH   3   8
HETATM    8  N2  UNL     1      22.655   2.942  50.192  1.00  0.00    -0.373 N 
HETATM    9  H8  UNL     1      21.960   3.430  50.767  1.00  0.00     0.161 HD
BRANCH   8  10
HETATM   10  C10 UNL     1      22.310   1.980  49.125  1.00  0.00     0.131 C 
BRANCH  10  11
HETATM   11  C11 UNL     1      21.240   1.042  49.493  1.00  0.00     0.048 C 
HETATM   12  C12 UNL     1      21.313   0.498  50.818  1.00  0.00     0.021 C 
HETATM   13  C13 UNL     1      21.447   0.013  52.032  1.00  0.00     0.101 C 
HETATM   14  O1  UNL     1      22.658  -0.060  52.647  1.00  0.00    -0.323 OA
HETATM   15  C15 UNL     1      20.427  -0.498  52.985  1.00  0.00     0.101 C 
HETATM   16  C14 UNL     1      22.378  -0.010  54.080  1.00  0.00     0.352 C 
HETATM   17  O2  UNL     1      21.231  -0.859  54.058  1.00  0.00    -0.323 OA
HETATM   18  C16 UNL     1      19.081  -0.645  53.127  1.00  0.00     0.018 C 
HETATM   19  C17 UNL     1      18.052  -0.180  52.081  1.00  0.00     0.076 C 
HETATM   20  C18 UNL     1      18.795   0.691  51.147  1.00  0.00     0.087 C 
HETATM   21  N3  UNL     1      18.942   0.963  49.907  1.00  0.00    -0.305 NA
HETATM   22  C19 UNL     1      19.925   1.980  49.498  1.00  0.00     0.158 C 
ENDBRANCH  10  11
ENDBRANCH   8  10
ENDBRANCH   3   8
BRANCH   1  23
HETATM   23  N1  UNL     1      26.333   2.413  53.016  1.00  0.00    -0.342 N 
HETATM   24  H7  UNL     1      26.040   2.938  53.877  1.00  0.00     0.167 HD
BRANCH  23  25
HETATM   25  C6  UNL     1      27.210   1.294  53.129  1.00  0.00     0.034 A 
HETATM   26  C5  UNL     1      28.450   1.556  53.647  1.00  0.00     0.029 A 
HETATM   27  C4  UNL     1      29.350   0.482  53.813  1.00  0.00     0.003 A 
HETATM   28  C3  UNL     1      28.943  -0.794  53.448  1.00  0.00     0.007 A 
HETATM   29  C2  UNL     1      27.663  -0.994  52.927  1.00  0.00    -0.060 A 
HETATM   30  C1  UNL     1      27.219  -2.339  52.538  1.00  0.00     0.048 C 
HETATM   31  C21 UNL     1      26.761   0.042  52.755  1.00  0.00     0.036 A 
ENDBRANCH  23  25
ENDBRANCH   1  23
TORSDOF 5
ENDMDL
MODEL 2
REMARK VINA RESULT:      -8.9      2.326      4.548
REMARK  5 active torsions:
REMARK  status: ('A' for Active; 'I' for Inactive)
REMARK    1  A    between atoms: C6_6  and  N1_7 
REMARK    2  A    between atoms: N1_7  and  C7_8 
REMARK    3  A    between atoms: C9_10  and  N2_11 
REMARK    4  A    between atoms: N2_11  and  C10_12 
REMARK    5  A    between atoms: C10_12  and  C11_13 
ROOT
HETATM    1  C7  UNL     1      24.828  -0.773  53.628  1.00  0.00     0.121 A 
HETATM    2  C8  UNL     1      23.595  -0.549  53.352  1.00  0.00     0.071 A 
HETATM    3  C9  UNL     1      22.595  -0.801  54.143  1.00  0.00     0.140 A 
HETATM    4  N4  UNL     1      22.778  -1.232  55.493  1.00  0.00    -0.226 NA
HETATM    5  C20 UNL     1      23.983  -1.440  55.942  1.00  0.00     0.211 A 
HETATM    6  N5  UNL     1      25.024  -1.201  54.968  1.00  0.00    -0.336 N 
HETATM    7  H22 UNL     1      25.996  -1.338  55.319  1.00  0.00     0.168 HD
ENDROOT
BRANCH   3   8
HETATM    8  N2  UNL     1      21.266  -0.641  53.600  1.00  0.00    -0.373 N 
HETATM    9  H8  UNL     1      20.742  -1.413  53.172  1.00  0.00     0.161 HD
BRANCH   8  10
HETATM   10  C10 UNL     1      20.745   0.735  53.728  1.00  0.00     0.131 C 
BRANCH  10  11
HETATM   11  C11 UNL     1      20.537   1.414  52.441  1.00  0.00     0.048 C 
HETATM   12  C12 UNL     1      21.716   1.941  51.814  1.00  0.00     0.021 C 
HETATM   13  C13 UNL     1      22.825   2.424  51.302  1.00  0.00     0.101 C 
HETATM   14  O1  UNL     1      23.894   2.747  52.078  1.00  0.00    -0.323 OA
HETATM   15  C15 UNL     1      23.200   2.688  49.888  1.00  0.00     0.101 C 
HETATM   16  C14 UNL     1      25.065   2.615  51.215  1.00  0.00     0.352 C 
HETATM   17  O2  UNL     1      24.482   3.197  50.050  1.00  0.00    -0.323 OA
HETATM   18  C16 UNL     1      22.735   2.538  48.618  1.00  0.00     0.018 C 
HETATM   19  C17 UNL     1      21.389   1.879  48.267  1.00  0.00     0.076 C 
HETATM   20  C18 UNL     1      20.941   1.203  49.503  1.00  0.00     0.087 C 
HETATM   21  N3  UNL     1      19.913   0.989  50.230  1.00  0.00    -0.305 NA
HETATM   22  C19 UNL     1      20.051   0.214  51.475  1.00  0.00     0.158 C 
ENDBRANCH  10  11
ENDBRANCH   8  10
ENDBRANCH   3   8
BRANCH   1  23
HETATM   23  N1  UNL     1      25.839  -0.662  52.668  1.00  0.00    -0.342 N 
HETATM   24  H7  UNL     1      25.589  -0.740  51.651  1.00  0.00     0.167 HD
BRANCH  23  25
HETATM   25  C6  UNL     1      27.194  -0.441  53.052  1.00  0.00     0.034 A 
HETATM   26  C5  UNL     1      28.015  -1.536  53.001  1.00  0.00     0.029 A 
HETATM   27  C4  UNL     1      29.375  -1.373  53.340  1.00  0.00     0.003 A 
HETATM   28  C3  UNL     1      29.827  -0.111  53.705  1.00  0.00     0.007 A 
HETATM   29  C2  UNL     1      28.937   0.964  53.734  1.00  0.00    -0.060 A 
HETATM   30  C1  UNL     1      29.401   2.304  54.118  1.00  0.00     0.048 C 
HETATM   31  C21 UNL     1      27.599   0.831  53.407  1.00  0.00     0.036 A 
ENDBRANCH  23  25
ENDBRANCH   1  23
TORSDOF 5
ENDMDL
MODEL 3
REMARK VINA RESULT:      -8.6      3.981      6.324
REMARK  5 active torsions:
REMARK  status: ('A' for Active; 'I' for Inactive)
REMARK    1  A    between atoms: C6_6  and  N1_7 
REMARK    2  A    between atoms: N1_7  and  C7_8 
REMARK    3  A    between atoms: C9_10  and  N2_11 
REMARK    4  A    between atoms: N2_11  and  C10_12 
REMARK    5  A    between atoms: C10_12  and  C11_13 
ROOT
HETATM    1  C7  UNL     1      27.755   6.854  48.418  1.00  0.00     0.121 A 
HETATM    2  C8  UNL     1      27.179   5.710  48.509  1.00  0.00     0.071 A 
HETATM    3  C9  UNL     1      26.236   5.414  49.353  1.00  0.00     0.140 A 
HETATM    4  N4  UNL     1      25.624   6.397  50.191  1.00  0.00    -0.226 NA
HETATM    5  C20 UNL     1      26.058   7.625  50.162  1.00  0.00     0.211 A 
HETATM    6  N5  UNL     1      27.155   7.840  49.246  1.00  0.00    -0.336 N 
HETATM    7  H22 UNL     1      27.498   8.824  49.192  1.00  0.00     0.168 HD
ENDROOT
BRANCH   3   8
HETATM    8  N2  UNL     1      25.825   4.032  49.427  1.00  0.00    -0.373 N 
HETATM    9  H8  UNL     1      25.099   3.633  48.821  1.00  0.00     0.161 HD
BRANCH   8  10
HETATM   10  C10 UNL     1      26.552   3.261  50.455  1.00  0.00     0.131 C 
BRANCH  10  11
HETATM   11  C11 UNL     1      25.872   2.024  50.865  1.00  0.00     0.048 C 
HETATM   12  C12 UNL     1      26.466   1.317  51.962  1.00  0.00     0.021 C 
HETATM   13  C13 UNL     1      27.071   0.700  52.953  1.00  0.00     0.101 C 
HETATM   14  O1  UNL     1      28.400   0.857  53.193  1.00  0.00    -0.323 OA
HETATM   15  C15 UNL     1      26.529  -0.210  53.996  1.00  0.00     0.101 C 
HETATM   16  C14 UNL     1      28.576   0.603  54.621  1.00  0.00     0.352 C 
HETATM   17  O2  UNL     1      27.684  -0.507  54.706  1.00  0.00    -0.323 OA
HETATM   18  C16 UNL     1      25.357  -0.733  54.449  1.00  0.00     0.018 C 
HETATM   19  C17 UNL     1      23.979  -0.402  53.847  1.00  0.00     0.076 C 
HETATM   20  C18 UNL     1      24.195   0.773  52.977  1.00  0.00     0.087 C 
HETATM   21  N3  UNL     1      23.888   1.267  51.840  1.00  0.00    -0.305 NA
HETATM   22  C19 UNL     1      24.457   2.562  51.432  1.00  0.00     0.158 C 
ENDBRANCH  10  11
ENDBRANCH   8  10
ENDBRANCH   3   8
BRANCH   1  23
HETATM   23  N1  UNL     1      28.891   7.056  47.627  1.00  0.00    -0.342 N 
HETATM   24  H7  UNL     1      28.782   7.491  46.678  1.00  0.00     0.167 HD
BRANCH  23  25
HETATM   25  C6  UNL     1      30.185   6.683  48.095  1.00  0.00     0.034 A 
HETATM   26  C5  UNL     1      30.787   7.564  48.953  1.00  0.00     0.029 A 
HETATM   27  C4  UNL     1      32.056   7.233  49.475  1.00  0.00     0.003 A 
HETATM   28  C3  UNL     1      32.640   6.030  49.100  1.00  0.00     0.007 A 
HETATM   29  C2  UNL     1      31.972   5.175  48.222  1.00  0.00    -0.060 A 
HETATM   30  C1  UNL     1      32.577   3.899  47.819  1.00  0.00     0.048 C 
HETATM   31  C21 UNL     1      30.726   5.476  47.697  1.00  0.00     0.036 A 
ENDBRANCH  23  25
ENDBRANCH   1  23
TORSDOF 5
ENDMDL
MODEL 4
REMARK VINA RESULT:      -8.4      5.880     10.203
REMARK  5 active torsions:
REMARK  status: ('A' for Active; 'I' for Inactive)
REMARK    1  A    between atoms: C6_6  and  N1_7 
REMARK    2  A    between atoms: N1_7  and  C7_8 
REMARK    3  A    between atoms: C9_10  and  N2_11 
REMARK    4  A    between atoms: N2_11  and  C10_12 
REMARK    5  A    between atoms: C10_12  and  C11_13 
ROOT
HETATM    1  C7  UNL     1      26.731   4.755  49.275  1.00  0.00     0.121 A 
HETATM    2  C8  UNL     1      27.739   5.179  48.603  1.00  0.00     0.071 A 
HETATM    3  C9  UNL     1      27.992   6.428  48.347  1.00  0.00     0.140 A 
HETATM    4  N4  UNL     1      27.237   7.495  48.922  1.00  0.00    -0.226 NA
HETATM    5  C20 UNL     1      26.217   7.220  49.686  1.00  0.00     0.211 A 
HETATM    6  N5  UNL     1      25.972   5.807  49.854  1.00  0.00    -0.336 N 
HETATM    7  H22 UNL     1      25.175   5.569  50.483  1.00  0.00     0.168 HD
ENDROOT
BRANCH   3   8
HETATM    8  N2  UNL     1      29.076   6.709  47.434  1.00  0.00    -0.373 N 
HETATM    9  H8  UNL     1      29.229   6.177  46.570  1.00  0.00     0.161 HD
BRANCH   8  10
HETATM   10  C10 UNL     1      29.930   7.832  47.870  1.00  0.00     0.131 C 
BRANCH  10  11
HETATM   11  C11 UNL     1      31.149   7.415  48.576  1.00  0.00     0.048 C 
HETATM   12  C12 UNL     1      31.661   6.120  48.229  1.00  0.00     0.021 C 
HETATM   13  C13 UNL     1      32.067   4.918  47.889  1.00  0.00     0.101 C 
HETATM   14  O1  UNL     1      31.211   3.982  47.397  1.00  0.00    -0.323 OA
HETATM   15  C15 UNL     1      33.427   4.318  47.907  1.00  0.00     0.101 C 
HETATM   16  C14 UNL     1      32.026   3.097  46.569  1.00  0.00     0.352 C 
HETATM   17  O2  UNL     1      33.153   3.038  47.443  1.00  0.00    -0.323 OA
HETATM   18  C16 UNL     1      34.727   4.634  48.157  1.00  0.00     0.018 C 
HETATM   19  C17 UNL     1      35.207   6.040  48.558  1.00  0.00     0.076 C 
HETATM   20  C18 UNL     1      34.070   6.944  48.286  1.00  0.00     0.087 C 
HETATM   21  N3  UNL     1      33.419   7.933  48.766  1.00  0.00    -0.305 NA
HETATM   22  C19 UNL     1      32.255   8.461  48.035  1.00  0.00     0.158 C 
ENDBRANCH  10  11
ENDBRANCH   8  10
ENDBRANCH   3   8
BRANCH   1  23
HETATM   23  N1  UNL     1      26.406   3.396  49.354  1.00  0.00    -0.342 N 
HETATM   24  H7  UNL     1      26.545   2.789  48.509  1.00  0.00     0.167 HD
BRANCH  23  25
HETATM   25  C6  UNL     1      25.898   2.833  50.560  1.00  0.00     0.034 A 
HETATM   26  C5  UNL     1      24.542   2.649  50.609  1.00  0.00     0.029 A 
HETATM   27  C4  UNL     1      23.983   2.065  51.766  1.00  0.00     0.003 A 
HETATM   28  C3  UNL     1      24.829   1.697  52.804  1.00  0.00     0.007 A 
HETATM   29  C2  UNL     1      26.204   1.910  52.690  1.00  0.00    -0.060 A 
HETATM   30  C1  UNL     1      27.110   1.525  53.780  1.00  0.00     0.048 C 
HETATM   31  C21 UNL     1      26.777   2.481  51.566  1.00  0.00     0.036 A 
ENDBRANCH  23  25
ENDBRANCH   1  23
TORSDOF 5
ENDMDL
MODEL 5
REMARK VINA RESULT:      -8.3      4.003      6.787
REMARK  5 active torsions:
REMARK  status: ('A' for Active; 'I' for Inactive)
REMARK    1  A    between atoms: C6_6  and  N1_7 
REMARK    2  A    between atoms: N1_7  and  C7_8 
REMARK    3  A    between atoms: C9_10  and  N2_11 
REMARK    4  A    between atoms: N2_11  and  C10_12 
REMARK    5  A    between atoms: C10_12  and  C11_13 
ROOT
HETATM    1  C7  UNL     1      27.224   6.514  48.120  1.00  0.00     0.121 A 
HETATM    2  C8  UNL     1      26.907   5.598  48.962  1.00  0.00     0.071 A 
HETATM    3  C9  UNL     1      25.808   5.569  49.655  1.00  0.00     0.140 A 
HETATM    4  N4  UNL     1      24.745   6.499  49.441  1.00  0.00    -0.226 NA
HETATM    5  C20 UNL     1      24.893   7.453  48.565  1.00  0.00     0.211 A 
HETATM    6  N5  UNL     1      26.175   7.445  47.898  1.00  0.00    -0.336 N 
HETATM    7  H22 UNL     1      26.301   8.187  47.176  1.00  0.00     0.168 HD
ENDROOT
BRANCH   3   8
HETATM    8  N2  UNL     1      25.696   4.553  50.676  1.00  0.00    -0.373 N 
HETATM    9  H8  UNL     1      25.097   4.658  51.502  1.00  0.00     0.161 HD
BRANCH   8  10
HETATM   10  C10 UNL     1      26.525   3.361  50.407  1.00  0.00     0.131 C 
BRANCH  10  11
HETATM   11  C11 UNL     1      25.893   2.094  50.803  1.00  0.00     0.048 C 
HETATM   12  C12 UNL     1      26.513   1.401  51.895  1.00  0.00     0.021 C 
HETATM   13  C13 UNL     1      27.139   0.799  52.881  1.00  0.00     0.101 C 
HETATM   14  O1  UNL     1      28.460   1.006  53.127  1.00  0.00    -0.323 OA
HETATM   15  C15 UNL     1      26.632  -0.141  53.915  1.00  0.00     0.101 C 
HETATM   16  C14 UNL     1      28.643   0.746  54.552  1.00  0.00     0.352 C 
HETATM   17  O2  UNL     1      27.796  -0.399  54.625  1.00  0.00    -0.323 OA
HETATM   18  C16 UNL     1      25.480  -0.714  54.360  1.00  0.00     0.018 C 
HETATM   19  C17 UNL     1      24.092  -0.432  53.758  1.00  0.00     0.076 C 
HETATM   20  C18 UNL     1      24.262   0.759  52.899  1.00  0.00     0.087 C 
HETATM   21  N3  UNL     1      23.939   1.251  51.766  1.00  0.00    -0.305 NA
HETATM   22  C19 UNL     1      24.458   2.571  51.371  1.00  0.00     0.158 C 
ENDBRANCH  10  11
ENDBRANCH   8  10
ENDBRANCH   3   8
BRANCH   1  23
HETATM   23  N1  UNL     1      28.500   6.594  47.551  1.00  0.00    -0.342 N 
HETATM   24  H7  UNL     1      28.647   6.237  46.575  1.00  0.00     0.167 HD
BRANCH  23  25
HETATM   25  C6  UNL     1      29.592   7.155  48.276  1.00  0.00     0.034 A 
HETATM   26  C5  UNL     1      30.569   6.275  48.659  1.00  0.00     0.029 A 
HETATM   27  C4  UNL     1      31.691   6.776  49.352  1.00  0.00     0.003 A 
HETATM   28  C3  UNL     1      31.762   8.138  49.614  1.00  0.00     0.007 A 
HETATM   29  C2  UNL     1      30.732   8.982  49.194  1.00  0.00    -0.060 A 
HETATM   30  C1  UNL     1      30.794  10.425  49.463  1.00  0.00     0.048 C 
HETATM   31  C21 UNL     1      29.621   8.515  48.513  1.00  0.00     0.036 A 
ENDBRANCH  23  25
ENDBRANCH   1  23
TORSDOF 5
ENDMDL
MODEL 6
REMARK VINA RESULT:      -8.2      1.463      2.018
REMARK  5 active torsions:
REMARK  status: ('A' for Active; 'I' for Inactive)
REMARK    1  A    between atoms: C6_6  and  N1_7 
REMARK    2  A    between atoms: N1_7  and  C7_8 
REMARK    3  A    between atoms: C9_10  and  N2_11 
REMARK    4  A    between atoms: N2_11  and  C10_12 
REMARK    5  A    between atoms: C10_12  and  C11_13 
ROOT
HETATM    1  C7  UNL     1      23.858   3.244  52.391  1.00  0.00     0.121 A 
HETATM    2  C8  UNL     1      23.187   2.942  51.339  1.00  0.00     0.071 A 
HETATM    3  C9  UNL     1      22.634   3.801  50.535  1.00  0.00     0.140 A 
HETATM    4  N4  UNL     1      22.842   5.208  50.659  1.00  0.00    -0.226 NA
HETATM    5  C20 UNL     1      23.562   5.666  51.645  1.00  0.00     0.211 A 
HETATM    6  N5  UNL     1      24.074   4.641  52.525  1.00  0.00    -0.336 N 
HETATM    7  H22 UNL     1      24.673   4.989  53.305  1.00  0.00     0.168 HD
ENDROOT
BRANCH   3   8
HETATM    8  N2  UNL     1      21.775   3.277  49.498  1.00  0.00    -0.373 N 
HETATM    9  H8  UNL     1      21.050   3.839  49.039  1.00  0.00     0.161 HD
BRANCH   8  10
HETATM   10  C10 UNL     1      22.050   1.864  49.171  1.00  0.00     0.131 C 
BRANCH  10  11
HETATM   11  C11 UNL     1      20.940   0.953  49.485  1.00  0.00     0.048 C 
HETATM   12  C12 UNL     1      20.921   0.428  50.821  1.00  0.00     0.021 C 
HETATM   13  C13 UNL     1      20.971  -0.040  52.047  1.00  0.00     0.101 C 
HETATM   14  O1  UNL     1      22.141  -0.128  52.736  1.00  0.00    -0.323 OA
HETATM   15  C15 UNL     1      19.885  -0.516  52.943  1.00  0.00     0.101 C 
HETATM   16  C14 UNL     1      21.775  -0.050  54.148  1.00  0.00     0.352 C 
HETATM   17  O2  UNL     1      20.615  -0.876  54.068  1.00  0.00    -0.323 OA
HETATM   18  C16 UNL     1      18.530  -0.633  53.005  1.00  0.00     0.018 C 
HETATM   19  C17 UNL     1      17.576  -0.165  51.892  1.00  0.00     0.076 C 
HETATM   20  C18 UNL     1      18.393   0.677  50.993  1.00  0.00     0.087 C 
HETATM   21  N3  UNL     1      18.620   0.926  49.760  1.00  0.00    -0.305 NA
HETATM   22  C19 UNL     1      19.647   1.918  49.397  1.00  0.00     0.158 C 
ENDBRANCH  10  11
ENDBRANCH   8  10
ENDBRANCH   3   8
BRANCH   1  23
HETATM   23  N1  UNL     1      24.263   2.279  53.319  1.00  0.00    -0.342 N 
HETATM   24  H7  UNL     1      23.623   2.035  54.115  1.00  0.00     0.167 HD
BRANCH  23  25
HETATM   25  C6  UNL     1      25.524   1.625  53.195  1.00  0.00     0.034 A 
HETATM   26  C5  UNL     1      25.506   0.404  52.576  1.00  0.00     0.029 A 
HETATM   27  C4  UNL     1      26.729  -0.277  52.396  1.00  0.00     0.003 A 
HETATM   28  C3  UNL     1      27.899   0.320  52.848  1.00  0.00     0.007 A 
HETATM   29  C2  UNL     1      27.848   1.569  53.470  1.00  0.00    -0.060 A 
HETATM   30  C1  UNL     1      29.078   2.211  53.952  1.00  0.00     0.048 C 
HETATM   31  C21 UNL     1      26.662   2.257  53.659  1.00  0.00     0.036 A 
ENDBRANCH  23  25
ENDBRANCH   1  23
TORSDOF 5
ENDMDL
MODEL 7
REMARK VINA RESULT:      -8.1      3.065      6.342
REMARK  5 active torsions:
REMARK  status: ('A' for Active; 'I' for Inactive)
REMARK    1  A    between atoms: C6_6  and  N1_7 
REMARK    2  A    between atoms: N1_7  and  C7_8 
REMARK    3  A    between atoms: C9_10  and  N2_11 
REMARK    4  A    between atoms: N2_11  and  C10_12 
REMARK    5  A    between atoms: C10_12  and  C11_13 
ROOT
HETATM    1  C7  UNL     1      23.904  -0.224  53.823  1.00  0.00     0.121 A 
HETATM    2  C8  UNL     1      23.809   0.463  52.743  1.00  0.00     0.071 A 
HETATM    3  C9  UNL     1      22.695   0.754  52.139  1.00  0.00     0.140 A 
HETATM    4  N4  UNL     1      21.418   0.455  52.705  1.00  0.00    -0.226 NA
HETATM    5  C20 UNL     1      21.353  -0.184  53.839  1.00  0.00     0.211 A 
HETATM    6  N5  UNL     1      22.641  -0.526  54.397  1.00  0.00    -0.336 N 
HETATM    7  H22 UNL     1      22.607  -1.016  55.317  1.00  0.00     0.168 HD
ENDROOT
BRANCH   3   8
HETATM    8  N2  UNL     1      22.791   1.390  50.846  1.00  0.00    -0.373 N 
HETATM    9  H8  UNL     1      22.525   0.921  49.973  1.00  0.00     0.161 HD
BRANCH   8  10
HETATM   10  C10 UNL     1      23.306   2.773  50.912  1.00  0.00     0.131 C 
BRANCH  10  11
HETATM   11  C11 UNL     1      24.301   3.088  49.877  1.00  0.00     0.048 C 
HETATM   12  C12 UNL     1      24.401   4.470  49.506  1.00  0.00     0.021 C 
HETATM   13  C13 UNL     1      24.429   5.745  49.189  1.00  0.00     0.101 C 
HETATM   14  O1  UNL     1      23.348   6.552  49.362  1.00  0.00    -0.323 OA
HETATM   15  C15 UNL     1      25.533   6.581  48.649  1.00  0.00     0.101 C 
HETATM   16  C14 UNL     1      23.885   7.899  49.537  1.00  0.00     0.352 C 
HETATM   17  O2  UNL     1      24.896   7.810  48.535  1.00  0.00    -0.323 OA
HETATM   18  C16 UNL     1      26.854   6.522  48.327  1.00  0.00     0.018 C 
HETATM   19  C17 UNL     1      27.728   5.269  48.515  1.00  0.00     0.076 C 
HETATM   20  C18 UNL     1      26.942   4.356  49.371  1.00  0.00     0.087 C 
HETATM   21  N3  UNL     1      26.609   3.131  49.516  1.00  0.00    -0.305 NA
HETATM   22  C19 UNL     1      25.701   2.750  50.610  1.00  0.00     0.158 C 
ENDBRANCH  10  11
ENDBRANCH   8  10
ENDBRANCH   3   8
BRANCH   1  23
HETATM   23  N1  UNL     1      25.135  -0.667  54.319  1.00  0.00    -0.342 N 
HETATM   24  H7  UNL     1      25.164  -1.527  54.920  1.00  0.00     0.167 HD
BRANCH  23  25
HETATM   25  C6  UNL     1      26.341   0.030  54.016  1.00  0.00     0.034 A 
HETATM   26  C5  UNL     1      26.260   1.397  54.024  1.00  0.00     0.029 A 
HETATM   27  C4  UNL     1      27.430   2.142  53.763  1.00  0.00     0.003 A 
HETATM   28  C3  UNL     1      28.614   1.461  53.512  1.00  0.00     0.007 A 
HETATM   29  C2  UNL     1      28.629   0.065  53.520  1.00  0.00    -0.060 A 
HETATM   30  C1  UNL     1      29.875  -0.668  53.257  1.00  0.00     0.048 C 
HETATM   31  C21 UNL     1      27.496  -0.688  53.773  1.00  0.00     0.036 A 
ENDBRANCH  23  25
ENDBRANCH   1  23
TORSDOF 5
ENDMDL
MODEL 8
REMARK VINA RESULT:      -8.0      4.868      6.902
REMARK  5 active torsions:
REMARK  status: ('A' for Active; 'I' for Inactive)
REMARK    1  A    between atoms: C6_6  and  N1_7 
REMARK    2  A    between atoms: N1_7  and  C7_8 
REMARK    3  A    between atoms: C9_10  and  N2_11 
REMARK    4  A    between atoms: N2_11  and  C10_12 
REMARK    5  A    between atoms: C10_12  and  C11_13 
ROOT
HETATM    1  C7  UNL     1      30.102   6.730  47.815  1.00  0.00     0.121 A 
HETATM    2  C8  UNL     1      29.402   5.725  48.199  1.00  0.00     0.071 A 
HETATM    3  C9  UNL     1      28.116   5.739  48.385  1.00  0.00     0.140 A 
HETATM    4  N4  UNL     1      27.305   6.862  48.035  1.00  0.00    -0.226 NA
HETATM    5  C20 UNL     1      27.869   7.940  47.567  1.00  0.00     0.211 A 
HETATM    6  N5  UNL     1      29.307   7.853  47.463  1.00  0.00    -0.336 N 
HETATM    7  H22 UNL     1      29.772   8.698  47.066  1.00  0.00     0.168 HD
ENDROOT
BRANCH   3   8
HETATM    8  N2  UNL     1      27.521   4.565  48.981  1.00  0.00    -0.373 N 
HETATM    9  H8  UNL     1      28.042   3.696  49.140  1.00  0.00     0.161 HD
BRANCH   8  10
HETATM   10  C10 UNL     1      26.098   4.747  49.334  1.00  0.00     0.131 C 
BRANCH  10  11
HETATM   11  C11 UNL     1      25.421   3.505  49.734  1.00  0.00     0.048 C 
HETATM   12  C12 UNL     1      26.002   2.804  50.843  1.00  0.00     0.021 C 
HETATM   13  C13 UNL     1      26.594   2.194  51.844  1.00  0.00     0.101 C 
HETATM   14  O1  UNL     1      27.917   2.362  52.108  1.00  0.00    -0.323 OA
HETATM   15  C15 UNL     1      26.041   1.281  52.880  1.00  0.00     0.101 C 
HETATM   16  C14 UNL     1      28.071   2.112  53.539  1.00  0.00     0.352 C 
HETATM   17  O2  UNL     1      27.186   0.994  53.611  1.00  0.00    -0.323 OA
HETATM   18  C16 UNL     1      24.866   0.750  53.313  1.00  0.00     0.018 C 
HETATM   19  C17 UNL     1      23.496   1.069  52.687  1.00  0.00     0.076 C 
HETATM   20  C18 UNL     1      23.717   2.245  51.819  1.00  0.00     0.087 C 
HETATM   21  N3  UNL     1      23.426   2.734  50.675  1.00  0.00    -0.305 NA
HETATM   22  C19 UNL     1      23.993   4.033  50.275  1.00  0.00     0.158 C 
ENDBRANCH  10  11
ENDBRANCH   8  10
ENDBRANCH   3   8
BRANCH   1  23
HETATM   23  N1  UNL     1      31.501   6.709  47.819  1.00  0.00    -0.342 N 
HETATM   24  H7  UNL     1      32.021   7.420  48.390  1.00  0.00     0.167 HD
BRANCH  23  25
HETATM   25  C6  UNL     1      32.221   5.738  47.063  1.00  0.00     0.034 A 
HETATM   26  C5  UNL     1      32.931   6.218  45.995  1.00  0.00     0.029 A 
HETATM   27  C4  UNL     1      33.690   5.308  45.228  1.00  0.00     0.003 A 
HETATM   28  C3  UNL     1      33.690   3.967  45.589  1.00  0.00     0.007 A 
HETATM   29  C2  UNL     1      32.945   3.543  46.691  1.00  0.00    -0.060 A 
HETATM   30  C1  UNL     1      32.937   2.127  47.084  1.00  0.00     0.048 C 
HETATM   31  C21 UNL     1      32.193   4.415  47.459  1.00  0.00     0.036 A 
ENDBRANCH  23  25
ENDBRANCH   1  23
TORSDOF 5
ENDMDL
MODEL 9
REMARK VINA RESULT:      -8.0      3.258      6.109
REMARK  5 active torsions:
REMARK  status: ('A' for Active; 'I' for Inactive)
REMARK    1  A    between atoms: C6_6  and  N1_7 
REMARK    2  A    between atoms: N1_7  and  C7_8 
REMARK    3  A    between atoms: C9_10  and  N2_11 
REMARK    4  A    between atoms: N2_11  and  C10_12 
REMARK    5  A    between atoms: C10_12  and  C11_13 
ROOT
HETATM    1  C7  UNL     1      24.797   2.291  52.969  1.00  0.00     0.121 A 
HETATM    2  C8  UNL     1      24.156   3.392  53.131  1.00  0.00     0.071 A 
HETATM    3  C9  UNL     1      23.227   3.838  52.340  1.00  0.00     0.140 A 
HETATM    4  N4  UNL     1      22.706   3.063  51.260  1.00  0.00    -0.226 NA
HETATM    5  C20 UNL     1      23.213   1.889  51.009  1.00  0.00     0.211 A 
HETATM    6  N5  UNL     1      24.287   1.510  51.897  1.00  0.00    -0.336 N 
HETATM    7  H22 UNL     1      24.688   0.563  51.727  1.00  0.00     0.168 HD
ENDROOT
BRANCH   3   8
HETATM    8  N2  UNL     1      22.735   5.174  52.586  1.00  0.00    -0.373 N 
HETATM    9  H8  UNL     1      22.574   5.545  53.529  1.00  0.00     0.161 HD
BRANCH   8  10
HETATM   10  C10 UNL     1      22.491   5.943  51.349  1.00  0.00     0.131 C 
BRANCH  10  11
HETATM   11  C11 UNL     1      23.642   6.745  50.910  1.00  0.00     0.048 C 
HETATM   12  C12 UNL     1      24.757   6.007  50.390  1.00  0.00     0.021 C 
HETATM   13  C13 UNL     1      25.757   5.276  49.950  1.00  0.00     0.101 C 
HETATM   14  O1  UNL     1      25.937   3.989  50.350  1.00  0.00    -0.323 OA
HETATM   15  C15 UNL     1      26.829   5.597  48.971  1.00  0.00     0.101 C 
HETATM   16  C14 UNL     1      26.654   3.332  49.260  1.00  0.00     0.352 C 
HETATM   17  O2  UNL     1      27.546   4.408  48.973  1.00  0.00    -0.323 OA
HETATM   18  C16 UNL     1      27.236   6.580  48.122  1.00  0.00     0.018 C 
HETATM   19  C17 UNL     1      26.479   7.904  47.914  1.00  0.00     0.076 C 
HETATM   20  C18 UNL     1      25.153   7.708  48.537  1.00  0.00     0.087 C 
HETATM   21  N3  UNL     1      24.278   8.283  49.270  1.00  0.00    -0.305 NA
HETATM   22  C19 UNL     1      23.053   7.557  49.643  1.00  0.00     0.158 C 
ENDBRANCH  10  11
ENDBRANCH   8  10
ENDBRANCH   3   8
BRANCH   1  23
HETATM   23  N1  UNL     1      25.915   1.959  53.741  1.00  0.00    -0.342 N 
HETATM   24  H7  UNL     1      26.220   2.611  54.505  1.00  0.00     0.167 HD
BRANCH  23  25
HETATM   25  C6  UNL     1      26.635   0.751  53.506  1.00  0.00     0.034 A 
HETATM   26  C5  UNL     1      25.888  -0.320  53.097  1.00  0.00     0.029 A 
HETATM   27  C4  UNL     1      26.550  -1.535  52.817  1.00  0.00     0.003 A 
HETATM   28  C3  UNL     1      27.930  -1.593  52.964  1.00  0.00     0.007 A 
HETATM   29  C2  UNL     1      28.633  -0.463  53.383  1.00  0.00    -0.060 A 
HETATM   30  C1  UNL     1      30.093  -0.510  53.542  1.00  0.00     0.048 C 
HETATM   31  C21 UNL     1      28.008   0.740  53.663  1.00  0.00     0.036 A 
ENDBRANCH  23  25
ENDBRANCH   1  23
TORSDOF 5
ENDMDL
