MODEL 1
REMARK VINA RESULT:      -7.9      0.000      0.000
REMARK  6 active torsions:
REMARK  status: ('A' for Active; 'I' for Inactive)
REMARK    1  A    between atoms: C1_2  and  C2_3 
REMARK    2  A    between atoms: C1_2  and  C7_10 
REMARK    3  A    between atoms: C2_3  and  N1_4 
REMARK    4  A    between atoms: C10_13  and  O3_14 
REMARK    5  A    between atoms: O3_14  and  C11_15 
REMARK    6  A    between atoms: C11_15  and  C12_16 
ROOT
HETATM    1  C7  UNL     1      23.618  -0.631  54.316  1.00  0.00     0.011 A 
HETATM    2  C8  UNL     1      23.371   0.185  53.250  1.00  0.00     0.018 A 
HETATM    3  C9  UNL     1      22.079   0.396  52.850  1.00  0.00     0.038 A 
HETATM    4  C10 UNL     1      20.972  -0.153  53.435  1.00  0.00     0.069 A 
HETATM    5  C18 UNL     1      21.255  -0.982  54.521  1.00  0.00     0.038 A 
HETATM    6  C19 UNL     1      22.549  -1.230  54.971  1.00  0.00     0.018 A 
ENDROOT
BRANCH   1   7
HETATM    7  C1  UNL     1      24.990  -0.864  54.758  1.00  0.00     0.176 C 
HETATM    8  O1  UNL     1      25.257  -1.356  55.892  1.00  0.00    -0.291 OA
BRANCH   7   9
HETATM    9  C2  UNL     1      26.123  -0.529  53.880  1.00  0.00     0.200 C 
BRANCH   9  10
HETATM   10  N1  UNL     1      26.936   0.539  54.379  1.00  0.00    -0.401 N 
HETATM   11  C3  UNL     1      26.754   1.788  53.744  1.00  0.00     0.143 C 
HETATM   12  C4  UNL     1      27.979   2.558  53.391  1.00  0.00     0.187 C 
HETATM   13  O2  UNL     1      29.034   2.389  54.284  1.00  0.00    -0.388 OA
HETATM   14  C5  UNL     1      29.364   1.046  54.443  1.00  0.00     0.187 C 
HETATM   15  C6  UNL     1      28.217   0.200  54.864  1.00  0.00     0.143 C 
ENDBRANCH   9  10
ENDBRANCH   7   9
ENDBRANCH   1   7
BRANCH   4  16
HETATM   16  O3  UNL     1      19.645  -0.129  53.267  1.00  0.00    -0.347 OA
BRANCH  16  17
HETATM   17  C11 UNL     1      18.671  -1.085  53.324  1.00  0.00     0.214 C 
BRANCH  17  18
HETATM   18  C12 UNL     1      17.658  -0.907  52.270  1.00  0.00    -0.034 A 
HETATM   19  C13 UNL     1      18.125  -0.211  51.145  1.00  0.00     0.009 A 
HETATM   20  C14 UNL     1      17.322   0.033  50.056  1.00  0.00     0.001 A 
HETATM   21  C15 UNL     1      16.010  -0.391  50.008  1.00  0.00     0.000 A 
HETATM   22  C16 UNL     1      15.519  -1.085  51.112  1.00  0.00     0.001 A 
HETATM   23  C17 UNL     1      16.351  -1.308  52.176  1.00  0.00     0.009 A 
ENDBRANCH  17  18
ENDBRANCH  16  17
ENDBRANCH   4  16
TORSDOF 6
ENDMDL
MODEL 2
REMARK VINA RESULT:      -7.5      1.702      2.625
REMARK  6 active torsions:
REMARK  status: ('A' for Active; 'I' for Inactive)
REMARK    1  A    between atoms: C1_2  and  C2_3 
REMARK    2  A    between atoms: C1_2  and  C7_10 
REMARK    3  A    between atoms: C2_3  and  N1_4 
REMARK    4  A    between atoms: C10_13  and  O3_14 
REMARK    5  A    between atoms: O3_14  and  C11_15 
REMARK    6  A    between atoms: C11_15  and  C12_16 
ROOT
HETATM    1  C7  UNL     1      23.505   0.641  53.165  1.00  0.00     0.011 A 
HETATM    2  C8  UNL     1      23.495  -0.496  53.921  1.00  0.00     0.018 A 
HETATM    3  C9  UNL     1      22.314  -1.157  54.126  1.00  0.00     0.038 A 
HETATM    4  C10 UNL     1      21.098  -0.773  53.631  1.00  0.00     0.069 A 
HETATM    5  C18 UNL     1      21.139   0.391  52.863  1.00  0.00     0.038 A 
HETATM    6  C19 UNL     1      22.312   1.101  52.622  1.00  0.00     0.018 A 
ENDROOT
BRANCH   1   7
HETATM    7  C1  UNL     1      24.756   1.357  52.935  1.00  0.00     0.176 C 
HETATM    8  O1  UNL     1      25.011   2.463  53.493  1.00  0.00    -0.291 OA
BRANCH   7   9
HETATM    9  C2  UNL     1      25.777   0.802  52.029  1.00  0.00     0.200 C 
BRANCH   9  10
HETATM   10  N1  UNL     1      27.084   0.740  52.611  1.00  0.00    -0.401 N 
HETATM   11  C3  UNL     1      27.236  -0.194  53.662  1.00  0.00     0.143 C 
HETATM   12  C4  UNL     1      27.974   0.260  54.873  1.00  0.00     0.187 C 
HETATM   13  O2  UNL     1      28.994   1.170  54.610  1.00  0.00    -0.388 OA
HETATM   14  C5  UNL     1      28.526   2.281  53.915  1.00  0.00     0.187 C 
HETATM   15  C6  UNL     1      27.830   1.937  52.648  1.00  0.00     0.143 C 
ENDBRANCH   9  10
ENDBRANCH   7   9
ENDBRANCH   1   7
BRANCH   4  16
HETATM   16  O3  UNL     1      19.832  -1.202  53.666  1.00  0.00    -0.347 OA
BRANCH  16  17
HETATM   17  C11 UNL     1      18.652  -0.691  53.207  1.00  0.00     0.214 C 
BRANCH  17  18
HETATM   18  C12 UNL     1      17.616  -1.729  53.066  1.00  0.00    -0.034 A 
HETATM   19  C13 UNL     1      17.932  -2.936  53.707  1.00  0.00     0.009 A 
HETATM   20  C14 UNL     1      17.074  -4.012  53.693  1.00  0.00     0.001 A 
HETATM   21  C15 UNL     1      15.856  -3.964  53.049  1.00  0.00     0.000 A 
HETATM   22  C16 UNL     1      15.516  -2.777  52.404  1.00  0.00     0.001 A 
HETATM   23  C17 UNL     1      16.397  -1.729  52.440  1.00  0.00     0.009 A 
ENDBRANCH  17  18
ENDBRANCH  16  17
ENDBRANCH   4  16
TORSDOF 6
ENDMDL
MODEL 3
REMARK VINA RESULT:      -7.3      5.223      7.356
REMARK  6 active torsions:
REMARK  status: ('A' for Active; 'I' for Inactive)
REMARK    1  A    between atoms: C1_2  and  C2_3 
REMARK    2  A    between atoms: C1_2  and  C7_10 
REMARK    3  A    between atoms: C2_3  and  N1_4 
REMARK    4  A    between atoms: C10_13  and  O3_14 
REMARK    5  A    between atoms: O3_14  and  C11_15 
REMARK    6  A    between atoms: C11_15  and  C12_16 
ROOT
HETATM    1  C7  UNL     1      26.271   4.187  49.450  1.00  0.00     0.011 A 
HETATM    2  C8  UNL     1      24.930   4.341  49.247  1.00  0.00     0.018 A 
HETATM    3  C9  UNL     1      24.051   3.535  49.919  1.00  0.00     0.038 A 
HETATM    4  C10 UNL     1      24.399   2.555  50.806  1.00  0.00     0.069 A 
HETATM    5  C18 UNL     1      25.774   2.420  50.994  1.00  0.00     0.038 A 
HETATM    6  C19 UNL     1      26.712   3.213  50.338  1.00  0.00     0.018 A 
ENDROOT
BRANCH   1   7
HETATM    7  C1  UNL     1      27.222   5.039  48.743  1.00  0.00     0.176 C 
HETATM    8  O1  UNL     1      28.411   4.673  48.512  1.00  0.00    -0.291 OA
BRANCH   7   9
HETATM    9  C2  UNL     1      26.819   6.374  48.269  1.00  0.00     0.200 C 
BRANCH   9  10
HETATM   10  N1  UNL     1      27.127   7.424  49.192  1.00  0.00    -0.401 N 
HETATM   11  C3  UNL     1      26.035   7.903  49.952  1.00  0.00     0.143 C 
HETATM   12  C4  UNL     1      25.901   9.380  50.094  1.00  0.00     0.187 C 
HETATM   13  O2  UNL     1      27.115  10.060  50.132  1.00  0.00    -0.388 OA
HETATM   14  C5  UNL     1      27.900   9.775  49.019  1.00  0.00     0.187 C 
HETATM   15  C6  UNL     1      28.151   8.323  48.827  1.00  0.00     0.143 C 
ENDBRANCH   9  10
ENDBRANCH   7   9
ENDBRANCH   1   7
BRANCH   4  16
HETATM   16  O3  UNL     1      23.785   1.651  51.578  1.00  0.00    -0.347 OA
BRANCH  16  17
HETATM   17  C11 UNL     1      24.211   0.819  52.573  1.00  0.00     0.214 C 
BRANCH  17  18
HETATM   18  C12 UNL     1      23.095   0.084  53.196  1.00  0.00    -0.034 A 
HETATM   19  C13 UNL     1      21.852   0.323  52.593  1.00  0.00     0.009 A 
HETATM   20  C14 UNL     1      20.701  -0.290  53.032  1.00  0.00     0.001 A 
HETATM   21  C15 UNL     1      20.705  -1.174  54.090  1.00  0.00     0.000 A 
HETATM   22  C16 UNL     1      21.928  -1.431  54.709  1.00  0.00     0.001 A 
HETATM   23  C17 UNL     1      23.050  -0.801  54.242  1.00  0.00     0.009 A 
ENDBRANCH  17  18
ENDBRANCH  16  17
ENDBRANCH   4  16
TORSDOF 6
ENDMDL
MODEL 4
REMARK VINA RESULT:      -7.3      6.189      9.493
REMARK  6 active torsions:
REMARK  status: ('A' for Active; 'I' for Inactive)
REMARK    1  A    between atoms: C1_2  and  C2_3 
REMARK    2  A    between atoms: C1_2  and  C7_10 
REMARK    3  A    between atoms: C2_3  and  N1_4 
REMARK    4  A    between atoms: C10_13  and  O3_14 
REMARK    5  A    between atoms: O3_14  and  C11_15 
REMARK    6  A    between atoms: C11_15  and  C12_16 
ROOT
HETATM    1  C7  UNL     1      26.751   5.853  48.726  1.00  0.00     0.011 A 
HETATM    2  C8  UNL     1      25.596   6.019  49.433  1.00  0.00     0.018 A 
HETATM    3  C9  UNL     1      25.092   4.970  50.155  1.00  0.00     0.038 A 
HETATM    4  C10 UNL     1      25.656   3.727  50.237  1.00  0.00     0.069 A 
HETATM    5  C18 UNL     1      26.835   3.587  49.505  1.00  0.00     0.038 A 
HETATM    6  C19 UNL     1      27.391   4.620  48.756  1.00  0.00     0.018 A 
ENDROOT
BRANCH   1   7
HETATM    7  C1  UNL     1      27.303   6.962  47.953  1.00  0.00     0.176 C 
HETATM    8  O1  UNL     1      26.603   7.960  47.615  1.00  0.00    -0.291 OA
BRANCH   7   9
HETATM    9  C2  UNL     1      28.715   6.951  47.536  1.00  0.00     0.200 C 
BRANCH   9  10
HETATM   10  N1  UNL     1      29.628   7.231  48.603  1.00  0.00    -0.401 N 
HETATM   11  C3  UNL     1      29.755   8.595  48.950  1.00  0.00     0.143 C 
HETATM   12  C4  UNL     1      31.133   9.115  49.174  1.00  0.00     0.187 C 
HETATM   13  O2  UNL     1      32.011   8.182  49.720  1.00  0.00    -0.388 OA
HETATM   14  C5  UNL     1      32.076   7.023  48.951  1.00  0.00     0.187 C 
HETATM   15  C6  UNL     1      30.752   6.387  48.727  1.00  0.00     0.143 C 
ENDBRANCH   9  10
ENDBRANCH   7   9
ENDBRANCH   1   7
BRANCH   4  16
HETATM   16  O3  UNL     1      25.399   2.559  50.838  1.00  0.00    -0.347 OA
BRANCH  16  17
HETATM   17  C11 UNL     1      25.303   2.174  52.144  1.00  0.00     0.214 C 
BRANCH  17  18
HETATM   18  C12 UNL     1      26.410   1.287  52.543  1.00  0.00    -0.034 A 
HETATM   19  C13 UNL     1      27.547   1.969  53.002  1.00  0.00     0.009 A 
HETATM   20  C14 UNL     1      28.671   1.302  53.431  1.00  0.00     0.001 A 
HETATM   21  C15 UNL     1      28.744  -0.075  53.434  1.00  0.00     0.000 A 
HETATM   22  C16 UNL     1      27.629  -0.779  52.983  1.00  0.00     0.001 A 
HETATM   23  C17 UNL     1      26.530  -0.078  52.564  1.00  0.00     0.009 A 
ENDBRANCH  17  18
ENDBRANCH  16  17
ENDBRANCH   4  16
TORSDOF 6
ENDMDL
MODEL 5
REMARK VINA RESULT:      -7.2      1.956      2.576
REMARK  6 active torsions:
REMARK  status: ('A' for Active; 'I' for Inactive)
REMARK    1  A    between atoms: C1_2  and  C2_3 
REMARK    2  A    between atoms: C1_2  and  C7_10 
REMARK    3  A    between atoms: C2_3  and  N1_4 
REMARK    4  A    between atoms: C10_13  and  O3_14 
REMARK    5  A    between atoms: O3_14  and  C11_15 
REMARK    6  A    between atoms: C11_15  and  C12_16 
ROOT
HETATM    1  C7  UNL     1      23.647  -0.436  53.971  1.00  0.00     0.011 A 
HETATM    2  C8  UNL     1      23.536   0.630  53.125  1.00  0.00     0.018 A 
HETATM    3  C9  UNL     1      22.310   0.955  52.609  1.00  0.00     0.038 A 
HETATM    4  C10 UNL     1      21.144   0.290  52.867  1.00  0.00     0.069 A 
HETATM    5  C18 UNL     1      21.287  -0.794  53.734  1.00  0.00     0.038 A 
HETATM    6  C19 UNL     1      22.509  -1.167  54.288  1.00  0.00     0.018 A 
ENDROOT
BRANCH   1   7
HETATM    7  C1  UNL     1      24.946  -0.794  54.532  1.00  0.00     0.176 C 
HETATM    8  O1  UNL     1      25.061  -1.333  55.670  1.00  0.00    -0.291 OA
BRANCH   7   9
HETATM    9  C2  UNL     1      26.182  -0.534  53.776  1.00  0.00     0.200 C 
BRANCH   9  10
HETATM   10  N1  UNL     1      26.975   0.525  54.325  1.00  0.00    -0.401 N 
HETATM   11  C3  UNL     1      26.845   1.776  53.680  1.00  0.00     0.143 C 
HETATM   12  C4  UNL     1      28.098   2.533  53.403  1.00  0.00     0.187 C 
HETATM   13  O2  UNL     1      29.094   2.352  54.359  1.00  0.00    -0.388 OA
HETATM   14  C5  UNL     1      29.400   1.006  54.537  1.00  0.00     0.187 C 
HETATM   15  C6  UNL     1      28.220   0.173  54.887  1.00  0.00     0.143 C 
ENDBRANCH   9  10
ENDBRANCH   7   9
ENDBRANCH   1   7
BRANCH   4  16
HETATM   16  O3  UNL     1      19.855   0.376  52.520  1.00  0.00    -0.347 OA
BRANCH  16  17
HETATM   17  C11 UNL     1      19.188   0.239  51.336  1.00  0.00     0.214 C 
BRANCH  17  18
HETATM   18  C12 UNL     1      19.571   1.275  50.362  1.00  0.00    -0.034 A 
HETATM   19  C13 UNL     1      20.592   0.880  49.484  1.00  0.00     0.009 A 
HETATM   20  C14 UNL     1      21.065   1.714  48.498  1.00  0.00     0.001 A 
HETATM   21  C15 UNL     1      20.564   2.986  48.317  1.00  0.00     0.000 A 
HETATM   22  C16 UNL     1      19.549   3.405  49.174  1.00  0.00     0.001 A 
HETATM   23  C17 UNL     1      19.105   2.546  50.143  1.00  0.00     0.009 A 
ENDBRANCH  17  18
ENDBRANCH  16  17
ENDBRANCH   4  16
TORSDOF 6
ENDMDL
MODEL 6
REMARK VINA RESULT:      -7.2      6.292      9.473
REMARK  6 active torsions:
REMARK  status: ('A' for Active; 'I' for Inactive)
REMARK    1  A    between atoms: C1_2  and  C2_3 
REMARK    2  A    between atoms: C1_2  and  C7_10 
REMARK    3  A    between atoms: C2_3  and  N1_4 
REMARK    4  A    between atoms: C10_13  and  O3_14 
REMARK    5  A    between atoms: O3_14  and  C11_15 
REMARK    6  A    between atoms: C11_15  and  C12_16 
ROOT
HETATM    1  C7  UNL     1      27.701   6.297  48.268  1.00  0.00     0.011 A 
HETATM    2  C8  UNL     1      26.432   6.737  48.509  1.00  0.00     0.018 A 
HETATM    3  C9  UNL     1      25.511   5.877  49.044  1.00  0.00     0.038 A 
HETATM    4  C10 UNL     1      25.748   4.570  49.370  1.00  0.00     0.069 A 
HETATM    5  C18 UNL     1      27.053   4.148  49.114  1.00  0.00     0.038 A 
HETATM    6  C19 UNL     1      28.028   4.981  48.573  1.00  0.00     0.018 A 
ENDROOT
BRANCH   1   7
HETATM    7  C1  UNL     1      28.696   7.202  47.701  1.00  0.00     0.176 C 
HETATM    8  O1  UNL     1      28.648   7.584  46.496  1.00  0.00    -0.291 OA
BRANCH   7   9
HETATM    9  C2  UNL     1      29.804   7.706  48.529  1.00  0.00     0.200 C 
BRANCH   9  10
HETATM   10  N1  UNL     1      31.094   7.278  48.079  1.00  0.00    -0.401 N 
HETATM   11  C3  UNL     1      31.523   6.024  48.569  1.00  0.00     0.143 C 
HETATM   12  C4  UNL     1      32.930   5.924  49.048  1.00  0.00     0.187 C 
HETATM   13  O2  UNL     1      33.825   6.732  48.352  1.00  0.00    -0.388 OA
HETATM   14  C5  UNL     1      33.429   8.067  48.361  1.00  0.00     0.187 C 
HETATM   15  C6  UNL     1      32.056   8.281  47.835  1.00  0.00     0.143 C 
ENDBRANCH   9  10
ENDBRANCH   7   9
ENDBRANCH   1   7
BRANCH   4  16
HETATM   16  O3  UNL     1      25.072   3.537  49.884  1.00  0.00    -0.347 OA
BRANCH  16  17
HETATM   17  C11 UNL     1      24.570   3.264  51.125  1.00  0.00     0.214 C 
BRANCH  17  18
HETATM   18  C12 UNL     1      25.117   2.014  51.681  1.00  0.00    -0.034 A 
HETATM   19  C13 UNL     1      24.210   1.303  52.480  1.00  0.00     0.009 A 
HETATM   20  C14 UNL     1      24.543   0.106  53.068  1.00  0.00     0.001 A 
HETATM   21  C15 UNL     1      25.789  -0.464  52.907  1.00  0.00     0.000 A 
HETATM   22  C16 UNL     1      26.711   0.221  52.118  1.00  0.00     0.001 A 
HETATM   23  C17 UNL     1      26.340   1.410  51.549  1.00  0.00     0.009 A 
ENDBRANCH  17  18
ENDBRANCH  16  17
ENDBRANCH   4  16
TORSDOF 6
ENDMDL
MODEL 7
REMARK VINA RESULT:      -7.2      6.187      8.484
REMARK  6 active torsions:
REMARK  status: ('A' for Active; 'I' for Inactive)
REMARK    1  A    between atoms: C1_2  and  C2_3 
REMARK    2  A    between atoms: C1_2  and  C7_10 
REMARK    3  A    between atoms: C2_3  and  N1_4 
REMARK    4  A    between atoms: C10_13  and  O3_14 
REMARK    5  A    between atoms: O3_14  and  C11_15 
REMARK    6  A    between atoms: C11_15  and  C12_16 
ROOT
HETATM    1  C7  UNL     1      27.307   5.359  48.667  1.00  0.00     0.011 A 
HETATM    2  C8  UNL     1      26.226   6.186  48.566  1.00  0.00     0.018 A 
HETATM    3  C9  UNL     1      25.000   5.745  48.985  1.00  0.00     0.038 A 
HETATM    4  C10 UNL     1      24.744   4.510  49.513  1.00  0.00     0.069 A 
HETATM    5  C18 UNL     1      25.866   3.687  49.604  1.00  0.00     0.038 A 
HETATM    6  C19 UNL     1      27.136   4.085  49.194  1.00  0.00     0.018 A 
ENDROOT
BRANCH   1   7
HETATM    7  C1  UNL     1      28.622   5.815  48.227  1.00  0.00     0.176 C 
HETATM    8  O1  UNL     1      29.650   5.081  48.306  1.00  0.00    -0.291 OA
BRANCH   7   9
HETATM    9  C2  UNL     1      28.795   7.167  47.669  1.00  0.00     0.200 C 
BRANCH   9  10
HETATM   10  N1  UNL     1      29.456   8.072  48.560  1.00  0.00    -0.401 N 
HETATM   11  C3  UNL     1      28.636   9.081  49.117  1.00  0.00     0.143 C 
HETATM   12  C4  UNL     1      29.185  10.465  49.146  1.00  0.00     0.187 C 
HETATM   13  O2  UNL     1      30.565  10.526  49.321  1.00  0.00    -0.388 OA
HETATM   14  C5  UNL     1      31.241   9.783  48.357  1.00  0.00     0.187 C 
HETATM   15  C6  UNL     1      30.811   8.362  48.296  1.00  0.00     0.143 C 
ENDBRANCH   9  10
ENDBRANCH   7   9
ENDBRANCH   1   7
BRANCH   4  16
HETATM   16  O3  UNL     1      23.693   3.831  49.987  1.00  0.00    -0.347 OA
BRANCH  16  17
HETATM   17  C11 UNL     1      23.105   2.647  49.645  1.00  0.00     0.214 C 
BRANCH  17  18
HETATM   18  C12 UNL     1      22.989   1.734  50.795  1.00  0.00    -0.034 A 
HETATM   19  C13 UNL     1      21.792   1.004  50.822  1.00  0.00     0.009 A 
HETATM   20  C14 UNL     1      21.519   0.091  51.814  1.00  0.00     0.001 A 
HETATM   21  C15 UNL     1      22.407  -0.157  52.840  1.00  0.00     0.000 A 
HETATM   22  C16 UNL     1      23.606   0.554  52.839  1.00  0.00     0.001 A 
HETATM   23  C17 UNL     1      23.839   1.453  51.833  1.00  0.00     0.009 A 
ENDBRANCH  17  18
ENDBRANCH  16  17
ENDBRANCH   4  16
TORSDOF 6
ENDMDL
MODEL 8
REMARK VINA RESULT:      -7.1      5.034      8.460
REMARK  6 active torsions:
REMARK  status: ('A' for Active; 'I' for Inactive)
REMARK    1  A    between atoms: C1_2  and  C2_3 
REMARK    2  A    between atoms: C1_2  and  C7_10 
REMARK    3  A    between atoms: C2_3  and  N1_4 
REMARK    4  A    between atoms: C10_13  and  O3_14 
REMARK    5  A    between atoms: O3_14  and  C11_15 
REMARK    6  A    between atoms: C11_15  and  C12_16 
ROOT
HETATM    1  C7  UNL     1      24.595   3.820  50.611  1.00  0.00     0.011 A 
HETATM    2  C8  UNL     1      23.491   3.754  51.411  1.00  0.00     0.018 A 
HETATM    3  C9  UNL     1      23.408   2.777  52.366  1.00  0.00     0.038 A 
HETATM    4  C10 UNL     1      24.360   1.824  52.604  1.00  0.00     0.069 A 
HETATM    5  C18 UNL     1      25.476   1.916  51.773  1.00  0.00     0.038 A 
HETATM    6  C19 UNL     1      25.612   2.889  50.787  1.00  0.00     0.018 A 
ENDROOT
BRANCH   1   7
HETATM    7  C1  UNL     1      24.700   4.857  49.590  1.00  0.00     0.176 C 
HETATM    8  O1  UNL     1      23.943   4.881  48.576  1.00  0.00    -0.291 OA
BRANCH   7   9
HETATM    9  C2  UNL     1      25.707   5.924  49.711  1.00  0.00     0.200 C 
BRANCH   9  10
HETATM   10  N1  UNL     1      26.603   5.993  48.596  1.00  0.00    -0.401 N 
HETATM   11  C3  UNL     1      27.689   5.090  48.634  1.00  0.00     0.143 C 
HETATM   12  C4  UNL     1      29.032   5.624  48.274  1.00  0.00     0.187 C 
HETATM   13  O2  UNL     1      29.005   6.625  47.306  1.00  0.00    -0.388 OA
HETATM   14  C5  UNL     1      28.175   7.679  47.678  1.00  0.00     0.187 C 
HETATM   15  C6  UNL     1      26.786   7.256  47.994  1.00  0.00     0.143 C 
ENDBRANCH   9  10
ENDBRANCH   7   9
ENDBRANCH   1   7
BRANCH   4  16
HETATM   16  O3  UNL     1      24.543   0.790  53.433  1.00  0.00    -0.347 OA
BRANCH  16  17
HETATM   17  C11 UNL     1      25.124  -0.438  53.291  1.00  0.00     0.214 C 
BRANCH  17  18
HETATM   18  C12 UNL     1      26.549  -0.423  53.664  1.00  0.00    -0.034 A 
HETATM   19  C13 UNL     1      27.346  -1.286  52.898  1.00  0.00     0.009 A 
HETATM   20  C14 UNL     1      28.703  -1.391  53.096  1.00  0.00     0.001 A 
HETATM   21  C15 UNL     1      29.357  -0.653  54.060  1.00  0.00     0.000 A 
HETATM   22  C16 UNL     1      28.590   0.214  54.837  1.00  0.00     0.001 A 
HETATM   23  C17 UNL     1      27.242   0.289  54.608  1.00  0.00     0.009 A 
ENDBRANCH  17  18
ENDBRANCH  16  17
ENDBRANCH   4  16
TORSDOF 6
ENDMDL
MODEL 9
REMARK VINA RESULT:      -7.1      6.487      9.539
REMARK  6 active torsions:
REMARK  status: ('A' for Active; 'I' for Inactive)
REMARK    1  A    between atoms: C1_2  and  C2_3 
REMARK    2  A    between atoms: C1_2  and  C7_10 
REMARK    3  A    between atoms: C2_3  and  N1_4 
REMARK    4  A    between atoms: C10_13  and  O3_14 
REMARK    5  A    between atoms: O3_14  and  C11_15 
REMARK    6  A    between atoms: C11_15  and  C12_16 
ROOT
HETATM    1  C7  UNL     1      27.256   6.075  48.536  1.00  0.00     0.011 A 
HETATM    2  C8  UNL     1      26.107   6.504  49.137  1.00  0.00     0.018 A 
HETATM    3  C9  UNL     1      25.349   5.616  49.850  1.00  0.00     0.038 A 
HETATM    4  C10 UNL     1      25.640   4.291  50.024  1.00  0.00     0.069 A 
HETATM    5  C18 UNL     1      26.817   3.881  49.399  1.00  0.00     0.038 A 
HETATM    6  C19 UNL     1      27.627   4.742  48.662  1.00  0.00     0.018 A 
ENDROOT
BRANCH   1   7
HETATM    7  C1  UNL     1      28.077   7.010  47.773  1.00  0.00     0.176 C 
HETATM    8  O1  UNL     1      29.234   6.707  47.360  1.00  0.00    -0.291 OA
BRANCH   7   9
HETATM    9  C2  UNL     1      27.576   8.359  47.458  1.00  0.00     0.200 C 
BRANCH   9  10
HETATM   10  N1  UNL     1      28.401   9.410  47.970  1.00  0.00    -0.401 N 
HETATM   11  C3  UNL     1      29.210  10.066  47.015  1.00  0.00     0.143 C 
HETATM   12  C4  UNL     1      30.627  10.332  47.389  1.00  0.00     0.187 C 
HETATM   13  O2  UNL     1      30.818  10.590  48.744  1.00  0.00    -0.388 OA
HETATM   14  C5  UNL     1      30.317   9.563  49.540  1.00  0.00     0.187 C 
HETATM   15  C6  UNL     1      28.883   9.266  49.289  1.00  0.00     0.143 C 
ENDBRANCH   9  10
ENDBRANCH   7   9
ENDBRANCH   1   7
BRANCH   4  16
HETATM   16  O3  UNL     1      25.107   3.231  50.641  1.00  0.00    -0.347 OA
BRANCH  16  17
HETATM   17  C11 UNL     1      24.759   2.972  51.936  1.00  0.00     0.214 C 
BRANCH  17  18
HETATM   18  C12 UNL     1      25.084   1.591  52.332  1.00  0.00    -0.034 A 
HETATM   19  C13 UNL     1      26.318   1.137  51.843  1.00  0.00     0.009 A 
HETATM   20  C14 UNL     1      26.792  -0.123  52.126  1.00  0.00     0.001 A 
HETATM   21  C15 UNL     1      26.081  -1.011  52.906  1.00  0.00     0.000 A 
HETATM   22  C16 UNL     1      24.851  -0.586  53.405  1.00  0.00     0.001 A 
HETATM   23  C17 UNL     1      24.414   0.675  53.100  1.00  0.00     0.009 A 
ENDBRANCH  17  18
ENDBRANCH  16  17
ENDBRANCH   4  16
TORSDOF 6
ENDMDL
