MODEL 1
REMARK VINA RESULT:      -8.9      0.000      0.000
REMARK  6 active torsions:
REMARK  status: ('A' for Active; 'I' for Inactive)
REMARK    1  A    between atoms: C2_2  and  C3_3 
REMARK       I    between atoms: C3_3  and  N1_5 
REMARK    2  A    between atoms: N1_5  and  C4_6 
REMARK    3  A    between atoms: C6_8  and  N2_9 
REMARK    4  A    between atoms: C14_19  and  O2_20 
REMARK    5  A    between atoms: C17_23  and  N5_24 
REMARK    6  A    between atoms: C20_27  and  N6_28 
ROOT
HETATM    1  C4  UNL     1      24.202   1.999  51.443  1.00  0.00     0.064 A 
HETATM    2  C5  UNL     1      22.834   1.933  51.538  1.00  0.00     0.065 A 
HETATM    3  C6  UNL     1      22.119   1.214  52.472  1.00  0.00     0.083 A 
HETATM    4  C14 UNL     1      22.832   0.483  53.412  1.00  0.00     0.098 A 
HETATM    5  C16 UNL     1      24.210   0.527  53.346  1.00  0.00     0.070 A 
HETATM    6  C17 UNL     1      24.869   1.262  52.391  1.00  0.00     0.060 A 
ENDROOT
BRANCH   3   7
HETATM    7  N2  UNL     1      20.704   1.199  52.503  1.00  0.00    -0.289 N 
HETATM    8  C7  UNL     1      20.031   2.473  52.333  1.00  0.00     0.291 C 
HETATM    9  N3  UNL     1      19.016   2.288  51.333  1.00  0.00    -0.275 NA
HETATM   10  C8  UNL     1      18.548   1.168  50.989  1.00  0.00     0.035 C 
HETATM   11  C9  UNL     1      17.578   0.468  50.093  1.00  0.00     0.083 C 
HETATM   12  C13 UNL     1      18.993  -0.142  51.586  1.00  0.00     0.153 C 
HETATM   13  C10 UNL     1      16.789  -0.327  51.099  1.00  0.00    -0.017 C 
HETATM   14  C11 UNL     1      17.682  -0.701  52.024  1.00  0.00    -0.062 C 
HETATM   15  C12 UNL     1      17.484  -1.513  53.268  1.00  0.00     0.045 C 
HETATM   16  N4  UNL     1      19.914   0.073  52.681  1.00  0.00    -0.222 NA
HETATM   17  H15 UNL     1      19.507  -0.044  53.613  1.00  0.00     0.148 HD
ENDBRANCH   3   7
BRANCH   4  18
HETATM   18  O2  UNL     1      22.142  -0.248  54.362  1.00  0.00    -0.354 OA
HETATM   19  C15 UNL     1      22.806  -1.277  55.105  1.00  0.00     0.210 C 
ENDBRANCH   4  18
BRANCH   1  20
HETATM   20  N1  UNL     1      24.950   2.722  50.503  1.00  0.00    -0.322 N 
HETATM   21  C3  UNL     1      25.123   4.119  50.362  1.00  0.00     0.244 C 
HETATM   22  O1  UNL     1      24.539   4.875  51.176  1.00  0.00    -0.268 OA
HETATM   23  H4  UNL     1      25.485   2.206  49.769  1.00  0.00     0.169 HD
BRANCH  21  24
HETATM   24  C2  UNL     1      25.933   4.740  49.333  1.00  0.00     0.064 C 
HETATM   25  C1  UNL     1      27.146   4.358  49.065  1.00  0.00     0.017 C 
ENDBRANCH  21  24
ENDBRANCH   1  20
BRANCH   6  26
HETATM   26  N5  UNL     1      26.283   1.164  52.503  1.00  0.00    -0.377 N 
HETATM   27  C18 UNL     1      27.380   2.110  52.451  1.00  0.00     0.125 C 
HETATM   28  C19 UNL     1      28.281   1.586  53.552  1.00  0.00     0.057 C 
HETATM   29  C20 UNL     1      27.845   0.199  53.882  1.00  0.00     0.241 C 
HETATM   30  C23 UNL     1      26.904  -0.132  52.723  1.00  0.00     0.159 C 
BRANCH  29  31
HETATM   31  N6  UNL     1      28.914  -0.774  53.952  1.00  0.00     0.086 N 
HETATM   32  C21 UNL     1      30.167  -0.235  53.458  1.00  0.00     0.310 C 
HETATM   33  C22 UNL     1      28.554  -1.876  53.083  1.00  0.00     0.310 C 
ENDBRANCH  29  31
ENDBRANCH   6  26
TORSDOF 6
ENDMDL
MODEL 2
REMARK VINA RESULT:      -8.4      1.937      7.950
REMARK  6 active torsions:
REMARK  status: ('A' for Active; 'I' for Inactive)
REMARK    1  A    between atoms: C2_2  and  C3_3 
REMARK       I    between atoms: C3_3  and  N1_5 
REMARK    2  A    between atoms: N1_5  and  C4_6 
REMARK    3  A    between atoms: C6_8  and  N2_9 
REMARK    4  A    between atoms: C14_19  and  O2_20 
REMARK    5  A    between atoms: C17_23  and  N5_24 
REMARK    6  A    between atoms: C20_27  and  N6_28 
ROOT
HETATM    1  C4  UNL     1      22.510   1.832  50.954  1.00  0.00     0.064 A 
HETATM    2  C5  UNL     1      23.871   1.663  51.020  1.00  0.00     0.065 A 
HETATM    3  C6  UNL     1      24.558   0.996  52.012  1.00  0.00     0.083 A 
HETATM    4  C14 UNL     1      23.822   0.438  53.047  1.00  0.00     0.098 A 
HETATM    5  C16 UNL     1      22.451   0.588  53.013  1.00  0.00     0.070 A 
HETATM    6  C17 UNL     1      21.820   1.265  51.997  1.00  0.00     0.060 A 
ENDROOT
BRANCH   3   7
HETATM    7  N2  UNL     1      25.968   0.864  52.006  1.00  0.00    -0.289 N 
HETATM    8  C7  UNL     1      26.726   1.955  51.423  1.00  0.00     0.291 C 
HETATM    9  N3  UNL     1      27.761   2.300  52.357  1.00  0.00    -0.275 NA
HETATM   10  C8  UNL     1      28.170   1.546  53.282  1.00  0.00     0.035 C 
HETATM   11  C9  UNL     1      29.123   1.414  54.426  1.00  0.00     0.083 C 
HETATM   12  C13 UNL     1      27.621   0.165  53.537  1.00  0.00     0.153 C 
HETATM   13  C10 UNL     1      29.825   0.134  54.059  1.00  0.00    -0.017 C 
HETATM   14  C11 UNL     1      28.878  -0.636  53.507  1.00  0.00    -0.062 C 
HETATM   15  C12 UNL     1      28.981  -2.024  52.951  1.00  0.00     0.045 C 
HETATM   16  N4  UNL     1      26.678  -0.216  52.509  1.00  0.00    -0.222 NA
HETATM   17  H15 UNL     1      27.044  -0.873  51.814  1.00  0.00     0.148 HD
ENDBRANCH   3   7
BRANCH   4  18
HETATM   18  O2  UNL     1      24.485  -0.238  54.057  1.00  0.00    -0.354 OA
HETATM   19  C15 UNL     1      23.761  -1.086  54.956  1.00  0.00     0.210 C 
ENDBRANCH   4  18
BRANCH   1  20
HETATM   20  N1  UNL     1      21.790   2.505  49.957  1.00  0.00    -0.322 N 
HETATM   21  C3  UNL     1      21.250   2.020  48.743  1.00  0.00     0.244 C 
HETATM   22  O1  UNL     1      21.411   0.806  48.465  1.00  0.00    -0.268 OA
HETATM   23  H4  UNL     1      21.589   3.524  50.072  1.00  0.00     0.169 HD
BRANCH  21  24
HETATM   24  C2  UNL     1      20.520   2.834  47.792  1.00  0.00     0.064 C 
HETATM   25  C1  UNL     1      19.237   3.031  47.873  1.00  0.00     0.017 C 
ENDBRANCH  21  24
ENDBRANCH   1  20
BRANCH   6  26
HETATM   26  N5  UNL     1      20.408   1.304  52.160  1.00  0.00    -0.377 N 
HETATM   27  C18 UNL     1      19.400   2.342  52.086  1.00  0.00     0.125 C 
HETATM   28  C19 UNL     1      18.272   1.616  51.381  1.00  0.00     0.057 C 
HETATM   29  C20 UNL     1      18.552   0.153  51.449  1.00  0.00     0.241 C 
HETATM   30  C23 UNL     1      19.681   0.085  52.478  1.00  0.00     0.159 C 
BRANCH  29  31
HETATM   31  N6  UNL     1      17.436  -0.661  51.878  1.00  0.00     0.086 N 
HETATM   32  C21 UNL     1      16.250   0.137  52.126  1.00  0.00     0.310 C 
HETATM   33  C22 UNL     1      17.805  -1.276  53.136  1.00  0.00     0.310 C 
ENDBRANCH  29  31
ENDBRANCH   6  26
TORSDOF 6
ENDMDL
MODEL 3
REMARK VINA RESULT:      -8.2      2.043      8.515
REMARK  6 active torsions:
REMARK  status: ('A' for Active; 'I' for Inactive)
REMARK    1  A    between atoms: C2_2  and  C3_3 
REMARK       I    between atoms: C3_3  and  N1_5 
REMARK    2  A    between atoms: N1_5  and  C4_6 
REMARK    3  A    between atoms: C6_8  and  N2_9 
REMARK    4  A    between atoms: C14_19  and  O2_20 
REMARK    5  A    between atoms: C17_23  and  N5_24 
REMARK    6  A    between atoms: C20_27  and  N6_28 
ROOT
HETATM    1  C4  UNL     1      22.255   0.873  51.512  1.00  0.00     0.064 A 
HETATM    2  C5  UNL     1      23.321   0.544  52.313  1.00  0.00     0.065 A 
HETATM    3  C6  UNL     1      24.556   1.157  52.312  1.00  0.00     0.083 A 
HETATM    4  C14 UNL     1      24.759   2.204  51.425  1.00  0.00     0.098 A 
HETATM    5  C16 UNL     1      23.710   2.562  50.604  1.00  0.00     0.070 A 
HETATM    6  C17 UNL     1      22.498   1.915  50.650  1.00  0.00     0.060 A 
ENDROOT
BRANCH   3   7
HETATM    7  N2  UNL     1      25.606   0.756  53.173  1.00  0.00    -0.289 N 
HETATM    8  C7  UNL     1      25.346  -0.377  54.041  1.00  0.00     0.291 C 
HETATM    9  N3  UNL     1      26.455  -1.279  53.905  1.00  0.00    -0.275 NA
HETATM   10  C8  UNL     1      27.587  -0.957  53.453  1.00  0.00     0.035 C 
HETATM   11  C9  UNL     1      28.961  -1.446  53.125  1.00  0.00     0.083 C 
HETATM   12  C13 UNL     1      27.935   0.434  52.987  1.00  0.00     0.153 C 
HETATM   13  C10 UNL     1      29.800  -0.468  53.903  1.00  0.00    -0.017 C 
HETATM   14  C11 UNL     1      29.150   0.699  53.809  1.00  0.00    -0.062 C 
HETATM   15  C12 UNL     1      29.505   2.039  54.382  1.00  0.00     0.045 C 
HETATM   16  N4  UNL     1      26.854   1.356  53.255  1.00  0.00    -0.222 NA
HETATM   17  H15 UNL     1      27.003   1.970  54.062  1.00  0.00     0.148 HD
ENDBRANCH   3   7
BRANCH   4  18
HETATM   18  O2  UNL     1      25.989   2.838  51.402  1.00  0.00    -0.354 OA
HETATM   19  C15 UNL     1      26.508   3.363  50.174  1.00  0.00     0.210 C 
ENDBRANCH   4  18
BRANCH   1  20
HETATM   20  N1  UNL     1      20.992   0.267  51.495  1.00  0.00    -0.322 N 
HETATM   21  C3  UNL     1      19.815   0.600  52.206  1.00  0.00     0.244 C 
HETATM   22  O1  UNL     1      19.851   1.583  52.986  1.00  0.00    -0.268 OA
HETATM   23  H4  UNL     1      20.832  -0.565  50.882  1.00  0.00     0.169 HD
BRANCH  21  24
HETATM   24  C2  UNL     1      18.563  -0.121  52.094  1.00  0.00     0.064 C 
HETATM   25  C1  UNL     1      17.862  -0.149  50.999  1.00  0.00     0.017 C 
ENDBRANCH  21  24
ENDBRANCH   1  20
BRANCH   6  26
HETATM   26  N5  UNL     1      21.561   2.441  49.719  1.00  0.00    -0.377 N 
HETATM   27  C18 UNL     1      21.130   2.073  48.385  1.00  0.00     0.125 C 
HETATM   28  C19 UNL     1      19.639   2.323  48.471  1.00  0.00     0.057 C 
HETATM   29  C20 UNL     1      19.381   3.160  49.678  1.00  0.00     0.241 C 
HETATM   30  C23 UNL     1      20.787   3.624  50.060  1.00  0.00     0.159 C 
BRANCH  29  31
HETATM   31  N6  UNL     1      18.522   4.303  49.455  1.00  0.00     0.086 N 
HETATM   32  C21 UNL     1      19.266   5.549  49.475  1.00  0.00     0.310 C 
HETATM   33  C22 UNL     1      17.575   4.355  50.551  1.00  0.00     0.310 C 
ENDBRANCH  29  31
ENDBRANCH   6  26
TORSDOF 6
ENDMDL
MODEL 4
REMARK VINA RESULT:      -8.1      2.570      6.319
REMARK  6 active torsions:
REMARK  status: ('A' for Active; 'I' for Inactive)
REMARK    1  A    between atoms: C2_2  and  C3_3 
REMARK       I    between atoms: C3_3  and  N1_5 
REMARK    2  A    between atoms: N1_5  and  C4_6 
REMARK    3  A    between atoms: C6_8  and  N2_9 
REMARK    4  A    between atoms: C14_19  and  O2_20 
REMARK    5  A    between atoms: C17_23  and  N5_24 
REMARK    6  A    between atoms: C20_27  and  N6_28 
ROOT
HETATM    1  C4  UNL     1      23.367   1.968  52.448  1.00  0.00     0.064 A 
HETATM    2  C5  UNL     1      22.901   3.052  51.745  1.00  0.00     0.065 A 
HETATM    3  C6  UNL     1      23.663   3.915  50.987  1.00  0.00     0.083 A 
HETATM    4  C14 UNL     1      25.029   3.684  50.917  1.00  0.00     0.098 A 
HETATM    5  C16 UNL     1      25.533   2.603  51.612  1.00  0.00     0.070 A 
HETATM    6  C17 UNL     1      24.724   1.775  52.352  1.00  0.00     0.060 A 
ENDROOT
BRANCH   3   7
HETATM    7  N2  UNL     1      23.103   5.013  50.289  1.00  0.00    -0.289 N 
HETATM    8  C7  UNL     1      22.408   6.009  51.082  1.00  0.00     0.291 C 
HETATM    9  N3  UNL     1      22.909   7.294  50.684  1.00  0.00    -0.275 NA
HETATM   10  C8  UNL     1      23.511   7.522  49.600  1.00  0.00     0.035 C 
HETATM   11  C9  UNL     1      24.179   8.566  48.763  1.00  0.00     0.083 C 
HETATM   12  C13 UNL     1      23.792   6.465  48.562  1.00  0.00     0.153 C 
HETATM   13  C10 UNL     1      23.424   8.415  47.470  1.00  0.00    -0.017 C 
HETATM   14  C11 UNL     1      23.189   7.102  47.356  1.00  0.00    -0.062 C 
HETATM   15  C12 UNL     1      22.477   6.349  46.273  1.00  0.00     0.045 C 
HETATM   16  N4  UNL     1      23.166   5.211  48.917  1.00  0.00    -0.222 NA
HETATM   17  H15 UNL     1      22.311   4.995  48.396  1.00  0.00     0.148 HD
ENDBRANCH   3   7
BRANCH   4  18
HETATM   18  O2  UNL     1      25.819   4.535  50.164  1.00  0.00    -0.354 OA
HETATM   19  C15 UNL     1      26.837   4.006  49.306  1.00  0.00     0.210 C 
ENDBRANCH   4  18
BRANCH   1  20
HETATM   20  N1  UNL     1      22.614   1.077  53.224  1.00  0.00    -0.322 N 
HETATM   21  C3  UNL     1      21.659   0.111  52.827  1.00  0.00     0.244 C 
HETATM   22  O1  UNL     1      21.410  -0.009  51.603  1.00  0.00    -0.268 OA
HETATM   23  H4  UNL     1      22.731   1.078  54.263  1.00  0.00     0.169 HD
BRANCH  21  24
HETATM   24  C2  UNL     1      20.945  -0.754  53.745  1.00  0.00     0.064 C 
HETATM   25  C1  UNL     1      21.549  -1.538  54.588  1.00  0.00     0.017 C 
ENDBRANCH  21  24
ENDBRANCH   1  20
BRANCH   6  26
HETATM   26  N5  UNL     1      25.448   0.729  52.987  1.00  0.00    -0.377 N 
HETATM   27  C18 UNL     1      25.309  -0.712  53.058  1.00  0.00     0.125 C 
HETATM   28  C19 UNL     1      26.753  -1.159  52.959  1.00  0.00     0.057 C 
HETATM   29  C20 UNL     1      27.620   0.025  53.225  1.00  0.00     0.241 C 
HETATM   30  C23 UNL     1      26.623   1.041  53.784  1.00  0.00     0.159 C 
BRANCH  29  31
HETATM   31  N6  UNL     1      28.687  -0.203  54.175  1.00  0.00     0.086 N 
HETATM   32  C21 UNL     1      29.354   1.032  54.543  1.00  0.00     0.310 C 
HETATM   33  C22 UNL     1      29.674  -1.043  53.527  1.00  0.00     0.310 C 
ENDBRANCH  29  31
ENDBRANCH   6  26
TORSDOF 6
ENDMDL
MODEL 5
REMARK VINA RESULT:      -7.9      4.603      8.370
REMARK  6 active torsions:
REMARK  status: ('A' for Active; 'I' for Inactive)
REMARK    1  A    between atoms: C2_2  and  C3_3 
REMARK       I    between atoms: C3_3  and  N1_5 
REMARK    2  A    between atoms: N1_5  and  C4_6 
REMARK    3  A    between atoms: C6_8  and  N2_9 
REMARK    4  A    between atoms: C14_19  and  O2_20 
REMARK    5  A    between atoms: C17_23  and  N5_24 
REMARK    6  A    between atoms: C20_27  and  N6_28 
ROOT
HETATM    1  C4  UNL     1      28.618   5.751  48.222  1.00  0.00     0.064 A 
HETATM    2  C5  UNL     1      27.841   4.707  48.664  1.00  0.00     0.065 A 
HETATM    3  C6  UNL     1      26.563   4.806  49.172  1.00  0.00     0.083 A 
HETATM    4  C14 UNL     1      25.993   6.068  49.252  1.00  0.00     0.098 A 
HETATM    5  C16 UNL     1      26.744   7.140  48.817  1.00  0.00     0.070 A 
HETATM    6  C17 UNL     1      28.015   6.982  48.318  1.00  0.00     0.060 A 
ENDROOT
BRANCH   3   7
HETATM    7  N2  UNL     1      25.828   3.677  49.607  1.00  0.00    -0.289 N 
HETATM    8  C7  UNL     1      26.494   2.775  50.528  1.00  0.00     0.291 C 
HETATM    9  N3  UNL     1      25.590   2.536  51.618  1.00  0.00    -0.275 NA
HETATM   10  C8  UNL     1      24.345   2.736  51.571  1.00  0.00     0.035 C 
HETATM   11  C9  UNL     1      23.062   2.666  52.335  1.00  0.00     0.083 C 
HETATM   12  C13 UNL     1      23.629   3.259  50.352  1.00  0.00     0.153 C 
HETATM   13  C10 UNL     1      22.228   1.824  51.407  1.00  0.00    -0.017 C 
HETATM   14  C11 UNL     1      22.591   2.203  50.174  1.00  0.00    -0.062 C 
HETATM   15  C12 UNL     1      22.101   1.718  48.843  1.00  0.00     0.045 C 
HETATM   16  N4  UNL     1      24.531   3.366  49.226  1.00  0.00    -0.222 NA
HETATM   17  H15 UNL     1      24.436   2.621  48.529  1.00  0.00     0.148 HD
ENDBRANCH   3   7
BRANCH   4  18
HETATM   18  O2  UNL     1      24.712   6.196  49.758  1.00  0.00    -0.354 OA
HETATM   19  C15 UNL     1      24.496   6.813  51.033  1.00  0.00     0.210 C 
ENDBRANCH   4  18
BRANCH   1  20
HETATM   20  N1  UNL     1      29.916   5.676  47.702  1.00  0.00    -0.322 N 
HETATM   21  C3  UNL     1      31.159   5.587  48.372  1.00  0.00     0.244 C 
HETATM   22  O1  UNL     1      31.156   5.568  49.627  1.00  0.00    -0.268 OA
HETATM   23  H4  UNL     1      30.054   5.682  46.665  1.00  0.00     0.169 HD
BRANCH  21  24
HETATM   24  C2  UNL     1      32.443   5.516  47.703  1.00  0.00     0.064 C 
HETATM   25  C1  UNL     1      33.081   4.398  47.521  1.00  0.00     0.017 C 
ENDBRANCH  21  24
ENDBRANCH   1  20
BRANCH   6  26
HETATM   26  N5  UNL     1      28.609   8.214  47.931  1.00  0.00    -0.377 N 
HETATM   27  C18 UNL     1      28.741   8.936  46.681  1.00  0.00     0.125 C 
HETATM   28  C19 UNL     1      28.511  10.363  47.133  1.00  0.00     0.057 C 
HETATM   29  C20 UNL     1      28.648  10.405  48.616  1.00  0.00     0.241 C 
HETATM   30  C23 UNL     1      29.271   9.043  48.925  1.00  0.00     0.159 C 
BRANCH  29  31
HETATM   31  N6  UNL     1      29.493  11.467  49.120  1.00  0.00     0.086 N 
HETATM   32  C21 UNL     1      28.925  12.777  48.861  1.00  0.00     0.310 C 
HETATM   33  C22 UNL     1      30.749  11.399  48.402  1.00  0.00     0.310 C 
ENDBRANCH  29  31
ENDBRANCH   6  26
TORSDOF 6
ENDMDL
MODEL 6
REMARK VINA RESULT:      -7.8      2.583      8.336
REMARK  6 active torsions:
REMARK  status: ('A' for Active; 'I' for Inactive)
REMARK    1  A    between atoms: C2_2  and  C3_3 
REMARK       I    between atoms: C3_3  and  N1_5 
REMARK    2  A    between atoms: N1_5  and  C4_6 
REMARK    3  A    between atoms: C6_8  and  N2_9 
REMARK    4  A    between atoms: C14_19  and  O2_20 
REMARK    5  A    between atoms: C17_23  and  N5_24 
REMARK    6  A    between atoms: C20_27  and  N6_28 
ROOT
HETATM    1  C4  UNL     1      22.135   1.103  51.103  1.00  0.00     0.064 A 
HETATM    2  C5  UNL     1      23.155   0.755  51.954  1.00  0.00     0.065 A 
HETATM    3  C6  UNL     1      24.384   1.374  52.044  1.00  0.00     0.083 A 
HETATM    4  C14 UNL     1      24.630   2.452  51.205  1.00  0.00     0.098 A 
HETATM    5  C16 UNL     1      23.627   2.830  50.336  1.00  0.00     0.070 A 
HETATM    6  C17 UNL     1      22.420   2.173  50.290  1.00  0.00     0.060 A 
ENDROOT
BRANCH   3   7
HETATM    7  N2  UNL     1      25.385   0.953  52.952  1.00  0.00    -0.289 N 
HETATM    8  C7  UNL     1      25.043  -0.139  53.844  1.00  0.00     0.291 C 
HETATM    9  N3  UNL     1      26.111  -1.096  53.773  1.00  0.00    -0.275 NA
HETATM   10  C8  UNL     1      27.272  -0.842  53.350  1.00  0.00     0.035 C 
HETATM   11  C9  UNL     1      28.631  -1.405  53.083  1.00  0.00     0.083 C 
HETATM   12  C13 UNL     1      27.701   0.516  52.854  1.00  0.00     0.153 C 
HETATM   13  C10 UNL     1      29.490  -0.443  53.859  1.00  0.00    -0.017 C 
HETATM   14  C11 UNL     1      28.900   0.750  53.709  1.00  0.00    -0.062 C 
HETATM   15  C12 UNL     1      29.300   2.088  54.252  1.00  0.00     0.045 C 
HETATM   16  N4  UNL     1      26.657   1.496  53.058  1.00  0.00    -0.222 NA
HETATM   17  H15 UNL     1      26.809   2.127  53.850  1.00  0.00     0.148 HD
ENDBRANCH   3   7
BRANCH   4  18
HETATM   18  O2  UNL     1      25.854   3.093  51.274  1.00  0.00    -0.354 OA
HETATM   19  C15 UNL     1      26.553   3.446  50.074  1.00  0.00     0.210 C 
ENDBRANCH   4  18
BRANCH   1  20
HETATM   20  N1  UNL     1      20.880   0.490  50.993  1.00  0.00    -0.322 N 
HETATM   21  C3  UNL     1      19.779   0.511  51.880  1.00  0.00     0.244 C 
HETATM   22  O1  UNL     1      19.888   1.164  52.946  1.00  0.00    -0.268 OA
HETATM   23  H4  UNL     1      20.664  -0.085  50.147  1.00  0.00     0.169 HD
BRANCH  21  24
HETATM   24  C2  UNL     1      18.525  -0.177  51.641  1.00  0.00     0.064 C 
HETATM   25  C1  UNL     1      17.787   0.050  50.595  1.00  0.00     0.017 C 
ENDBRANCH  21  24
ENDBRANCH   1  20
BRANCH   6  26
HETATM   26  N5  UNL     1      21.534   2.724  49.324  1.00  0.00    -0.377 N 
HETATM   27  C18 UNL     1      20.139   3.114  49.323  1.00  0.00     0.125 C 
HETATM   28  C19 UNL     1      20.184   4.392  48.510  1.00  0.00     0.057 C 
HETATM   29  C20 UNL     1      21.491   4.436  47.794  1.00  0.00     0.241 C 
HETATM   30  C23 UNL     1      22.014   3.011  47.981  1.00  0.00     0.159 C 
BRANCH  29  31
HETATM   31  N6  UNL     1      21.404   4.754  46.385  1.00  0.00     0.086 N 
HETATM   32  C21 UNL     1      21.921   3.680  45.557  1.00  0.00     0.310 C 
HETATM   33  C22 UNL     1      22.241   5.913  46.148  1.00  0.00     0.310 C 
ENDBRANCH  29  31
ENDBRANCH   6  26
TORSDOF 6
ENDMDL
MODEL 7
REMARK VINA RESULT:      -7.4      2.850      5.361
REMARK  6 active torsions:
REMARK  status: ('A' for Active; 'I' for Inactive)
REMARK    1  A    between atoms: C2_2  and  C3_3 
REMARK       I    between atoms: C3_3  and  N1_5 
REMARK    2  A    between atoms: N1_5  and  C4_6 
REMARK    3  A    between atoms: C6_8  and  N2_9 
REMARK    4  A    between atoms: C14_19  and  O2_20 
REMARK    5  A    between atoms: C17_23  and  N5_24 
REMARK    6  A    between atoms: C20_27  and  N6_28 
ROOT
HETATM    1  C4  UNL     1      22.975   1.103  51.685  1.00  0.00     0.064 A 
HETATM    2  C5  UNL     1      22.229   1.820  50.782  1.00  0.00     0.065 A 
HETATM    3  C6  UNL     1      22.703   2.795  49.930  1.00  0.00     0.083 A 
HETATM    4  C14 UNL     1      24.058   3.092  49.975  1.00  0.00     0.098 A 
HETATM    5  C16 UNL     1      24.839   2.391  50.871  1.00  0.00     0.070 A 
HETATM    6  C17 UNL     1      24.310   1.428  51.697  1.00  0.00     0.060 A 
ENDROOT
BRANCH   3   7
HETATM    7  N2  UNL     1      21.865   3.490  49.025  1.00  0.00    -0.289 N 
HETATM    8  C7  UNL     1      21.277   2.715  47.949  1.00  0.00     0.291 C 
HETATM    9  N3  UNL     1      19.873   3.017  47.925  1.00  0.00    -0.275 NA
HETATM   10  C8  UNL     1      19.353   4.038  48.451  1.00  0.00     0.035 C 
HETATM   11  C9  UNL     1      18.075   4.773  48.701  1.00  0.00     0.083 C 
HETATM   12  C13 UNL     1      20.141   5.092  49.186  1.00  0.00     0.153 C 
HETATM   13  C10 UNL     1      18.417   6.128  48.144  1.00  0.00    -0.017 C 
HETATM   14  C11 UNL     1      19.707   6.316  48.452  1.00  0.00    -0.062 C 
HETATM   15  C12 UNL     1      20.599   7.484  48.159  1.00  0.00     0.045 C 
HETATM   16  N4  UNL     1      21.562   4.842  49.084  1.00  0.00    -0.222 NA
HETATM   17  H15 UNL     1      22.056   5.440  48.416  1.00  0.00     0.148 HD
ENDBRANCH   3   7
BRANCH   4  18
HETATM   18  O2  UNL     1      24.562   4.066  49.132  1.00  0.00    -0.354 OA
HETATM   19  C15 UNL     1      25.213   5.223  49.671  1.00  0.00     0.210 C 
ENDBRANCH   4  18
BRANCH   1  20
HETATM   20  N1  UNL     1      22.516   0.109  52.559  1.00  0.00    -0.322 N 
HETATM   21  C3  UNL     1      21.427   0.125  53.461  1.00  0.00     0.244 C 
HETATM   22  O1  UNL     1      20.729   1.166  53.529  1.00  0.00    -0.268 OA
HETATM   23  H4  UNL     1      23.015  -0.810  52.596  1.00  0.00     0.169 HD
BRANCH  21  24
HETATM   24  C2  UNL     1      21.060  -0.986  54.317  1.00  0.00     0.064 C 
HETATM   25  C1  UNL     1      21.935  -1.800  54.827  1.00  0.00     0.017 C 
ENDBRANCH  21  24
ENDBRANCH   1  20
BRANCH   6  26
HETATM   26  N5  UNL     1      25.288   0.833  52.540  1.00  0.00    -0.377 N 
HETATM   27  C18 UNL     1      25.483  -0.487  53.105  1.00  0.00     0.125 C 
HETATM   28  C19 UNL     1      26.982  -0.656  52.965  1.00  0.00     0.057 C 
HETATM   29  C20 UNL     1      27.574   0.687  52.702  1.00  0.00     0.241 C 
HETATM   30  C23 UNL     1      26.409   1.625  53.021  1.00  0.00     0.159 C 
BRANCH  29  31
HETATM   31  N6  UNL     1      28.720   1.018  53.520  1.00  0.00     0.086 N 
HETATM   32  C21 UNL     1      28.641   0.403  54.832  1.00  0.00     0.310 C 
HETATM   33  C22 UNL     1      28.708   2.453  53.723  1.00  0.00     0.310 C 
ENDBRANCH  29  31
ENDBRANCH   6  26
TORSDOF 6
ENDMDL
MODEL 8
REMARK VINA RESULT:      -7.3      3.037      8.288
REMARK  6 active torsions:
REMARK  status: ('A' for Active; 'I' for Inactive)
REMARK    1  A    between atoms: C2_2  and  C3_3 
REMARK       I    between atoms: C3_3  and  N1_5 
REMARK    2  A    between atoms: N1_5  and  C4_6 
REMARK    3  A    between atoms: C6_8  and  N2_9 
REMARK    4  A    between atoms: C14_19  and  O2_20 
REMARK    5  A    between atoms: C17_23  and  N5_24 
REMARK    6  A    between atoms: C20_27  and  N6_28 
ROOT
HETATM    1  C4  UNL     1      24.061   3.214  50.766  1.00  0.00     0.064 A 
HETATM    2  C5  UNL     1      24.623   4.384  50.317  1.00  0.00     0.065 A 
HETATM    3  C6  UNL     1      23.938   5.501  49.888  1.00  0.00     0.083 A 
HETATM    4  C14 UNL     1      22.551   5.458  49.906  1.00  0.00     0.098 A 
HETATM    5  C16 UNL     1      21.952   4.298  50.352  1.00  0.00     0.070 A 
HETATM    6  C17 UNL     1      22.687   3.213  50.768  1.00  0.00     0.060 A 
ENDROOT
BRANCH   3   7
HETATM    7  N2  UNL     1      24.595   6.672  49.439  1.00  0.00    -0.289 N 
HETATM    8  C7  UNL     1      25.050   7.601  50.457  1.00  0.00     0.291 C 
HETATM    9  N3  UNL     1      26.417   7.922  50.159  1.00  0.00    -0.275 NA
HETATM   10  C8  UNL     1      26.961   7.756  49.034  1.00  0.00     0.035 C 
HETATM   11  C9  UNL     1      28.225   7.904  48.249  1.00  0.00     0.083 C 
HETATM   12  C13 UNL     1      26.243   7.192  47.834  1.00  0.00     0.153 C 
HETATM   13  C10 UNL     1      27.738   8.720  47.082  1.00  0.00    -0.017 C 
HETATM   14  C11 UNL     1      26.502   8.267  46.833  1.00  0.00    -0.062 C 
HETATM   15  C12 UNL     1      25.520   8.698  45.785  1.00  0.00     0.045 C 
HETATM   16  N4  UNL     1      24.837   7.001  48.114  1.00  0.00    -0.222 NA
HETATM   17  H15 UNL     1      24.219   7.711  47.709  1.00  0.00     0.148 HD
ENDBRANCH   3   7
BRANCH   4  18
HETATM   18  O2  UNL     1      21.838   6.564  49.482  1.00  0.00    -0.354 OA
HETATM   19  C15 UNL     1      21.204   7.426  50.435  1.00  0.00     0.210 C 
ENDBRANCH   4  18
BRANCH   1  20
HETATM   20  N1  UNL     1      24.736   2.068  51.207  1.00  0.00    -0.322 N 
HETATM   21  C3  UNL     1      25.145   1.699  52.510  1.00  0.00     0.244 C 
HETATM   22  O1  UNL     1      24.890   2.483  53.456  1.00  0.00    -0.268 OA
HETATM   23  H4  UNL     1      25.005   1.334  50.512  1.00  0.00     0.169 HD
BRANCH  21  24
HETATM   24  C2  UNL     1      25.843   0.469  52.828  1.00  0.00     0.064 C 
HETATM   25  C1  UNL     1      25.346  -0.440  53.614  1.00  0.00     0.017 C 
ENDBRANCH  21  24
ENDBRANCH   1  20
BRANCH   6  26
HETATM   26  N5  UNL     1      21.872   2.126  51.183  1.00  0.00    -0.377 N 
HETATM   27  C18 UNL     1      21.387   0.914  50.553  1.00  0.00     0.125 C 
HETATM   28  C19 UNL     1      21.520  -0.087  51.683  1.00  0.00     0.057 C 
HETATM   29  C20 UNL     1      21.693   0.674  52.953  1.00  0.00     0.241 C 
HETATM   30  C23 UNL     1      21.330   2.099  52.532  1.00  0.00     0.159 C 
BRANCH  29  31
HETATM   31  N6  UNL     1      20.842   0.244  54.042  1.00  0.00     0.086 N 
HETATM   32  C21 UNL     1      21.542  -0.638  54.957  1.00  0.00     0.310 C 
HETATM   33  C22 UNL     1      19.754  -0.520  53.466  1.00  0.00     0.310 C 
ENDBRANCH  29  31
ENDBRANCH   6  26
TORSDOF 6
ENDMDL
MODEL 9
REMARK VINA RESULT:      -7.3      2.436      4.938
REMARK  6 active torsions:
REMARK  status: ('A' for Active; 'I' for Inactive)
REMARK    1  A    between atoms: C2_2  and  C3_3 
REMARK       I    between atoms: C3_3  and  N1_5 
REMARK    2  A    between atoms: N1_5  and  C4_6 
REMARK    3  A    between atoms: C6_8  and  N2_9 
REMARK    4  A    between atoms: C14_19  and  O2_20 
REMARK    5  A    between atoms: C17_23  and  N5_24 
REMARK    6  A    between atoms: C20_27  and  N6_28 
ROOT
HETATM    1  C4  UNL     1      21.198   1.279  52.861  1.00  0.00     0.064 A 
HETATM    2  C5  UNL     1      19.882   1.243  52.470  1.00  0.00     0.065 A 
HETATM    3  C6  UNL     1      19.335   1.916  51.397  1.00  0.00     0.083 A 
HETATM    4  C14 UNL     1      20.178   2.708  50.631  1.00  0.00     0.098 A 
HETATM    5  C16 UNL     1      21.508   2.768  50.996  1.00  0.00     0.070 A 
HETATM    6  C17 UNL     1      21.997   2.075  52.076  1.00  0.00     0.060 A 
ENDROOT
BRANCH   3   7
HETATM    7  N2  UNL     1      17.964   1.824  51.059  1.00  0.00    -0.289 N 
HETATM    8  C7  UNL     1      17.451   0.502  50.751  1.00  0.00     0.291 C 
HETATM    9  N3  UNL     1      16.248   0.324  51.515  1.00  0.00    -0.275 NA
HETATM   10  C8  UNL     1      15.573   1.265  52.016  1.00  0.00     0.035 C 
HETATM   11  C9  UNL     1      14.363   1.612  52.822  1.00  0.00     0.083 C 
HETATM   12  C13 UNL     1      15.942   2.721  51.880  1.00  0.00     0.153 C 
HETATM   13  C10 UNL     1      13.680   2.585  51.898  1.00  0.00    -0.017 C 
HETATM   14  C11 UNL     1      14.675   3.269  51.317  1.00  0.00    -0.062 C 
HETATM   15  C12 UNL     1      14.610   4.373  50.304  1.00  0.00     0.045 C 
HETATM   16  N4  UNL     1      17.076   2.888  50.999  1.00  0.00    -0.222 NA
HETATM   17  H15 UNL     1      16.843   3.223  50.059  1.00  0.00     0.148 HD
ENDBRANCH   3   7
BRANCH   4  18
HETATM   18  O2  UNL     1      19.657   3.395  49.549  1.00  0.00    -0.354 OA
HETATM   19  C15 UNL     1      19.794   4.818  49.463  1.00  0.00     0.210 C 
ENDBRANCH   4  18
BRANCH   1  20
HETATM   20  N1  UNL     1      21.775   0.605  53.945  1.00  0.00    -0.322 N 
HETATM   21  C3  UNL     1      22.377  -0.674  54.002  1.00  0.00     0.244 C 
HETATM   22  O1  UNL     1      22.428  -1.354  52.948  1.00  0.00    -0.268 OA
HETATM   23  H4  UNL     1      21.796   1.067  54.882  1.00  0.00     0.169 HD
BRANCH  21  24
HETATM   24  C2  UNL     1      22.941  -1.257  55.204  1.00  0.00     0.064 C 
HETATM   25  C1  UNL     1      24.211  -1.212  55.479  1.00  0.00     0.017 C 
ENDBRANCH  21  24
ENDBRANCH   1  20
BRANCH   6  26
HETATM   26  N5  UNL     1      23.390   2.281  52.274  1.00  0.00    -0.377 N 
HETATM   27  C18 UNL     1      24.184   3.170  53.098  1.00  0.00     0.125 C 
HETATM   28  C19 UNL     1      25.296   2.247  53.551  1.00  0.00     0.057 C 
HETATM   29  C20 UNL     1      25.283   1.043  52.671  1.00  0.00     0.241 C 
HETATM   30  C23 UNL     1      24.353   1.479  51.537  1.00  0.00     0.159 C 
BRANCH  29  31
HETATM   31  N6  UNL     1      26.574   0.662  52.140  1.00  0.00     0.086 N 
HETATM   32  C21 UNL     1      26.849  -0.747  52.351  1.00  0.00     0.310 C 
HETATM   33  C22 UNL     1      27.580   1.405  52.870  1.00  0.00     0.310 C 
ENDBRANCH  29  31
ENDBRANCH   6  26
TORSDOF 6
ENDMDL
