MODEL 1
REMARK VINA RESULT:      -7.8      0.000      0.000
REMARK  3 active torsions:
REMARK  status: ('A' for Active; 'I' for Inactive)
REMARK    1  A    between atoms: C3_3  and  N1_4 
REMARK    2  A    between atoms: N1_4  and  C4_5 
REMARK    3  A    between atoms: N3_15  and  C12_16 
ROOT
HETATM    1  C1  UNL     1      25.234   2.170  51.949  1.00  0.00     0.071 C 
HETATM    2  C2  UNL     1      24.300   1.253  52.620  1.00  0.00     0.038 A 
HETATM    3  C3  UNL     1      22.982   1.329  52.520  1.00  0.00     0.052 A 
HETATM    4  C10 UNL     1      22.008   0.422  53.183  1.00  0.00     0.209 A 
HETATM    5  N2  UNL     1      22.630  -0.588  53.977  1.00  0.00    -0.278 NA
HETATM    6  C11 UNL     1      23.910  -0.672  54.083  1.00  0.00     0.208 A 
HETATM    7  N3  UNL     1      24.820   0.210  53.436  1.00  0.00    -0.310 N 
ENDROOT
BRANCH   3   8
HETATM    8  N1  UNL     1      22.296   2.303  51.752  1.00  0.00    -0.357 N 
HETATM    9  H4  UNL     1      21.860   2.942  52.451  1.00  0.00     0.166 HD
BRANCH   8  10
HETATM   10  C4  UNL     1      22.203   2.411  50.358  1.00  0.00     0.033 A 
HETATM   11  C5  UNL     1      21.862   1.312  49.625  1.00  0.00     0.029 A 
HETATM   12  C6  UNL     1      21.788   1.487  48.250  1.00  0.00     0.004 A 
HETATM   13  C7  UNL     1      22.049   2.709  47.669  1.00  0.00     0.019 A 
HETATM   14  C8  UNL     1      22.398   3.820  48.444  1.00  0.00     0.013 A 
HETATM   15 BR1  UNL     1      22.767   5.533  47.685  1.00  0.00    -0.051 Br
HETATM   16  C9  UNL     1      22.475   3.657  49.830  1.00  0.00     0.048 A 
ENDBRANCH   8  10
ENDBRANCH   3   8
BRANCH   7  17
HETATM   17  C12 UNL     1      26.213  -0.000  53.643  1.00  0.00     0.041 A 
HETATM   18  C13 UNL     1      26.598   0.392  54.856  1.00  0.00     0.029 A 
HETATM   19  C14 UNL     1      28.039   0.145  54.994  1.00  0.00     0.023 A 
HETATM   20  C15 UNL     1      28.473  -0.389  53.853  1.00  0.00     0.036 A 
HETATM   21 CL1  UNL     1      30.096  -0.909  53.384  1.00  0.00    -0.087 Cl
HETATM   22  C16 UNL     1      27.350  -0.531  52.886  1.00  0.00     0.177 A 
HETATM   23 CL2  UNL     1      27.122  -2.259  52.551  1.00  0.00    -0.112 Cl
ENDBRANCH   7  17
TORSDOF 3
ENDMDL
MODEL 2
REMARK VINA RESULT:      -7.7      3.185      3.842
REMARK  3 active torsions:
REMARK  status: ('A' for Active; 'I' for Inactive)
REMARK    1  A    between atoms: C3_3  and  N1_4 
REMARK    2  A    between atoms: N1_4  and  C4_5 
REMARK    3  A    between atoms: N3_15  and  C12_16 
ROOT
HETATM    1  C1  UNL     1      23.681   1.471  52.439  1.00  0.00     0.071 C 
HETATM    2  C2  UNL     1      23.201   0.500  53.433  1.00  0.00     0.038 A 
HETATM    3  C3  UNL     1      21.933   0.362  53.787  1.00  0.00     0.052 A 
HETATM    4  C10 UNL     1      21.412  -0.606  54.788  1.00  0.00     0.209 A 
HETATM    5  N2  UNL     1      22.432  -1.418  55.369  1.00  0.00    -0.278 NA
HETATM    6  C11 UNL     1      23.669  -1.294  55.034  1.00  0.00     0.208 A 
HETATM    7  N3  UNL     1      24.140  -0.357  54.072  1.00  0.00    -0.310 N 
ENDROOT
BRANCH   3   8
HETATM    8  N1  UNL     1      20.869   1.132  53.254  1.00  0.00    -0.357 N 
HETATM    9  H4  UNL     1      20.941   2.059  53.728  1.00  0.00     0.166 HD
BRANCH   8  10
HETATM   10  C4  UNL     1      19.913   0.760  52.301  1.00  0.00     0.033 A 
HETATM   11  C5  UNL     1      20.035   1.215  51.020  1.00  0.00     0.029 A 
HETATM   12  C6  UNL     1      19.054   0.809  50.125  1.00  0.00     0.004 A 
HETATM   13  C7  UNL     1      18.017  -0.007  50.522  1.00  0.00     0.019 A 
HETATM   14  C8  UNL     1      17.915  -0.459  51.841  1.00  0.00     0.013 A 
HETATM   15 BR1  UNL     1      16.498  -1.593  52.437  1.00  0.00    -0.051 Br
HETATM   16  C9  UNL     1      18.897  -0.059  52.752  1.00  0.00     0.048 A 
ENDBRANCH   8  10
ENDBRANCH   3   8
BRANCH   7  17
HETATM   17  C12 UNL     1      25.537  -0.329  53.799  1.00  0.00     0.041 A 
HETATM   18  C13 UNL     1      25.871  -1.192  52.841  1.00  0.00     0.029 A 
HETATM   19  C14 UNL     1      27.320  -1.106  52.617  1.00  0.00     0.023 A 
HETATM   20  C15 UNL     1      27.810  -0.191  53.451  1.00  0.00     0.036 A 
HETATM   21 CL1  UNL     1      29.469   0.375  53.676  1.00  0.00    -0.087 Cl
HETATM   22  C16 UNL     1      26.720   0.389  54.283  1.00  0.00     0.177 A 
HETATM   23 CL2  UNL     1      26.594   2.119  53.905  1.00  0.00    -0.112 Cl
ENDBRANCH   7  17
TORSDOF 3
ENDMDL
MODEL 3
REMARK VINA RESULT:      -7.5      2.291      2.907
REMARK  3 active torsions:
REMARK  status: ('A' for Active; 'I' for Inactive)
REMARK    1  A    between atoms: C3_3  and  N1_4 
REMARK    2  A    between atoms: N1_4  and  C4_5 
REMARK    3  A    between atoms: N3_15  and  C12_16 
ROOT
HETATM    1  C1  UNL     1      23.701   1.511  52.619  1.00  0.00     0.071 C 
HETATM    2  C2  UNL     1      23.259   0.479  53.569  1.00  0.00     0.038 A 
HETATM    3  C3  UNL     1      22.002   0.300  53.943  1.00  0.00     0.052 A 
HETATM    4  C10 UNL     1      21.519  -0.730  54.900  1.00  0.00     0.209 A 
HETATM    5  N2  UNL     1      22.565  -1.556  55.412  1.00  0.00    -0.278 NA
HETATM    6  C11 UNL     1      23.791  -1.392  55.057  1.00  0.00     0.208 A 
HETATM    7  N3  UNL     1      24.226  -0.397  54.138  1.00  0.00    -0.310 N 
ENDROOT
BRANCH   3   8
HETATM    8  N1  UNL     1      20.914   1.080  53.477  1.00  0.00    -0.357 N 
HETATM    9  H4  UNL     1      20.822   1.857  54.167  1.00  0.00     0.166 HD
BRANCH   8  10
HETATM   10  C4  UNL     1      20.116   0.879  52.343  1.00  0.00     0.033 A 
HETATM   11  C5  UNL     1      19.067   0.009  52.412  1.00  0.00     0.029 A 
HETATM   12  C6  UNL     1      18.317  -0.144  51.253  1.00  0.00     0.004 A 
HETATM   13  C7  UNL     1      18.627   0.548  50.103  1.00  0.00     0.019 A 
HETATM   14  C8  UNL     1      19.708   1.433  50.060  1.00  0.00     0.013 A 
HETATM   15 BR1  UNL     1      20.176   2.416  48.490  1.00  0.00    -0.051 Br
HETATM   16  C9  UNL     1      20.471   1.598  51.220  1.00  0.00     0.048 A 
ENDBRANCH   8  10
ENDBRANCH   3   8
BRANCH   7  17
HETATM   17  C12 UNL     1      25.616  -0.330  53.836  1.00  0.00     0.041 A 
HETATM   18  C13 UNL     1      25.942  -1.140  52.831  1.00  0.00     0.029 A 
HETATM   19  C14 UNL     1      27.384  -1.017  52.579  1.00  0.00     0.023 A 
HETATM   20  C15 UNL     1      27.877  -0.135  53.447  1.00  0.00     0.036 A 
HETATM   21 CL1  UNL     1      29.531   0.449  53.662  1.00  0.00    -0.087 Cl
HETATM   22  C16 UNL     1      26.796   0.385  54.329  1.00  0.00     0.177 A 
HETATM   23 CL2  UNL     1      26.633   2.128  54.039  1.00  0.00    -0.112 Cl
ENDBRANCH   7  17
TORSDOF 3
ENDMDL
MODEL 4
REMARK VINA RESULT:      -7.5      2.415      3.105
REMARK  3 active torsions:
REMARK  status: ('A' for Active; 'I' for Inactive)
REMARK    1  A    between atoms: C3_3  and  N1_4 
REMARK    2  A    between atoms: N1_4  and  C4_5 
REMARK    3  A    between atoms: N3_15  and  C12_16 
ROOT
HETATM    1  C1  UNL     1      26.630   2.485  51.029  1.00  0.00     0.071 C 
HETATM    2  C2  UNL     1      25.350   2.076  51.628  1.00  0.00     0.038 A 
HETATM    3  C3  UNL     1      24.174   2.578  51.285  1.00  0.00     0.052 A 
HETATM    4  C10 UNL     1      22.863   2.190  51.868  1.00  0.00     0.209 A 
HETATM    5  N2  UNL     1      22.970   1.185  52.876  1.00  0.00    -0.278 NA
HETATM    6  C11 UNL     1      24.107   0.689  53.218  1.00  0.00     0.208 A 
HETATM    7  N3  UNL     1      25.349   1.079  52.643  1.00  0.00    -0.310 N 
ENDROOT
BRANCH   3   8
HETATM    8  N1  UNL     1      23.992   3.576  50.295  1.00  0.00    -0.357 N 
HETATM    9  H4  UNL     1      23.462   3.106  49.530  1.00  0.00     0.166 HD
BRANCH   8  10
HETATM   10  C4  UNL     1      24.419   4.910  50.310  1.00  0.00     0.033 A 
HETATM   11  C5  UNL     1      23.822   5.792  51.162  1.00  0.00     0.029 A 
HETATM   12  C6  UNL     1      24.292   7.099  51.126  1.00  0.00     0.004 A 
HETATM   13  C7  UNL     1      25.306   7.471  50.271  1.00  0.00     0.019 A 
HETATM   14  C8  UNL     1      25.901   6.546  49.407  1.00  0.00     0.013 A 
HETATM   15 BR1  UNL     1      27.310   7.014  48.206  1.00  0.00    -0.051 Br
HETATM   16  C9  UNL     1      25.437   5.227  49.434  1.00  0.00     0.048 A 
ENDBRANCH   8  10
ENDBRANCH   3   8
BRANCH   7  17
HETATM   17  C12 UNL     1      26.532   0.446  53.119  1.00  0.00     0.041 A 
HETATM   18  C13 UNL     1      26.842   0.840  54.353  1.00  0.00     0.029 A 
HETATM   19  C14 UNL     1      28.067   0.148  54.773  1.00  0.00     0.023 A 
HETATM   20  C15 UNL     1      28.454  -0.642  53.773  1.00  0.00     0.036 A 
HETATM   21 CL1  UNL     1      29.844  -1.727  53.650  1.00  0.00    -0.087 Cl
HETATM   22  C16 UNL     1      27.512  -0.525  52.625  1.00  0.00     0.177 A 
HETATM   23 CL2  UNL     1      26.748  -2.106  52.372  1.00  0.00    -0.112 Cl
ENDBRANCH   7  17
TORSDOF 3
ENDMDL
MODEL 5
REMARK VINA RESULT:      -7.4      1.628      2.023
REMARK  3 active torsions:
REMARK  status: ('A' for Active; 'I' for Inactive)
REMARK    1  A    between atoms: C3_3  and  N1_4 
REMARK    2  A    between atoms: N1_4  and  C4_5 
REMARK    3  A    between atoms: N3_15  and  C12_16 
ROOT
HETATM    1  C1  UNL     1      25.905   1.930  51.181  1.00  0.00     0.071 C 
HETATM    2  C2  UNL     1      24.792   1.265  51.875  1.00  0.00     0.038 A 
HETATM    3  C3  UNL     1      23.514   1.447  51.578  1.00  0.00     0.052 A 
HETATM    4  C10 UNL     1      22.364   0.795  52.258  1.00  0.00     0.209 A 
HETATM    5  N2  UNL     1      22.758  -0.088  53.308  1.00  0.00    -0.278 NA
HETATM    6  C11 UNL     1      23.996  -0.274  53.606  1.00  0.00     0.208 A 
HETATM    7  N3  UNL     1      25.079   0.365  52.939  1.00  0.00    -0.310 N 
ENDROOT
BRANCH   3   8
HETATM    8  N1  UNL     1      23.050   2.307  50.551  1.00  0.00    -0.357 N 
HETATM    9  H4  UNL     1      23.156   1.758  49.670  1.00  0.00     0.166 HD
BRANCH   8  10
HETATM   10  C4  UNL     1      22.555   3.612  50.661  1.00  0.00     0.033 A 
HETATM   11  C5  UNL     1      21.206   3.810  50.733  1.00  0.00     0.029 A 
HETATM   12  C6  UNL     1      20.782   5.128  50.840  1.00  0.00     0.004 A 
HETATM   13  C7  UNL     1      21.682   6.170  50.870  1.00  0.00     0.019 A 
HETATM   14  C8  UNL     1      23.060   5.939  50.794  1.00  0.00     0.013 A 
HETATM   15 BR1  UNL     1      24.346   7.350  50.833  1.00  0.00    -0.051 Br
HETATM   16  C9  UNL     1      23.500   4.617  50.686  1.00  0.00     0.048 A 
ENDBRANCH   8  10
ENDBRANCH   3   8
BRANCH   7  17
HETATM   17  C12 UNL     1      26.401   0.065  53.375  1.00  0.00     0.041 A 
HETATM   18  C13 UNL     1      26.653   0.580  54.577  1.00  0.00     0.029 A 
HETATM   19  C14 UNL     1      28.028   0.232  54.958  1.00  0.00     0.023 A 
HETATM   20  C15 UNL     1      28.558  -0.483  53.967  1.00  0.00     0.036 A 
HETATM   21 CL1  UNL     1      30.167  -1.197  53.811  1.00  0.00    -0.087 Cl
HETATM   22  C16 UNL     1      27.570  -0.656  52.866  1.00  0.00     0.177 A 
HETATM   23 CL2  UNL     1      27.213  -2.387  52.707  1.00  0.00    -0.112 Cl
ENDBRANCH   7  17
TORSDOF 3
ENDMDL
MODEL 6
REMARK VINA RESULT:      -7.4      4.806      7.715
REMARK  3 active torsions:
REMARK  status: ('A' for Active; 'I' for Inactive)
REMARK    1  A    between atoms: C3_3  and  N1_4 
REMARK    2  A    between atoms: N1_4  and  C4_5 
REMARK    3  A    between atoms: N3_15  and  C12_16 
ROOT
HETATM    1  C1  UNL     1      26.307   3.171  49.632  1.00  0.00     0.071 C 
HETATM    2  C2  UNL     1      25.364   3.538  50.699  1.00  0.00     0.038 A 
HETATM    3  C3  UNL     1      25.093   2.776  51.748  1.00  0.00     0.052 A 
HETATM    4  C10 UNL     1      24.147   3.113  52.844  1.00  0.00     0.209 A 
HETATM    5  N2  UNL     1      23.520   4.384  52.674  1.00  0.00    -0.278 NA
HETATM    6  C11 UNL     1      23.775   5.134  51.660  1.00  0.00     0.208 A 
HETATM    7  N3  UNL     1      24.686   4.786  50.624  1.00  0.00    -0.310 N 
ENDROOT
BRANCH   3   8
HETATM    8  N1  UNL     1      25.676   1.505  51.980  1.00  0.00    -0.357 N 
HETATM    9  H4  UNL     1      25.004   0.820  51.573  1.00  0.00     0.166 HD
BRANCH   8  10
HETATM   10  C4  UNL     1      26.887   1.202  52.617  1.00  0.00     0.033 A 
HETATM   11  C5  UNL     1      27.602   2.206  53.202  1.00  0.00     0.029 A 
HETATM   12  C6  UNL     1      28.793   1.838  53.815  1.00  0.00     0.004 A 
HETATM   13  C7  UNL     1      29.218   0.527  53.824  1.00  0.00     0.019 A 
HETATM   14  C8  UNL     1      28.465  -0.482  53.215  1.00  0.00     0.013 A 
HETATM   15 BR1  UNL     1      29.012  -2.312  53.203  1.00  0.00    -0.051 Br
HETATM   16  C9  UNL     1      27.264  -0.125  52.596  1.00  0.00     0.048 A 
ENDBRANCH   8  10
ENDBRANCH   3   8
BRANCH   7  17
HETATM   17  C12 UNL     1      24.870   5.714  49.559  1.00  0.00     0.041 A 
HETATM   18  C13 UNL     1      23.790   5.800  48.786  1.00  0.00     0.029 A 
HETATM   19  C14 UNL     1      24.055   6.770  47.716  1.00  0.00     0.023 A 
HETATM   20  C15 UNL     1      25.291   7.236  47.883  1.00  0.00     0.036 A 
HETATM   21 CL1  UNL     1      26.201   8.419  46.936  1.00  0.00    -0.087 Cl
HETATM   22  C16 UNL     1      25.926   6.606  49.073  1.00  0.00     0.177 A 
HETATM   23 CL2  UNL     1      26.260   7.880  50.263  1.00  0.00    -0.112 Cl
ENDBRANCH   7  17
TORSDOF 3
ENDMDL
MODEL 7
REMARK VINA RESULT:      -7.0      4.732      6.178
REMARK  3 active torsions:
REMARK  status: ('A' for Active; 'I' for Inactive)
REMARK    1  A    between atoms: C3_3  and  N1_4 
REMARK    2  A    between atoms: N1_4  and  C4_5 
REMARK    3  A    between atoms: N3_15  and  C12_16 
ROOT
HETATM    1  C1  UNL     1      26.426   3.189  49.823  1.00  0.00     0.071 C 
HETATM    2  C2  UNL     1      25.494   4.218  50.310  1.00  0.00     0.038 A 
HETATM    3  C3  UNL     1      25.352   5.414  49.759  1.00  0.00     0.052 A 
HETATM    4  C10 UNL     1      24.424   6.478  50.224  1.00  0.00     0.209 A 
HETATM    5  N2  UNL     1      23.656   6.096  51.366  1.00  0.00    -0.278 NA
HETATM    6  C11 UNL     1      23.785   4.937  51.910  1.00  0.00     0.208 A 
HETATM    7  N3  UNL     1      24.683   3.936  51.444  1.00  0.00    -0.310 N 
ENDROOT
BRANCH   3   8
HETATM    8  N1  UNL     1      26.079   5.861  48.628  1.00  0.00    -0.357 N 
HETATM    9  H4  UNL     1      25.483   5.614  47.808  1.00  0.00     0.166 HD
BRANCH   8  10
HETATM   10  C4  UNL     1      27.327   6.495  48.585  1.00  0.00     0.033 A 
HETATM   11  C5  UNL     1      27.405   7.831  48.854  1.00  0.00     0.029 A 
HETATM   12  C6  UNL     1      28.672   8.398  48.794  1.00  0.00     0.004 A 
HETATM   13  C7  UNL     1      29.780   7.643  48.477  1.00  0.00     0.019 A 
HETATM   14  C8  UNL     1      29.671   6.276  48.205  1.00  0.00     0.013 A 
HETATM   15 BR1  UNL     1      31.178   5.188  47.763  1.00  0.00    -0.051 Br
HETATM   16  C9  UNL     1      28.402   5.692  48.263  1.00  0.00     0.048 A 
ENDBRANCH   8  10
ENDBRANCH   3   8
BRANCH   7  17
HETATM   17  C12 UNL     1      24.721   2.697  52.145  1.00  0.00     0.041 A 
HETATM   18  C13 UNL     1      23.828   1.832  51.669  1.00  0.00     0.029 A 
HETATM   19  C14 UNL     1      23.926   0.585  52.438  1.00  0.00     0.023 A 
HETATM   20  C15 UNL     1      24.879   0.743  53.355  1.00  0.00     0.036 A 
HETATM   21 CL1  UNL     1      25.477  -0.379  54.583  1.00  0.00    -0.087 Cl
HETATM   22  C16 UNL     1      25.475   2.104  53.254  1.00  0.00     0.177 A 
HETATM   23 CL2  UNL     1      27.186   1.930  52.819  1.00  0.00    -0.112 Cl
ENDBRANCH   7  17
TORSDOF 3
ENDMDL
MODEL 8
REMARK VINA RESULT:      -7.0      3.819      5.504
REMARK  3 active torsions:
REMARK  status: ('A' for Active; 'I' for Inactive)
REMARK    1  A    between atoms: C3_3  and  N1_4 
REMARK    2  A    between atoms: N1_4  and  C4_5 
REMARK    3  A    between atoms: N3_15  and  C12_16 
ROOT
HETATM    1  C1  UNL     1      22.664   1.968  50.302  1.00  0.00     0.071 C 
HETATM    2  C2  UNL     1      23.835   1.902  51.190  1.00  0.00     0.038 A 
HETATM    3  C3  UNL     1      24.995   2.489  50.937  1.00  0.00     0.052 A 
HETATM    4  C10 UNL     1      26.198   2.443  51.809  1.00  0.00     0.209 A 
HETATM    5  N2  UNL     1      26.001   1.681  53.000  1.00  0.00    -0.278 NA
HETATM    6  C11 UNL     1      24.879   1.106  53.257  1.00  0.00     0.208 A 
HETATM    7  N3  UNL     1      23.742   1.166  52.404  1.00  0.00    -0.310 N 
ENDROOT
BRANCH   3   8
HETATM    8  N1  UNL     1      25.262   3.258  49.777  1.00  0.00    -0.357 N 
HETATM    9  H4  UNL     1      25.134   2.599  48.979  1.00  0.00     0.166 HD
BRANCH   8  10
HETATM   10  C4  UNL     1      25.622   4.609  49.688  1.00  0.00     0.033 A 
HETATM   11  C5  UNL     1      24.854   5.547  50.316  1.00  0.00     0.029 A 
HETATM   12  C6  UNL     1      25.266   6.867  50.188  1.00  0.00     0.004 A 
HETATM   13  C7  UNL     1      26.389   7.199  49.462  1.00  0.00     0.019 A 
HETATM   14  C8  UNL     1      27.158   6.217  48.829  1.00  0.00     0.013 A 
HETATM   15 BR1  UNL     1      28.723   6.628  47.814  1.00  0.00    -0.051 Br
HETATM   16  C9  UNL     1      26.755   4.885  48.951  1.00  0.00     0.048 A 
ENDBRANCH   8  10
ENDBRANCH   3   8
BRANCH   7  17
HETATM   17  C12 UNL     1      22.563   0.481  52.815  1.00  0.00     0.041 A 
HETATM   18  C13 UNL     1      22.821  -0.423  53.759  1.00  0.00     0.029 A 
HETATM   19  C14 UNL     1      21.564  -1.085  54.129  1.00  0.00     0.023 A 
HETATM   20  C15 UNL     1      20.589  -0.555  53.392  1.00  0.00     0.036 A 
HETATM   21 CL1  UNL     1      18.859  -0.917  53.360  1.00  0.00    -0.087 Cl
HETATM   22  C16 UNL     1      21.135   0.492  52.485  1.00  0.00     0.177 A 
HETATM   23 CL2  UNL     1      20.406   2.047  52.931  1.00  0.00    -0.112 Cl
ENDBRANCH   7  17
TORSDOF 3
ENDMDL
MODEL 9
REMARK VINA RESULT:      -6.9      4.400      6.509
REMARK  3 active torsions:
REMARK  status: ('A' for Active; 'I' for Inactive)
REMARK    1  A    between atoms: C3_3  and  N1_4 
REMARK    2  A    between atoms: N1_4  and  C4_5 
REMARK    3  A    between atoms: N3_15  and  C12_16 
ROOT
HETATM    1  C1  UNL     1      23.640   3.925  52.135  1.00  0.00     0.071 C 
HETATM    2  C2  UNL     1      23.088   3.184  50.990  1.00  0.00     0.038 A 
HETATM    3  C3  UNL     1      22.141   2.264  51.086  1.00  0.00     0.052 A 
HETATM    4  C10 UNL     1      21.561   1.496  49.953  1.00  0.00     0.209 A 
HETATM    5  N2  UNL     1      22.129   1.840  48.690  1.00  0.00    -0.278 NA
HETATM    6  C11 UNL     1      23.051   2.732  48.583  1.00  0.00     0.208 A 
HETATM    7  N3  UNL     1      23.588   3.454  49.686  1.00  0.00    -0.310 N 
ENDROOT
BRANCH   3   8
HETATM    8  N1  UNL     1      21.532   1.872  52.304  1.00  0.00    -0.357 N 
HETATM    9  H4  UNL     1      20.735   2.533  52.434  1.00  0.00     0.166 HD
BRANCH   8  10
HETATM   10  C4  UNL     1      21.896   0.831  53.167  1.00  0.00     0.033 A 
HETATM   11  C5  UNL     1      20.923   0.154  53.844  1.00  0.00     0.029 A 
HETATM   12  C6  UNL     1      21.351  -0.866  54.683  1.00  0.00     0.004 A 
HETATM   13  C7  UNL     1      22.689  -1.167  54.819  1.00  0.00     0.019 A 
HETATM   14  C8  UNL     1      23.666  -0.457  54.114  1.00  0.00     0.013 A 
HETATM   15 BR1  UNL     1      25.531  -0.838  54.268  1.00  0.00    -0.051 Br
HETATM   16  C9  UNL     1      23.247   0.572  53.265  1.00  0.00     0.048 A 
ENDBRANCH   8  10
ENDBRANCH   3   8
BRANCH   7  17
HETATM   17  C12 UNL     1      24.606   4.413  49.421  1.00  0.00     0.041 A 
HETATM   18  C13 UNL     1      25.802   3.842  49.290  1.00  0.00     0.029 A 
HETATM   19  C14 UNL     1      26.795   4.890  49.021  1.00  0.00     0.023 A 
HETATM   20  C15 UNL     1      26.160   6.061  48.999  1.00  0.00     0.036 A 
HETATM   21 CL1  UNL     1      26.785   7.692  48.729  1.00  0.00    -0.087 Cl
HETATM   22  C16 UNL     1      24.706   5.866  49.253  1.00  0.00     0.177 A 
HETATM   23 CL2  UNL     1      23.816   6.387  47.809  1.00  0.00    -0.112 Cl
ENDBRANCH   7  17
TORSDOF 3
ENDMDL
