MODEL 1
REMARK VINA RESULT:      -7.4      0.000      0.000
REMARK  7 active torsions:
REMARK  status: ('A' for Active; 'I' for Inactive)
REMARK    1  A    between atoms: O1_2  and  C2_3 
REMARK    2  A    between atoms: C6_7  and  O2_8 
REMARK    3  A    between atoms: C9_11  and  N1_12 
REMARK    4  A    between atoms: N1_12  and  C10_13 
REMARK    5  A    between atoms: C13_18  and  O3_19 
REMARK    6  A    between atoms: C15_21  and  O4_22 
REMARK    7  A    between atoms: C17_24  and  O5_25 
ROOT
HETATM    1  C10 UNL     1      23.164   4.159  52.396  1.00  0.00     0.142 A 
HETATM    2  N2  UNL     1      21.923   4.136  51.923  1.00  0.00    -0.224 NA
HETATM    3  C11 UNL     1      21.275   2.937  51.833  1.00  0.00     0.236 A 
HETATM    4  N3  UNL     1      21.915   1.814  52.224  1.00  0.00    -0.238 NA
HETATM    5  C12 UNL     1      23.188   1.854  52.706  1.00  0.00     0.108 A 
HETATM    6  C13 UNL     1      23.796   0.656  53.095  1.00  0.00     0.134 A 
HETATM    7  C15 UNL     1      25.102   0.689  53.589  1.00  0.00     0.137 A 
HETATM    8  C17 UNL     1      25.732   1.910  53.671  1.00  0.00     0.105 A 
HETATM    9  C19 UNL     1      25.143   3.098  53.291  1.00  0.00     0.057 A 
HETATM   10  C20 UNL     1      23.869   3.050  52.810  1.00  0.00     0.044 A 
ENDROOT
BRANCH   1  11
HETATM   11  N1  UNL     1      23.772   5.443  52.459  1.00  0.00    -0.344 N 
HETATM   12  H13 UNL     1      24.051   6.057  53.255  1.00  0.00     0.167 HD
BRANCH  11  13
HETATM   13  C9  UNL     1      24.114   6.127  51.246  1.00  0.00     0.016 C 
HETATM   14  C8  UNL     1      23.647   7.538  51.013  1.00  0.00     0.096 C 
HETATM   15  C6  UNL     1      22.890   7.746  49.767  1.00  0.00     0.073 A 
HETATM   16  C4  UNL     1      23.490   7.542  48.475  1.00  0.00     0.049 A 
HETATM   17  C5  UNL     1      23.444   8.932  48.939  1.00  0.00     0.050 A 
HETATM   18  C3  UNL     1      24.698   6.742  48.333  1.00  0.00     0.018 C 
HETATM   19  C2  UNL     1      25.375   5.825  49.046  1.00  0.00     0.066 C 
HETATM   20  C21 UNL     1      24.858   5.421  50.374  1.00  0.00     0.061 C 
BRANCH  15  21
HETATM   21  O2  UNL     1      21.507   7.822  49.936  1.00  0.00    -0.384 OA
HETATM   22  C7  UNL     1      20.859   6.650  49.621  1.00  0.00     0.202 C 
ENDBRANCH  15  21
BRANCH  19  23
HETATM   23  O1  UNL     1      26.547   5.219  48.617  1.00  0.00    -0.356 OA
HETATM   24  C1  UNL     1      26.925   4.037  49.293  1.00  0.00     0.210 C 
ENDBRANCH  19  23
ENDBRANCH  11  13
ENDBRANCH   1  11
BRANCH   6  25
HETATM   25  O3  UNL     1      23.148  -0.569  53.007  1.00  0.00    -0.351 OA
HETATM   26  C14 UNL     1      22.351  -1.071  54.068  1.00  0.00     0.210 C 
ENDBRANCH   6  25
BRANCH   8  27
HETATM   27  O5  UNL     1      27.032   1.933  54.165  1.00  0.00    -0.353 OA
HETATM   28  C18 UNL     1      28.130   2.167  53.288  1.00  0.00     0.210 C 
ENDBRANCH   8  27
BRANCH   7  29
HETATM   29  O4  UNL     1      25.678  -0.512  53.967  1.00  0.00    -0.351 OA
HETATM   30  C16 UNL     1      26.496  -1.220  53.056  1.00  0.00     0.210 C 
ENDBRANCH   7  29
TORSDOF 7
ENDMDL
MODEL 2
REMARK VINA RESULT:      -7.0      2.926      7.376
REMARK  7 active torsions:
REMARK  status: ('A' for Active; 'I' for Inactive)
REMARK    1  A    between atoms: O1_2  and  C2_3 
REMARK    2  A    between atoms: C6_7  and  O2_8 
REMARK    3  A    between atoms: C9_11  and  N1_12 
REMARK    4  A    between atoms: N1_12  and  C10_13 
REMARK    5  A    between atoms: C13_18  and  O3_19 
REMARK    6  A    between atoms: C15_21  and  O4_22 
REMARK    7  A    between atoms: C17_24  and  O5_25 
ROOT
HETATM    1  C10 UNL     1      25.263   5.548  49.612  1.00  0.00     0.142 A 
HETATM    2  N2  UNL     1      24.190   5.966  50.275  1.00  0.00    -0.224 NA
HETATM    3  C11 UNL     1      24.096   7.286  50.611  1.00  0.00     0.236 A 
HETATM    4  N3  UNL     1      25.095   8.124  50.262  1.00  0.00    -0.238 NA
HETATM    5  C12 UNL     1      26.189   7.681  49.583  1.00  0.00     0.108 A 
HETATM    6  C13 UNL     1      27.190   8.600  49.251  1.00  0.00     0.134 A 
HETATM    7  C15 UNL     1      28.315   8.153  48.555  1.00  0.00     0.137 A 
HETATM    8  C17 UNL     1      28.384   6.818  48.227  1.00  0.00     0.105 A 
HETATM    9  C19 UNL     1      27.404   5.902  48.549  1.00  0.00     0.057 A 
HETATM   10  C20 UNL     1      26.313   6.354  49.228  1.00  0.00     0.044 A 
ENDROOT
BRANCH   1  11
HETATM   11  N1  UNL     1      25.288   4.161  49.298  1.00  0.00    -0.344 N 
HETATM   12  H13 UNL     1      25.323   3.639  48.396  1.00  0.00     0.167 HD
BRANCH  11  13
HETATM   13  C9  UNL     1      25.262   3.194  50.355  1.00  0.00     0.016 C 
HETATM   14  C8  UNL     1      24.026   2.377  50.607  1.00  0.00     0.096 C 
HETATM   15  C6  UNL     1      23.499   2.450  51.981  1.00  0.00     0.073 A 
HETATM   16  C4  UNL     1      24.258   1.974  53.108  1.00  0.00     0.049 A 
HETATM   17  C5  UNL     1      23.250   1.045  52.586  1.00  0.00     0.050 A 
HETATM   18  C3  UNL     1      25.699   1.792  53.012  1.00  0.00     0.018 C 
HETATM   19  C2  UNL     1      26.703   2.199  52.215  1.00  0.00     0.066 C 
HETATM   20  C21 UNL     1      26.399   3.088  51.070  1.00  0.00     0.061 C 
BRANCH  15  21
HETATM   21  O2  UNL     1      22.397   3.292  52.135  1.00  0.00    -0.384 OA
HETATM   22  C7  UNL     1      21.710   3.500  50.961  1.00  0.00     0.202 C 
ENDBRANCH  15  21
BRANCH  19  23
HETATM   23  O1  UNL     1      28.030   1.838  52.395  1.00  0.00    -0.356 OA
HETATM   24  C1  UNL     1      28.319   1.064  53.542  1.00  0.00     0.210 C 
ENDBRANCH  19  23
ENDBRANCH  11  13
ENDBRANCH   1  11
BRANCH   6  25
HETATM   25  O3  UNL     1      27.106   9.944  49.588  1.00  0.00    -0.351 OA
HETATM   26  C14 UNL     1      26.591  10.911  48.686  1.00  0.00     0.210 C 
ENDBRANCH   6  25
BRANCH   8  27
HETATM   27  O5  UNL     1      29.509   6.382  47.533  1.00  0.00    -0.353 OA
HETATM   28  C18 UNL     1      30.539   5.668  48.211  1.00  0.00     0.210 C 
ENDBRANCH   8  27
BRANCH   7  29
HETATM   29  O4  UNL     1      29.290   9.084  48.238  1.00  0.00    -0.351 OA
HETATM   30  C16 UNL     1      30.357   9.321  49.135  1.00  0.00     0.210 C 
ENDBRANCH   7  29
TORSDOF 7
ENDMDL
MODEL 3
REMARK VINA RESULT:      -6.9      1.670      3.191
REMARK  7 active torsions:
REMARK  status: ('A' for Active; 'I' for Inactive)
REMARK    1  A    between atoms: O1_2  and  C2_3 
REMARK    2  A    between atoms: C6_7  and  O2_8 
REMARK    3  A    between atoms: C9_11  and  N1_12 
REMARK    4  A    between atoms: N1_12  and  C10_13 
REMARK    5  A    between atoms: C13_18  and  O3_19 
REMARK    6  A    between atoms: C15_21  and  O4_22 
REMARK    7  A    between atoms: C17_24  and  O5_25 
ROOT
HETATM    1  C10 UNL     1      24.949   3.051  51.044  1.00  0.00     0.142 A 
HETATM    2  N2  UNL     1      23.883   3.076  50.252  1.00  0.00    -0.224 NA
HETATM    3  C11 UNL     1      22.941   2.096  50.385  1.00  0.00     0.236 A 
HETATM    4  N3  UNL     1      23.122   1.134  51.314  1.00  0.00    -0.238 NA
HETATM    5  C12 UNL     1      24.220   1.121  52.119  1.00  0.00     0.108 A 
HETATM    6  C13 UNL     1      24.349   0.097  53.062  1.00  0.00     0.134 A 
HETATM    7  C15 UNL     1      25.473   0.077  53.890  1.00  0.00     0.137 A 
HETATM    8  C17 UNL     1      26.407   1.077  53.737  1.00  0.00     0.105 A 
HETATM    9  C19 UNL     1      26.291   2.093  52.811  1.00  0.00     0.057 A 
HETATM   10  C20 UNL     1      25.189   2.098  52.010  1.00  0.00     0.044 A 
ENDROOT
BRANCH   1  11
HETATM   11  N1  UNL     1      25.885   4.104  50.846  1.00  0.00    -0.344 N 
HETATM   12  H13 UNL     1      26.887   4.221  51.110  1.00  0.00     0.167 HD
BRANCH  11  13
HETATM   13  C9  UNL     1      25.478   5.294  50.158  1.00  0.00     0.016 C 
HETATM   14  C8  UNL     1      25.974   5.572  48.766  1.00  0.00     0.096 C 
HETATM   15  C6  UNL     1      26.644   6.873  48.591  1.00  0.00     0.073 A 
HETATM   16  C4  UNL     1      25.944   8.115  48.781  1.00  0.00     0.049 A 
HETATM   17  C5  UNL     1      26.071   7.667  47.391  1.00  0.00     0.050 A 
HETATM   18  C3  UNL     1      24.702   8.162  49.540  1.00  0.00     0.018 C 
HETATM   19  C2  UNL     1      24.049   7.393  50.428  1.00  0.00     0.066 C 
HETATM   20  C21 UNL     1      24.648   6.103  50.842  1.00  0.00     0.061 C 
BRANCH  15  21
HETATM   21  O2  UNL     1      28.038   6.806  48.561  1.00  0.00    -0.384 OA
HETATM   22  C7  UNL     1      28.513   5.527  48.384  1.00  0.00     0.202 C 
ENDBRANCH  15  21
BRANCH  19  23
HETATM   23  O1  UNL     1      22.829   7.730  50.996  1.00  0.00    -0.356 OA
HETATM   24  C1  UNL     1      21.708   7.702  50.136  1.00  0.00     0.210 C 
ENDBRANCH  19  23
ENDBRANCH  11  13
ENDBRANCH   1  11
BRANCH   6  25
HETATM   25  O3  UNL     1      23.399  -0.905  53.205  1.00  0.00    -0.351 OA
HETATM   26  C14 UNL     1      22.223  -0.716  53.978  1.00  0.00     0.210 C 
ENDBRANCH   6  25
BRANCH   8  27
HETATM   27  O5  UNL     1      27.523   1.050  54.567  1.00  0.00    -0.353 OA
HETATM   28  C18 UNL     1      28.751   0.497  54.102  1.00  0.00     0.210 C 
ENDBRANCH   8  27
BRANCH   7  29
HETATM   29  O4  UNL     1      25.575  -0.948  54.815  1.00  0.00    -0.351 OA
HETATM   30  C16 UNL     1      25.127  -0.748  56.142  1.00  0.00     0.210 C 
ENDBRANCH   7  29
TORSDOF 7
ENDMDL
MODEL 4
REMARK VINA RESULT:      -6.8      6.538     10.489
REMARK  7 active torsions:
REMARK  status: ('A' for Active; 'I' for Inactive)
REMARK    1  A    between atoms: O1_2  and  C2_3 
REMARK    2  A    between atoms: C6_7  and  O2_8 
REMARK    3  A    between atoms: C9_11  and  N1_12 
REMARK    4  A    between atoms: N1_12  and  C10_13 
REMARK    5  A    between atoms: C13_18  and  O3_19 
REMARK    6  A    between atoms: C15_21  and  O4_22 
REMARK    7  A    between atoms: C17_24  and  O5_25 
ROOT
HETATM    1  C10 UNL     1      30.161   6.429  48.574  1.00  0.00     0.142 A 
HETATM    2  N2  UNL     1      29.476   5.306  48.395  1.00  0.00    -0.224 NA
HETATM    3  C11 UNL     1      28.112   5.366  48.357  1.00  0.00     0.236 A 
HETATM    4  N3  UNL     1      27.504   6.562  48.505  1.00  0.00    -0.238 NA
HETATM    5  C12 UNL     1      28.220   7.705  48.689  1.00  0.00     0.108 A 
HETATM    6  C13 UNL     1      27.531   8.913  48.836  1.00  0.00     0.134 A 
HETATM    7  C15 UNL     1      28.259  10.089  49.024  1.00  0.00     0.137 A 
HETATM    8  C17 UNL     1      29.632  10.002  49.056  1.00  0.00     0.105 A 
HETATM    9  C19 UNL     1      30.324   8.817  48.913  1.00  0.00     0.057 A 
HETATM   10  C20 UNL     1      29.599   7.678  48.730  1.00  0.00     0.044 A 
ENDROOT
BRANCH   1  11
HETATM   11  N1  UNL     1      31.576   6.286  48.601  1.00  0.00    -0.344 N 
HETATM   12  H13 UNL     1      32.304   6.571  49.291  1.00  0.00     0.167 HD
BRANCH  11  13
HETATM   13  C9  UNL     1      32.245   5.636  47.512  1.00  0.00     0.016 C 
HETATM   14  C8  UNL     1      32.848   4.271  47.698  1.00  0.00     0.096 C 
HETATM   15  C6  UNL     1      34.278   4.170  47.354  1.00  0.00     0.073 A 
HETATM   16  C4  UNL     1      34.749   4.391  46.013  1.00  0.00     0.049 A 
HETATM   17  C5  UNL     1      34.564   2.987  46.395  1.00  0.00     0.050 A 
HETATM   18  C3  UNL     1      33.935   5.114  45.047  1.00  0.00     0.018 C 
HETATM   19  C2  UNL     1      32.883   5.951  45.060  1.00  0.00     0.066 C 
HETATM   20  C21 UNL     1      32.280   6.329  46.358  1.00  0.00     0.061 C 
BRANCH  15  21
HETATM   21  O2  UNL     1      35.139   4.178  48.452  1.00  0.00    -0.384 OA
HETATM   22  C7  UNL     1      35.323   5.433  48.984  1.00  0.00     0.202 C 
ENDBRANCH  15  21
BRANCH  19  23
HETATM   23  O1  UNL     1      32.312   6.497  43.919  1.00  0.00    -0.356 OA
HETATM   24  C1  UNL     1      32.886   7.700  43.446  1.00  0.00     0.210 C 
ENDBRANCH  19  23
ENDBRANCH  11  13
ENDBRANCH   1  11
BRANCH   6  25
HETATM   25  O3  UNL     1      26.145   8.986  48.800  1.00  0.00    -0.351 OA
HETATM   26  C14 UNL     1      25.355   8.795  49.964  1.00  0.00     0.210 C 
ENDBRANCH   6  25
BRANCH   8  27
HETATM   27  O5  UNL     1      30.350  11.179  49.245  1.00  0.00    -0.353 OA
HETATM   28  C18 UNL     1      31.073  11.760  48.164  1.00  0.00     0.210 C 
ENDBRANCH   8  27
BRANCH   7  29
HETATM   29  O4  UNL     1      27.551  11.271  49.166  1.00  0.00    -0.351 OA
HETATM   30  C16 UNL     1      27.274  12.069  48.031  1.00  0.00     0.210 C 
ENDBRANCH   7  29
TORSDOF 7
ENDMDL
MODEL 5
REMARK VINA RESULT:      -6.7      2.090      2.927
REMARK  7 active torsions:
REMARK  status: ('A' for Active; 'I' for Inactive)
REMARK    1  A    between atoms: O1_2  and  C2_3 
REMARK    2  A    between atoms: C6_7  and  O2_8 
REMARK    3  A    between atoms: C9_11  and  N1_12 
REMARK    4  A    between atoms: N1_12  and  C10_13 
REMARK    5  A    between atoms: C13_18  and  O3_19 
REMARK    6  A    between atoms: C15_21  and  O4_22 
REMARK    7  A    between atoms: C17_24  and  O5_25 
ROOT
HETATM    1  C10 UNL     1      23.897   2.759  50.192  1.00  0.00     0.142 A 
HETATM    2  N2  UNL     1      23.077   3.416  49.380  1.00  0.00    -0.224 NA
HETATM    3  C11 UNL     1      21.732   3.363  49.618  1.00  0.00     0.236 A 
HETATM    4  N3  UNL     1      21.280   2.644  50.667  1.00  0.00    -0.238 NA
HETATM    5  C12 UNL     1      22.134   1.975  51.491  1.00  0.00     0.108 A 
HETATM    6  C13 UNL     1      21.603   1.248  52.561  1.00  0.00     0.134 A 
HETATM    7  C15 UNL     1      22.472   0.560  53.409  1.00  0.00     0.137 A 
HETATM    8  C17 UNL     1      23.822   0.631  53.149  1.00  0.00     0.105 A 
HETATM    9  C19 UNL     1      24.358   1.344  52.097  1.00  0.00     0.057 A 
HETATM   10  C20 UNL     1      23.497   2.010  51.277  1.00  0.00     0.044 A 
ENDROOT
BRANCH   1  11
HETATM   11  N1  UNL     1      25.281   2.863  49.880  1.00  0.00    -0.344 N 
HETATM   12  H13 UNL     1      26.026   2.152  49.717  1.00  0.00     0.167 HD
BRANCH  11  13
HETATM   13  C9  UNL     1      25.881   4.157  49.737  1.00  0.00     0.016 C 
HETATM   14  C8  UNL     1      25.290   5.349  50.436  1.00  0.00     0.096 C 
HETATM   15  C6  UNL     1      24.956   6.485  49.558  1.00  0.00     0.073 A 
HETATM   16  C4  UNL     1      25.970   7.195  48.824  1.00  0.00     0.049 A 
HETATM   17  C5  UNL     1      25.546   7.819  50.082  1.00  0.00     0.050 A 
HETATM   18  C3  UNL     1      27.274   6.593  48.581  1.00  0.00     0.018 C 
HETATM   19  C2  UNL     1      27.823   5.366  48.600  1.00  0.00     0.066 C 
HETATM   20  C21 UNL     1      26.975   4.204  48.953  1.00  0.00     0.061 C 
BRANCH  15  21
HETATM   21  O2  UNL     1      23.602   6.596  49.244  1.00  0.00    -0.384 OA
HETATM   22  C7  UNL     1      23.354   6.524  47.892  1.00  0.00     0.202 C 
ENDBRANCH  15  21
BRANCH  19  23
HETATM   23  O1  UNL     1      29.153   5.107  48.306  1.00  0.00    -0.356 OA
HETATM   24  C1  UNL     1      30.009   6.230  48.236  1.00  0.00     0.210 C 
ENDBRANCH  19  23
ENDBRANCH  11  13
ENDBRANCH   1  11
BRANCH   6  25
HETATM   25  O3  UNL     1      20.239   1.186  52.812  1.00  0.00    -0.351 OA
HETATM   26  C14 UNL     1      19.404   0.231  52.176  1.00  0.00     0.210 C 
ENDBRANCH   6  25
BRANCH   8  27
HETATM   27  O5  UNL     1      24.681  -0.057  53.999  1.00  0.00    -0.353 OA
HETATM   28  C18 UNL     1      26.074  -0.128  53.710  1.00  0.00     0.210 C 
ENDBRANCH   8  27
BRANCH   7  29
HETATM   29  O4  UNL     1      21.919  -0.151  54.461  1.00  0.00    -0.351 OA
HETATM   30  C16 UNL     1      21.740  -1.549  54.352  1.00  0.00     0.210 C 
ENDBRANCH   7  29
TORSDOF 7
ENDMDL
MODEL 6
REMARK VINA RESULT:      -6.5      2.543      7.566
REMARK  7 active torsions:
REMARK  status: ('A' for Active; 'I' for Inactive)
REMARK    1  A    between atoms: O1_2  and  C2_3 
REMARK    2  A    between atoms: C6_7  and  O2_8 
REMARK    3  A    between atoms: C9_11  and  N1_12 
REMARK    4  A    between atoms: N1_12  and  C10_13 
REMARK    5  A    between atoms: C13_18  and  O3_19 
REMARK    6  A    between atoms: C15_21  and  O4_22 
REMARK    7  A    between atoms: C17_24  and  O5_25 
ROOT
HETATM    1  C10 UNL     1      23.161   3.167  51.259  1.00  0.00     0.142 A 
HETATM    2  N2  UNL     1      23.429   3.722  52.435  1.00  0.00    -0.224 NA
HETATM    3  C11 UNL     1      22.933   4.966  52.705  1.00  0.00     0.236 A 
HETATM    4  N3  UNL     1      22.190   5.593  51.768  1.00  0.00    -0.238 NA
HETATM    5  C12 UNL     1      21.925   5.011  50.566  1.00  0.00     0.108 A 
HETATM    6  C13 UNL     1      21.149   5.712  49.638  1.00  0.00     0.134 A 
HETATM    7  C15 UNL     1      20.873   5.123  48.403  1.00  0.00     0.137 A 
HETATM    8  C17 UNL     1      21.382   3.868  48.157  1.00  0.00     0.105 A 
HETATM    9  C19 UNL     1      22.149   3.166  49.064  1.00  0.00     0.057 A 
HETATM   10  C20 UNL     1      22.410   3.755  50.264  1.00  0.00     0.044 A 
ENDROOT
BRANCH   1  11
HETATM   11  N1  UNL     1      23.711   1.871  51.053  1.00  0.00    -0.344 N 
HETATM   12  H13 UNL     1      24.312   1.468  50.302  1.00  0.00     0.167 HD
BRANCH  11  13
HETATM   13  C9  UNL     1      23.451   0.831  52.004  1.00  0.00     0.016 C 
HETATM   14  C8  UNL     1      22.082   0.218  52.104  1.00  0.00     0.096 C 
HETATM   15  C6  UNL     1      21.479   0.256  53.448  1.00  0.00     0.073 A 
HETATM   16  C4  UNL     1      22.067  -0.442  54.560  1.00  0.00     0.049 A 
HETATM   17  C5  UNL     1      20.959  -1.134  53.894  1.00  0.00     0.050 A 
HETATM   18  C3  UNL     1      23.462  -0.859  54.525  1.00  0.00     0.018 C 
HETATM   19  C2  UNL     1      24.573  -0.559  53.830  1.00  0.00     0.066 C 
HETATM   20  C21 UNL     1      24.501   0.468  52.766  1.00  0.00     0.061 C 
BRANCH  15  21
HETATM   21  O2  UNL     1      20.523   1.257  53.626  1.00  0.00    -0.384 OA
HETATM   22  C7  UNL     1      20.056   1.773  52.439  1.00  0.00     0.202 C 
ENDBRANCH  15  21
BRANCH  19  23
HETATM   23  O1  UNL     1      25.807  -1.157  54.044  1.00  0.00    -0.356 OA
HETATM   24  C1  UNL     1      26.714  -1.128  52.960  1.00  0.00     0.210 C 
ENDBRANCH  19  23
ENDBRANCH  11  13
ENDBRANCH   1  11
BRANCH   6  25
HETATM   25  O3  UNL     1      20.640   6.978  49.900  1.00  0.00    -0.351 OA
HETATM   26  C14 UNL     1      21.377   8.155  49.608  1.00  0.00     0.210 C 
ENDBRANCH   6  25
BRANCH   8  27
HETATM   27  O5  UNL     1      21.102   3.288  46.924  1.00  0.00    -0.353 OA
HETATM   28  C18 UNL     1      21.883   3.620  45.780  1.00  0.00     0.210 C 
ENDBRANCH   8  27
BRANCH   7  29
HETATM   29  O4  UNL     1      20.102   5.839  47.504  1.00  0.00    -0.351 OA
HETATM   30  C16 UNL     1      18.702   5.642  47.459  1.00  0.00     0.210 C 
ENDBRANCH   7  29
TORSDOF 7
ENDMDL
MODEL 7
REMARK VINA RESULT:      -6.5      2.368      3.185
REMARK  7 active torsions:
REMARK  status: ('A' for Active; 'I' for Inactive)
REMARK    1  A    between atoms: O1_2  and  C2_3 
REMARK    2  A    between atoms: C6_7  and  O2_8 
REMARK    3  A    between atoms: C9_11  and  N1_12 
REMARK    4  A    between atoms: N1_12  and  C10_13 
REMARK    5  A    between atoms: C13_18  and  O3_19 
REMARK    6  A    between atoms: C15_21  and  O4_22 
REMARK    7  A    between atoms: C17_24  and  O5_25 
ROOT
HETATM    1  C10 UNL     1      21.478   2.896  52.220  1.00  0.00     0.142 A 
HETATM    2  N2  UNL     1      20.232   2.457  52.356  1.00  0.00    -0.224 NA
HETATM    3  C11 UNL     1      20.026   1.208  52.870  1.00  0.00     0.236 A 
HETATM    4  N3  UNL     1      21.094   0.459  53.220  1.00  0.00    -0.238 NA
HETATM    5  C12 UNL     1      22.366   0.923  53.073  1.00  0.00     0.108 A 
HETATM    6  C13 UNL     1      23.429   0.098  53.454  1.00  0.00     0.134 A 
HETATM    7  C15 UNL     1      24.736   0.566  53.306  1.00  0.00     0.137 A 
HETATM    8  C17 UNL     1      24.915   1.829  52.788  1.00  0.00     0.105 A 
HETATM    9  C19 UNL     1      23.876   2.652  52.408  1.00  0.00     0.057 A 
HETATM   10  C20 UNL     1      22.606   2.180  52.558  1.00  0.00     0.044 A 
ENDROOT
BRANCH   1  11
HETATM   11  N1  UNL     1      21.611   4.205  51.679  1.00  0.00    -0.344 N 
HETATM   12  H13 UNL     1      21.725   5.144  52.116  1.00  0.00     0.167 HD
BRANCH  11  13
HETATM   13  C9  UNL     1      21.599   4.389  50.257  1.00  0.00     0.016 C 
HETATM   14  C8  UNL     1      20.399   3.981  49.449  1.00  0.00     0.096 C 
HETATM   15  C6  UNL     1      20.679   3.048  48.343  1.00  0.00     0.073 A 
HETATM   16  C4  UNL     1      21.520   3.419  47.237  1.00  0.00     0.049 A 
HETATM   17  C5  UNL     1      20.077   3.536  47.002  1.00  0.00     0.050 A 
HETATM   18  C3  UNL     1      22.447   4.537  47.347  1.00  0.00     0.018 C 
HETATM   19  C2  UNL     1      23.022   5.260  48.323  1.00  0.00     0.066 C 
HETATM   20  C21 UNL     1      22.713   4.939  49.736  1.00  0.00     0.061 C 
BRANCH  15  21
HETATM   21  O2  UNL     1      20.356   1.718  48.613  1.00  0.00    -0.384 OA
HETATM   22  C7  UNL     1      21.431   0.980  49.052  1.00  0.00     0.202 C 
ENDBRANCH  15  21
BRANCH  19  23
HETATM   23  O1  UNL     1      23.903   6.307  48.096  1.00  0.00    -0.356 OA
HETATM   24  C1  UNL     1      24.841   6.572  49.121  1.00  0.00     0.210 C 
ENDBRANCH  19  23
ENDBRANCH  11  13
ENDBRANCH   1  11
BRANCH   6  25
HETATM   25  O3  UNL     1      23.232  -1.174  53.976  1.00  0.00    -0.351 OA
HETATM   26  C14 UNL     1      23.038  -1.391  55.366  1.00  0.00     0.210 C 
ENDBRANCH   6  25
BRANCH   8  27
HETATM   27  O5  UNL     1      26.221   2.287  52.645  1.00  0.00    -0.353 OA
HETATM   28  C18 UNL     1      26.783   2.459  51.347  1.00  0.00     0.210 C 
ENDBRANCH   8  27
BRANCH   7  29
HETATM   29  O4  UNL     1      25.768  -0.271  53.693  1.00  0.00    -0.351 OA
HETATM   30  C16 UNL     1      26.417  -1.082  52.732  1.00  0.00     0.210 C 
ENDBRANCH   7  29
TORSDOF 7
ENDMDL
MODEL 8
REMARK VINA RESULT:      -6.4      6.055      9.248
REMARK  7 active torsions:
REMARK  status: ('A' for Active; 'I' for Inactive)
REMARK    1  A    between atoms: O1_2  and  C2_3 
REMARK    2  A    between atoms: C6_7  and  O2_8 
REMARK    3  A    between atoms: C9_11  and  N1_12 
REMARK    4  A    between atoms: N1_12  and  C10_13 
REMARK    5  A    between atoms: C13_18  and  O3_19 
REMARK    6  A    between atoms: C15_21  and  O4_22 
REMARK    7  A    between atoms: C17_24  and  O5_25 
ROOT
HETATM    1  C10 UNL     1      30.461   6.567  48.744  1.00  0.00     0.142 A 
HETATM    2  N2  UNL     1      30.614   7.734  49.358  1.00  0.00    -0.224 NA
HETATM    3  C11 UNL     1      31.867   8.273  49.445  1.00  0.00     0.236 A 
HETATM    4  N3  UNL     1      32.908   7.602  48.908  1.00  0.00    -0.238 NA
HETATM    5  C12 UNL     1      32.735   6.406  48.282  1.00  0.00     0.108 A 
HETATM    6  C13 UNL     1      33.854   5.761  47.746  1.00  0.00     0.134 A 
HETATM    7  C15 UNL     1      33.684   4.533  47.103  1.00  0.00     0.137 A 
HETATM    8  C17 UNL     1      32.412   4.013  47.027  1.00  0.00     0.105 A 
HETATM    9  C19 UNL     1      31.300   4.639  47.552  1.00  0.00     0.057 A 
HETATM   10  C20 UNL     1      31.482   5.836  48.176  1.00  0.00     0.044 A 
ENDROOT
BRANCH   1  11
HETATM   11  N1  UNL     1      29.129   6.071  48.693  1.00  0.00    -0.344 N 
HETATM   12  H13 UNL     1      28.663   5.244  49.124  1.00  0.00     0.167 HD
BRANCH  11  13
HETATM   13  C9  UNL     1      28.141   6.770  47.923  1.00  0.00     0.016 C 
HETATM   14  C8  UNL     1      28.546   7.571  46.717  1.00  0.00     0.096 C 
HETATM   15  C6  UNL     1      28.117   8.981  46.733  1.00  0.00     0.073 A 
HETATM   16  C4  UNL     1      26.726   9.347  46.730  1.00  0.00     0.049 A 
HETATM   17  C5  UNL     1      27.392   9.384  45.424  1.00  0.00     0.050 A 
HETATM   18  C3  UNL     1      25.702   8.389  47.125  1.00  0.00     0.018 C 
HETATM   19  C2  UNL     1      25.632   7.230  47.802  1.00  0.00     0.066 C 
HETATM   20  C21 UNL     1      26.873   6.646  48.360  1.00  0.00     0.061 C 
BRANCH  15  21
HETATM   21  O2  UNL     1      29.119   9.887  47.081  1.00  0.00    -0.384 OA
HETATM   22  C7  UNL     1      28.858  10.556  48.254  1.00  0.00     0.202 C 
ENDBRANCH  15  21
BRANCH  19  23
HETATM   23  O1  UNL     1      24.455   6.529  48.020  1.00  0.00    -0.356 OA
HETATM   24  C1  UNL     1      24.365   5.819  49.239  1.00  0.00     0.210 C 
ENDBRANCH  19  23
ENDBRANCH  11  13
ENDBRANCH   1  11
BRANCH   6  25
HETATM   25  O3  UNL     1      35.132   6.298  47.829  1.00  0.00    -0.351 OA
HETATM   26  C14 UNL     1      35.938   6.134  48.986  1.00  0.00     0.210 C 
ENDBRANCH   6  25
BRANCH   8  27
HETATM   27  O5  UNL     1      32.252   2.790  46.384  1.00  0.00    -0.353 OA
HETATM   28  C18 UNL     1      32.540   1.575  47.071  1.00  0.00     0.210 C 
ENDBRANCH   8  27
BRANCH   7  29
HETATM   29  O4  UNL     1      34.809   3.918  46.581  1.00  0.00    -0.351 OA
HETATM   30  C16 UNL     1      35.091   4.017  45.198  1.00  0.00     0.210 C 
ENDBRANCH   7  29
TORSDOF 7
ENDMDL
MODEL 9
REMARK VINA RESULT:      -6.4      1.110      2.813
REMARK  7 active torsions:
REMARK  status: ('A' for Active; 'I' for Inactive)
REMARK    1  A    between atoms: O1_2  and  C2_3 
REMARK    2  A    between atoms: C6_7  and  O2_8 
REMARK    3  A    between atoms: C9_11  and  N1_12 
REMARK    4  A    between atoms: N1_12  and  C10_13 
REMARK    5  A    between atoms: C13_18  and  O3_19 
REMARK    6  A    between atoms: C15_21  and  O4_22 
REMARK    7  A    between atoms: C17_24  and  O5_25 
ROOT
HETATM    1  C10 UNL     1      23.485   3.764  52.277  1.00  0.00     0.142 A 
HETATM    2  N2  UNL     1      22.163   3.842  52.188  1.00  0.00    -0.224 NA
HETATM    3  C11 UNL     1      21.419   2.719  52.418  1.00  0.00     0.236 A 
HETATM    4  N3  UNL     1      22.051   1.567  52.726  1.00  0.00    -0.238 NA
HETATM    5  C12 UNL     1      23.408   1.502  52.814  1.00  0.00     0.108 A 
HETATM    6  C13 UNL     1      24.002   0.278  53.137  1.00  0.00     0.134 A 
HETATM    7  C15 UNL     1      25.393   0.204  53.228  1.00  0.00     0.137 A 
HETATM    8  C17 UNL     1      26.119   1.350  52.993  1.00  0.00     0.105 A 
HETATM    9  C19 UNL     1      25.545   2.563  52.673  1.00  0.00     0.057 A 
HETATM   10  C20 UNL     1      24.186   2.619  52.588  1.00  0.00     0.044 A 
ENDROOT
BRANCH   1  11
HETATM   11  N1  UNL     1      24.190   4.974  52.024  1.00  0.00    -0.344 N 
HETATM   12  H13 UNL     1      24.982   5.447  52.509  1.00  0.00     0.167 HD
BRANCH  11  13
HETATM   13  C9  UNL     1      23.820   5.789  50.904  1.00  0.00     0.016 C 
HETATM   14  C8  UNL     1      24.614   5.732  49.629  1.00  0.00     0.096 C 
HETATM   15  C6  UNL     1      25.130   7.029  49.157  1.00  0.00     0.073 A 
HETATM   16  C4  UNL     1      24.246   8.096  48.767  1.00  0.00     0.049 A 
HETATM   17  C5  UNL     1      24.783   7.287  47.669  1.00  0.00     0.050 A 
HETATM   18  C3  UNL     1      22.856   8.108  49.201  1.00  0.00     0.018 C 
HETATM   19  C2  UNL     1      22.105   7.524  50.151  1.00  0.00     0.066 C 
HETATM   20  C21 UNL     1      22.742   6.574  51.091  1.00  0.00     0.061 C 
BRANCH  15  21
HETATM   21  O2  UNL     1      26.480   7.249  49.429  1.00  0.00    -0.384 OA
HETATM   22  C7  UNL     1      26.704   8.401  50.148  1.00  0.00     0.202 C 
ENDBRANCH  15  21
BRANCH  19  23
HETATM   23  O1  UNL     1      20.746   7.754  50.315  1.00  0.00    -0.356 OA
HETATM   24  C1  UNL     1      20.224   8.903  49.677  1.00  0.00     0.210 C 
ENDBRANCH  19  23
ENDBRANCH  11  13
ENDBRANCH   1  11
BRANCH   6  25
HETATM   25  O3  UNL     1      23.257  -0.870  53.372  1.00  0.00    -0.351 OA
HETATM   26  C14 UNL     1      22.686  -1.145  54.642  1.00  0.00     0.210 C 
ENDBRANCH   6  25
BRANCH   8  27
HETATM   27  O5  UNL     1      27.504   1.267  53.086  1.00  0.00    -0.353 OA
HETATM   28  C18 UNL     1      28.268   2.405  53.477  1.00  0.00     0.210 C 
ENDBRANCH   8  27
BRANCH   7  29
HETATM   29  O4  UNL     1      25.954  -1.020  53.551  1.00  0.00    -0.351 OA
HETATM   30  C16 UNL     1      26.619  -1.776  52.557  1.00  0.00     0.210 C 
ENDBRANCH   7  29
TORSDOF 7
ENDMDL
