MODEL 1
REMARK VINA RESULT:      -8.0      0.000      0.000
REMARK  3 active torsions:
REMARK  status: ('A' for Active; 'I' for Inactive)
REMARK    1  A    between atoms: O1_2  and  C2_3 
REMARK    2  A    between atoms: C6_7  and  N1_8 
REMARK    3  A    between atoms: N1_8  and  C7_9 
ROOT
HETATM    1  C2  UNL     1      19.780  -0.746  53.376  1.00  0.00     0.070 A 
HETATM    2  C3  UNL     1      20.388  -0.041  52.368  1.00  0.00     0.038 A 
HETATM    3  C4  UNL     1      21.760   0.202  52.323  1.00  0.00     0.019 A 
HETATM    4  C5  UNL     1      22.503  -0.323  53.381  1.00  0.00     0.021 A 
HETATM    5  C6  UNL     1      23.874  -0.075  53.324  1.00  0.00     0.067 A 
HETATM    6  C13 UNL     1      24.595  -0.611  54.396  1.00  0.00     0.089 A 
HETATM    7  C14 UNL     1      26.007  -0.381  54.381  1.00  0.00     0.103 C 
HETATM    8  N2  UNL     1      27.140  -0.187  54.386  1.00  0.00    -0.191 NA
HETATM    9  C15 UNL     1      23.963  -1.326  55.414  1.00  0.00     0.142 A 
HETATM   10  N3  UNL     1      22.650  -1.506  55.373  1.00  0.00    -0.259 NA
HETATM   11  C16 UNL     1      21.884  -1.032  54.391  1.00  0.00     0.071 A 
HETATM   12  C17 UNL     1      20.532  -1.254  54.411  1.00  0.00     0.069 A 
ENDROOT
BRANCH   5  13
HETATM   13  N1  UNL     1      24.477   0.657  52.273  1.00  0.00    -0.354 N 
HETATM   14  H6  UNL     1      25.132   0.115  51.667  1.00  0.00     0.166 HD
BRANCH  13  15
HETATM   15  C7  UNL     1      24.214   2.024  52.059  1.00  0.00     0.033 A 
HETATM   16  C8  UNL     1      24.208   2.877  53.158  1.00  0.00     0.029 A 
HETATM   17  C9  UNL     1      23.949   4.231  52.964  1.00  0.00     0.004 A 
HETATM   18  C10 UNL     1      23.707   4.687  51.688  1.00  0.00     0.019 A 
HETATM   19  C11 UNL     1      23.715   3.832  50.603  1.00  0.00     0.013 A 
HETATM   20 BR1  UNL     1      23.391   4.371  48.802  1.00  0.00    -0.051 Br
HETATM   21  C12 UNL     1      23.971   2.486  50.784  1.00  0.00     0.048 A 
ENDBRANCH  13  15
ENDBRANCH   5  13
BRANCH   1  22
HETATM   22  O1  UNL     1      18.386  -0.937  53.333  1.00  0.00    -0.356 OA
HETATM   23  C1  UNL     1      17.819  -2.219  53.504  1.00  0.00     0.210 C 
ENDBRANCH   1  22
TORSDOF 3
ENDMDL
MODEL 2
REMARK VINA RESULT:      -7.9      3.039      5.246
REMARK  3 active torsions:
REMARK  status: ('A' for Active; 'I' for Inactive)
REMARK    1  A    between atoms: O1_2  and  C2_3 
REMARK    2  A    between atoms: C6_7  and  N1_8 
REMARK    3  A    between atoms: N1_8  and  C7_9 
ROOT
HETATM    1  C2  UNL     1      27.691   0.561  53.455  1.00  0.00     0.070 A 
HETATM    2  C3  UNL     1      26.874   0.900  52.407  1.00  0.00     0.038 A 
HETATM    3  C4  UNL     1      25.510   0.610  52.373  1.00  0.00     0.019 A 
HETATM    4  C5  UNL     1      25.006  -0.058  53.490  1.00  0.00     0.021 A 
HETATM    5  C6  UNL     1      23.641  -0.342  53.445  1.00  0.00     0.067 A 
HETATM    6  C13 UNL     1      23.162  -1.013  54.574  1.00  0.00     0.089 A 
HETATM    7  C14 UNL     1      21.765  -1.325  54.573  1.00  0.00     0.103 C 
HETATM    8  N2  UNL     1      20.648  -1.596  54.575  1.00  0.00    -0.191 NA
HETATM    9  C15 UNL     1      24.004  -1.351  55.634  1.00  0.00     0.142 A 
HETATM   10  N3  UNL     1      25.291  -1.034  55.577  1.00  0.00    -0.259 NA
HETATM   11  C16 UNL     1      25.835  -0.396  54.540  1.00  0.00     0.071 A 
HETATM   12  C17 UNL     1      27.173  -0.099  54.546  1.00  0.00     0.069 A 
ENDROOT
BRANCH   5  13
HETATM   13  N1  UNL     1      22.819   0.018  52.350  1.00  0.00    -0.354 N 
HETATM   14  H6  UNL     1      22.763  -0.685  51.581  1.00  0.00     0.166 HD
BRANCH  13  15
HETATM   15  C7  UNL     1      22.124   1.242  52.301  1.00  0.00     0.033 A 
HETATM   16  C8  UNL     1      20.735   1.217  52.377  1.00  0.00     0.029 A 
HETATM   17  C9  UNL     1      20.032   2.418  52.329  1.00  0.00     0.004 A 
HETATM   18  C10 UNL     1      20.732   3.596  52.207  1.00  0.00     0.019 A 
HETATM   19  C11 UNL     1      22.111   3.610  52.131  1.00  0.00     0.013 A 
HETATM   20 BR1  UNL     1      23.167   5.190  51.960  1.00  0.00    -0.051 Br
HETATM   21  C12 UNL     1      22.819   2.424  52.178  1.00  0.00     0.048 A 
ENDBRANCH  13  15
ENDBRANCH   5  13
BRANCH   1  22
HETATM   22  O1  UNL     1      29.057   0.897  53.395  1.00  0.00    -0.356 OA
HETATM   23  C1  UNL     1      30.059  -0.093  53.502  1.00  0.00     0.210 C 
ENDBRANCH   1  22
TORSDOF 3
ENDMDL
MODEL 3
REMARK VINA RESULT:      -7.9      2.759      4.810
REMARK  3 active torsions:
REMARK  status: ('A' for Active; 'I' for Inactive)
REMARK    1  A    between atoms: O1_2  and  C2_3 
REMARK    2  A    between atoms: C6_7  and  N1_8 
REMARK    3  A    between atoms: N1_8  and  C7_9 
ROOT
HETATM    1  C2  UNL     1      26.479  -0.133  54.204  1.00  0.00     0.070 A 
HETATM    2  C3  UNL     1      26.570   0.700  53.117  1.00  0.00     0.038 A 
HETATM    3  C4  UNL     1      25.478   1.042  52.320  1.00  0.00     0.019 A 
HETATM    4  C5  UNL     1      24.256   0.483  52.695  1.00  0.00     0.021 A 
HETATM    5  C6  UNL     1      23.172   0.834  51.890  1.00  0.00     0.067 A 
HETATM    6  C13 UNL     1      21.960   0.259  52.287  1.00  0.00     0.089 A 
HETATM    7  C14 UNL     1      20.818   0.591  51.491  1.00  0.00     0.103 C 
HETATM    8  N2  UNL     1      19.898   0.838  50.848  1.00  0.00    -0.191 NA
HETATM    9  C15 UNL     1      21.881  -0.585  53.395  1.00  0.00     0.142 A 
HETATM   10  N3  UNL     1      22.975  -0.856  54.094  1.00  0.00    -0.259 NA
HETATM   11  C16 UNL     1      24.172  -0.353  53.789  1.00  0.00     0.071 A 
HETATM   12  C17 UNL     1      25.263  -0.674  54.554  1.00  0.00     0.069 A 
ENDROOT
BRANCH   5  13
HETATM   13  N1  UNL     1      23.293   1.694  50.773  1.00  0.00    -0.354 N 
HETATM   14  H6  UNL     1      23.194   1.236  49.841  1.00  0.00     0.166 HD
BRANCH  13  15
HETATM   15  C7  UNL     1      23.531   3.076  50.908  1.00  0.00     0.033 A 
HETATM   16  C8  UNL     1      22.820   3.778  51.876  1.00  0.00     0.029 A 
HETATM   17  C9  UNL     1      23.042   5.144  52.023  1.00  0.00     0.004 A 
HETATM   18  C10 UNL     1      23.960   5.762  51.205  1.00  0.00     0.019 A 
HETATM   19  C11 UNL     1      24.661   5.056  50.246  1.00  0.00     0.013 A 
HETATM   20 BR1  UNL     1      25.950   5.824  49.068  1.00  0.00    -0.051 Br
HETATM   21  C12 UNL     1      24.448   3.699  50.092  1.00  0.00     0.048 A 
ENDBRANCH  13  15
ENDBRANCH   5  13
BRANCH   1  22
HETATM   22  O1  UNL     1      27.640  -0.420  54.946  1.00  0.00    -0.356 OA
HETATM   23  C1  UNL     1      28.877   0.185  54.630  1.00  0.00     0.210 C 
ENDBRANCH   1  22
TORSDOF 3
ENDMDL
MODEL 4
REMARK VINA RESULT:      -7.8      3.147      5.349
REMARK  3 active torsions:
REMARK  status: ('A' for Active; 'I' for Inactive)
REMARK    1  A    between atoms: O1_2  and  C2_3 
REMARK    2  A    between atoms: C6_7  and  N1_8 
REMARK    3  A    between atoms: N1_8  and  C7_9 
ROOT
HETATM    1  C2  UNL     1      27.269  -0.144  53.878  1.00  0.00     0.070 A 
HETATM    2  C3  UNL     1      27.403   1.215  53.747  1.00  0.00     0.038 A 
HETATM    3  C4  UNL     1      26.343   2.062  53.425  1.00  0.00     0.019 A 
HETATM    4  C5  UNL     1      25.107   1.441  53.243  1.00  0.00     0.021 A 
HETATM    5  C6  UNL     1      24.054   2.299  52.923  1.00  0.00     0.067 A 
HETATM    6  C13 UNL     1      22.827   1.652  52.744  1.00  0.00     0.089 A 
HETATM    7  C14 UNL     1      21.716   2.492  52.414  1.00  0.00     0.103 C 
HETATM    8  N2  UNL     1      20.822   3.157  52.133  1.00  0.00    -0.191 NA
HETATM    9  C15 UNL     1      22.705   0.269  52.882  1.00  0.00     0.142 A 
HETATM   10  N3  UNL     1      23.771  -0.457  53.188  1.00  0.00    -0.259 NA
HETATM   11  C16 UNL     1      24.980   0.074  53.377  1.00  0.00     0.071 A 
HETATM   12  C17 UNL     1      26.040  -0.735  53.692  1.00  0.00     0.069 A 
ENDROOT
BRANCH   5  13
HETATM   13  N1  UNL     1      24.218   3.699  52.792  1.00  0.00    -0.354 N 
HETATM   14  H6  UNL     1      24.315   4.225  53.688  1.00  0.00     0.166 HD
BRANCH  13  15
HETATM   15  C7  UNL     1      24.250   4.339  51.538  1.00  0.00     0.033 A 
HETATM   16  C8  UNL     1      24.912   3.710  50.489  1.00  0.00     0.029 A 
HETATM   17  C9  UNL     1      24.954   4.329  49.244  1.00  0.00     0.004 A 
HETATM   18  C10 UNL     1      24.336   5.549  49.085  1.00  0.00     0.019 A 
HETATM   19  C11 UNL     1      23.681   6.167  50.132  1.00  0.00     0.013 A 
HETATM   20 BR1  UNL     1      22.799   7.853  50.009  1.00  0.00    -0.051 Br
HETATM   21  C12 UNL     1      23.634   5.561  51.373  1.00  0.00     0.048 A 
ENDBRANCH  13  15
ENDBRANCH   5  13
BRANCH   1  22
HETATM   22  O1  UNL     1      28.401  -0.915  54.204  1.00  0.00    -0.356 OA
HETATM   23  C1  UNL     1      29.678  -0.589  53.696  1.00  0.00     0.210 C 
ENDBRANCH   1  22
TORSDOF 3
ENDMDL
MODEL 5
REMARK VINA RESULT:      -7.8      3.374      5.936
REMARK  3 active torsions:
REMARK  status: ('A' for Active; 'I' for Inactive)
REMARK    1  A    between atoms: O1_2  and  C2_3 
REMARK    2  A    between atoms: C6_7  and  N1_8 
REMARK    3  A    between atoms: N1_8  and  C7_9 
ROOT
HETATM    1  C2  UNL     1      26.200   2.868  50.630  1.00  0.00     0.070 A 
HETATM    2  C3  UNL     1      24.926   3.339  50.820  1.00  0.00     0.038 A 
HETATM    3  C4  UNL     1      23.984   2.700  51.627  1.00  0.00     0.019 A 
HETATM    4  C5  UNL     1      24.417   1.528  52.248  1.00  0.00     0.021 A 
HETATM    5  C6  UNL     1      23.466   0.898  53.053  1.00  0.00     0.067 A 
HETATM    6  C13 UNL     1      23.924  -0.274  53.662  1.00  0.00     0.089 A 
HETATM    7  C14 UNL     1      22.983  -0.956  54.498  1.00  0.00     0.103 C 
HETATM    8  N2  UNL     1      22.230  -1.519  55.158  1.00  0.00    -0.191 NA
HETATM    9  C15 UNL     1      25.223  -0.742  53.461  1.00  0.00     0.142 A 
HETATM   10  N3  UNL     1      26.050  -0.067  52.674  1.00  0.00    -0.259 NA
HETATM   11  C16 UNL     1      25.700   1.060  52.052  1.00  0.00     0.071 A 
HETATM   12  C17 UNL     1      26.604   1.708  51.252  1.00  0.00     0.069 A 
ENDROOT
BRANCH   5  13
HETATM   13  N1  UNL     1      22.157   1.405  53.232  1.00  0.00    -0.354 N 
HETATM   14  H6  UNL     1      22.050   2.113  53.990  1.00  0.00     0.166 HD
BRANCH  13  15
HETATM   15  C7  UNL     1      21.071   0.982  52.441  1.00  0.00     0.033 A 
HETATM   16  C8  UNL     1      21.052   1.340  51.097  1.00  0.00     0.029 A 
HETATM   17  C9  UNL     1      19.986   0.931  50.301  1.00  0.00     0.004 A 
HETATM   18  C10 UNL     1      18.980   0.184  50.868  1.00  0.00     0.019 A 
HETATM   19  C11 UNL     1      19.007  -0.167  52.203  1.00  0.00     0.013 A 
HETATM   20 BR1  UNL     1      17.660  -1.198  53.076  1.00  0.00    -0.051 Br
HETATM   21  C12 UNL     1      20.060   0.233  53.003  1.00  0.00     0.048 A 
ENDBRANCH  13  15
ENDBRANCH   5  13
BRANCH   1  22
HETATM   22  O1  UNL     1      27.078   3.585  49.795  1.00  0.00    -0.356 OA
HETATM   23  C1  UNL     1      26.656   4.752  49.122  1.00  0.00     0.210 C 
ENDBRANCH   1  22
TORSDOF 3
ENDMDL
MODEL 6
REMARK VINA RESULT:      -7.7      3.260      6.136
REMARK  3 active torsions:
REMARK  status: ('A' for Active; 'I' for Inactive)
REMARK    1  A    between atoms: O1_2  and  C2_3 
REMARK    2  A    between atoms: C6_7  and  N1_8 
REMARK    3  A    between atoms: N1_8  and  C7_9 
ROOT
HETATM    1  C2  UNL     1      27.666  -0.809  53.439  1.00  0.00     0.070 A 
HETATM    2  C3  UNL     1      26.665  -1.408  52.716  1.00  0.00     0.038 A 
HETATM    3  C4  UNL     1      25.480  -0.762  52.367  1.00  0.00     0.019 A 
HETATM    4  C5  UNL     1      25.361   0.560  52.799  1.00  0.00     0.021 A 
HETATM    5  C6  UNL     1      24.172   1.195  52.442  1.00  0.00     0.067 A 
HETATM    6  C13 UNL     1      24.078   2.517  52.888  1.00  0.00     0.089 A 
HETATM    7  C14 UNL     1      22.873   3.211  52.545  1.00  0.00     0.103 C 
HETATM    8  N2  UNL     1      21.903   3.771  52.290  1.00  0.00    -0.191 NA
HETATM    9  C15 UNL     1      25.103   3.114  53.622  1.00  0.00     0.142 A 
HETATM   10  N3  UNL     1      26.196   2.420  53.909  1.00  0.00    -0.259 NA
HETATM   11  C16 UNL     1      26.372   1.155  53.525  1.00  0.00     0.071 A 
HETATM   12  C17 UNL     1      27.526   0.495  53.856  1.00  0.00     0.069 A 
ENDROOT
BRANCH   5  13
HETATM   13  N1  UNL     1      23.154   0.555  51.696  1.00  0.00    -0.354 N 
HETATM   14  H6  UNL     1      23.356   0.425  50.680  1.00  0.00     0.166 HD
BRANCH  13  15
HETATM   15  C7  UNL     1      21.949   0.120  52.283  1.00  0.00     0.033 A 
HETATM   16  C8  UNL     1      22.007  -0.514  53.520  1.00  0.00     0.029 A 
HETATM   17  C9  UNL     1      20.826  -0.950  54.114  1.00  0.00     0.004 A 
HETATM   18  C10 UNL     1      19.634  -0.740  53.459  1.00  0.00     0.019 A 
HETATM   19  C11 UNL     1      19.587  -0.109  52.231  1.00  0.00     0.013 A 
HETATM   20 BR1  UNL     1      17.985   0.225  51.250  1.00  0.00    -0.051 Br
HETATM   21  C12 UNL     1      20.753   0.327  51.633  1.00  0.00     0.048 A 
ENDBRANCH  13  15
ENDBRANCH   5  13
BRANCH   1  22
HETATM   22  O1  UNL     1      28.826  -1.546  53.744  1.00  0.00    -0.356 OA
HETATM   23  C1  UNL     1      30.101  -0.939  53.734  1.00  0.00     0.210 C 
ENDBRANCH   1  22
TORSDOF 3
ENDMDL
MODEL 7
REMARK VINA RESULT:      -7.7      1.519      2.219
REMARK  3 active torsions:
REMARK  status: ('A' for Active; 'I' for Inactive)
REMARK    1  A    between atoms: O1_2  and  C2_3 
REMARK    2  A    between atoms: C6_7  and  N1_8 
REMARK    3  A    between atoms: N1_8  and  C7_9 
ROOT
HETATM    1  C2  UNL     1      22.301  -1.267  54.286  1.00  0.00     0.070 A 
HETATM    2  C3  UNL     1      22.240  -0.529  53.131  1.00  0.00     0.038 A 
HETATM    3  C4  UNL     1      23.302   0.239  52.655  1.00  0.00     0.019 A 
HETATM    4  C5  UNL     1      24.461   0.216  53.432  1.00  0.00     0.021 A 
HETATM    5  C6  UNL     1      25.517   0.987  52.945  1.00  0.00     0.067 A 
HETATM    6  C13 UNL     1      26.665   0.947  53.742  1.00  0.00     0.089 A 
HETATM    7  C14 UNL     1      27.776   1.724  53.282  1.00  0.00     0.103 C 
HETATM    8  N2  UNL     1      28.667   2.357  52.929  1.00  0.00    -0.191 NA
HETATM    9  C15 UNL     1      26.714   0.191  54.913  1.00  0.00     0.142 A 
HETATM   10  N3  UNL     1      25.652  -0.508  55.289  1.00  0.00    -0.259 NA
HETATM   11  C16 UNL     1      24.515  -0.530  54.592  1.00  0.00     0.071 A 
HETATM   12  C17 UNL     1      23.454  -1.274  55.037  1.00  0.00     0.069 A 
ENDROOT
BRANCH   5  13
HETATM   13  N1  UNL     1      25.428   1.741  51.750  1.00  0.00    -0.354 N 
HETATM   14  H6  UNL     1      26.011   1.396  50.957  1.00  0.00     0.166 HD
BRANCH  13  15
HETATM   15  C7  UNL     1      24.608   2.881  51.638  1.00  0.00     0.033 A 
HETATM   16  C8  UNL     1      24.268   3.568  52.799  1.00  0.00     0.029 A 
HETATM   17  C9  UNL     1      23.458   4.696  52.706  1.00  0.00     0.004 A 
HETATM   18  C10 UNL     1      23.016   5.099  51.467  1.00  0.00     0.019 A 
HETATM   19  C11 UNL     1      23.358   4.410  50.320  1.00  0.00     0.013 A 
HETATM   20 BR1  UNL     1      22.795   4.891  48.562  1.00  0.00    -0.051 Br
HETATM   21  C12 UNL     1      24.162   3.289  50.400  1.00  0.00     0.048 A 
ENDBRANCH  13  15
ENDBRANCH   5  13
BRANCH   1  22
HETATM   22  O1  UNL     1      21.173  -2.010  54.684  1.00  0.00    -0.356 OA
HETATM   23  C1  UNL     1      19.903  -1.771  54.116  1.00  0.00     0.210 C 
ENDBRANCH   1  22
TORSDOF 3
ENDMDL
MODEL 8
REMARK VINA RESULT:      -7.5      1.833      2.556
REMARK  3 active torsions:
REMARK  status: ('A' for Active; 'I' for Inactive)
REMARK    1  A    between atoms: O1_2  and  C2_3 
REMARK    2  A    between atoms: C6_7  and  N1_8 
REMARK    3  A    between atoms: N1_8  and  C7_9 
ROOT
HETATM    1  C2  UNL     1      21.247  -0.283  53.379  1.00  0.00     0.070 A 
HETATM    2  C3  UNL     1      21.251   1.075  53.185  1.00  0.00     0.038 A 
HETATM    3  C4  UNL     1      22.416   1.822  53.013  1.00  0.00     0.019 A 
HETATM    4  C5  UNL     1      23.609   1.098  53.046  1.00  0.00     0.021 A 
HETATM    5  C6  UNL     1      24.767   1.856  52.872  1.00  0.00     0.067 A 
HETATM    6  C13 UNL     1      25.947   1.107  52.911  1.00  0.00     0.089 A 
HETATM    7  C14 UNL     1      27.163   1.842  52.736  1.00  0.00     0.103 C 
HETATM    8  N2  UNL     1      28.145   2.426  52.614  1.00  0.00    -0.191 NA
HETATM    9  C15 UNL     1      25.929  -0.274  53.108  1.00  0.00     0.142 A 
HETATM   10  N3  UNL     1      24.771  -0.900  53.264  1.00  0.00    -0.259 NA
HETATM   11  C16 UNL     1      23.597  -0.268  53.242  1.00  0.00     0.071 A 
HETATM   12  C17 UNL     1      22.436  -0.976  53.410  1.00  0.00     0.069 A 
ENDROOT
BRANCH   5  13
HETATM   13  N1  UNL     1      24.744   3.257  52.674  1.00  0.00    -0.354 N 
HETATM   14  H6  UNL     1      25.050   3.830  53.491  1.00  0.00     0.166 HD
BRANCH  13  15
HETATM   15  C7  UNL     1      24.335   3.840  51.459  1.00  0.00     0.033 A 
HETATM   16  C8  UNL     1      24.649   3.186  50.272  1.00  0.00     0.029 A 
HETATM   17  C9  UNL     1      24.254   3.749  49.062  1.00  0.00     0.004 A 
HETATM   18  C10 UNL     1      23.562   4.938  49.075  1.00  0.00     0.019 A 
HETATM   19  C11 UNL     1      23.254   5.580  50.258  1.00  0.00     0.013 A 
HETATM   20 BR1  UNL     1      22.301   7.229  50.376  1.00  0.00    -0.051 Br
HETATM   21  C12 UNL     1      23.642   5.031  51.466  1.00  0.00     0.048 A 
ENDBRANCH  13  15
ENDBRANCH   5  13
BRANCH   1  22
HETATM   22  O1  UNL     1      20.017  -0.947  53.545  1.00  0.00    -0.356 OA
HETATM   23  C1  UNL     1      18.872  -0.557  52.817  1.00  0.00     0.210 C 
ENDBRANCH   1  22
TORSDOF 3
ENDMDL
MODEL 9
REMARK VINA RESULT:      -7.4      4.399      7.300
REMARK  3 active torsions:
REMARK  status: ('A' for Active; 'I' for Inactive)
REMARK    1  A    between atoms: O1_2  and  C2_3 
REMARK    2  A    between atoms: C6_7  and  N1_8 
REMARK    3  A    between atoms: N1_8  and  C7_9 
ROOT
HETATM    1  C2  UNL     1      26.442   5.442  49.052  1.00  0.00     0.070 A 
HETATM    2  C3  UNL     1      27.017   4.199  49.117  1.00  0.00     0.038 A 
HETATM    3  C4  UNL     1      26.503   3.155  49.887  1.00  0.00     0.019 A 
HETATM    4  C5  UNL     1      25.342   3.448  50.603  1.00  0.00     0.021 A 
HETATM    5  C6  UNL     1      24.837   2.396  51.368  1.00  0.00     0.067 A 
HETATM    6  C13 UNL     1      23.674   2.715  52.077  1.00  0.00     0.089 A 
HETATM    7  C14 UNL     1      23.119   1.667  52.877  1.00  0.00     0.103 C 
HETATM    8  N2  UNL     1      22.674   0.836  53.535  1.00  0.00    -0.191 NA
HETATM    9  C15 UNL     1      23.099   3.984  52.000  1.00  0.00     0.142 A 
HETATM   10  N3  UNL     1      23.660   4.916  51.242  1.00  0.00    -0.259 NA
HETATM   11  C16 UNL     1      24.768   4.701  50.532  1.00  0.00     0.071 A 
HETATM   12  C17 UNL     1      25.297   5.708  49.768  1.00  0.00     0.069 A 
ENDROOT
BRANCH   5  13
HETATM   13  N1  UNL     1      25.451   1.122  51.420  1.00  0.00    -0.354 N 
HETATM   14  H6  UNL     1      25.048   0.404  50.779  1.00  0.00     0.166 HD
BRANCH  13  15
HETATM   15  C7  UNL     1      26.532   0.841  52.278  1.00  0.00     0.033 A 
HETATM   16  C8  UNL     1      27.017   1.862  53.088  1.00  0.00     0.029 A 
HETATM   17  C9  UNL     1      28.085   1.602  53.942  1.00  0.00     0.004 A 
HETATM   18  C10 UNL     1      28.631   0.339  53.960  1.00  0.00     0.019 A 
HETATM   19  C11 UNL     1      28.142  -0.670  53.152  1.00  0.00     0.013 A 
HETATM   20 BR1  UNL     1      28.832  -2.447  53.108  1.00  0.00    -0.051 Br
HETATM   21  C12 UNL     1      27.082  -0.422  52.301  1.00  0.00     0.048 A 
ENDBRANCH  13  15
ENDBRANCH   5  13
BRANCH   1  22
HETATM   22  O1  UNL     1      27.037   6.431  48.246  1.00  0.00    -0.356 OA
HETATM   23  C1  UNL     1      27.225   7.747  48.723  1.00  0.00     0.210 C 
ENDBRANCH   1  22
TORSDOF 3
ENDMDL
