MODEL 1
REMARK VINA RESULT:      -8.2      0.000      0.000
REMARK  5 active torsions:
REMARK  status: ('A' for Active; 'I' for Inactive)
REMARK    1  A    between atoms: C2_2  and  S1_3 
REMARK    2  A    between atoms: S1_3  and  N1_6 
REMARK    3  A    between atoms: N4_16  and  C10_17 
REMARK    4  A    between atoms: C10_17  and  O3_18 
REMARK    5  A    between atoms: C10_17  and  C11_19 
ROOT
HETATM    1  N1  UNL     1      20.511   0.639  51.752  1.00  0.00    -0.208 NA
HETATM    2  C3  UNL     1      20.901   1.521  52.838  1.00  0.00     0.116 C 
HETATM    3  C4  UNL     1      22.424   1.411  52.908  1.00  0.00     0.028 C 
HETATM    4  C5  UNL     1      22.651  -0.105  52.904  1.00  0.00     0.016 C 
HETATM    5  C6  UNL     1      22.993   2.023  51.681  1.00  0.00    -0.028 C 
HETATM    6  C7  UNL     1      24.197   2.322  51.315  1.00  0.00     0.095 A 
HETATM    7  C8  UNL     1      24.356   2.910  49.995  1.00  0.00     0.124 A 
HETATM    8  N2  UNL     1      25.490   3.319  49.538  1.00  0.00    -0.231 NA
HETATM    9  C9  UNL     1      26.695   3.216  50.312  1.00  0.00     0.256 A 
HETATM   10  N3  UNL     1      26.593   2.697  51.484  1.00  0.00    -0.162 NA
HETATM   11  N4  UNL     1      25.411   2.237  52.046  1.00  0.00    -0.232 N 
HETATM   12  S2  UNL     1      22.731   2.825  49.258  1.00  0.00    -0.097 SA
HETATM   13  C17 UNL     1      21.874   2.423  50.797  1.00  0.00     0.100 C 
HETATM   14  C18 UNL     1      20.896   1.333  50.535  1.00  0.00     0.127 C 
ENDROOT
BRANCH  11  15
HETATM   15  C10 UNL     1      25.649   1.747  53.351  1.00  0.00     0.277 C 
BRANCH  15  16
HETATM   16  O3  UNL     1      26.475   2.675  54.031  1.00  0.00    -0.371 OA
HETATM   17  H12 UNL     1      26.071   3.041  54.831  1.00  0.00     0.212 HD
ENDBRANCH  15  16
BRANCH  15  18
HETATM   18  C11 UNL     1      26.561   0.540  53.225  1.00  0.00    -0.008 A 
HETATM   19  C12 UNL     1      26.203  -0.645  52.614  1.00  0.00     0.011 A 
HETATM   20  C13 UNL     1      27.117  -1.677  52.558  1.00  0.00     0.001 A 
HETATM   21  C14 UNL     1      28.370  -1.530  53.103  1.00  0.00     0.000 A 
HETATM   22  C15 UNL     1      28.693  -0.333  53.704  1.00  0.00     0.001 A 
HETATM   23  C16 UNL     1      27.825   0.723  53.787  1.00  0.00     0.011 A 
ENDBRANCH  15  18
ENDBRANCH  11  15
BRANCH   1  24
HETATM   24  S1  UNL     1      18.828   0.287  51.791  1.00  0.00     0.217 S 
HETATM   25  O1  UNL     1      18.072   1.569  51.993  1.00  0.00    -0.211 OA
HETATM   26  O2  UNL     1      18.415  -0.233  50.443  1.00  0.00    -0.211 OA
BRANCH  24  27
HETATM   27  C2  UNL     1      18.445  -0.888  53.026  1.00  0.00     0.144 C 
HETATM   28  C1  UNL     1      17.210  -1.375  52.996  1.00  0.00     0.024 C 
ENDBRANCH  24  27
ENDBRANCH   1  24
TORSDOF 5
ENDMDL
MODEL 2
REMARK VINA RESULT:      -8.0      2.598      7.270
REMARK  5 active torsions:
REMARK  status: ('A' for Active; 'I' for Inactive)
REMARK    1  A    between atoms: C2_2  and  S1_3 
REMARK    2  A    between atoms: S1_3  and  N1_6 
REMARK    3  A    between atoms: N4_16  and  C10_17 
REMARK    4  A    between atoms: C10_17  and  O3_18 
REMARK    5  A    between atoms: C10_17  and  C11_19 
ROOT
HETATM    1  N1  UNL     1      26.322   0.960  52.939  1.00  0.00    -0.208 NA
HETATM    2  C3  UNL     1      25.746   2.176  53.487  1.00  0.00     0.116 C 
HETATM    3  C4  UNL     1      24.573   2.506  52.565  1.00  0.00     0.028 C 
HETATM    4  C5  UNL     1      25.202   2.401  51.172  1.00  0.00     0.016 C 
HETATM    5  C6  UNL     1      23.532   1.462  52.743  1.00  0.00    -0.028 C 
HETATM    6  C7  UNL     1      22.312   1.346  52.329  1.00  0.00     0.095 A 
HETATM    7  C8  UNL     1      21.601   0.137  52.708  1.00  0.00     0.124 A 
HETATM    8  N2  UNL     1      20.361  -0.070  52.423  1.00  0.00    -0.231 NA
HETATM    9  C9  UNL     1      19.585   0.894  51.695  1.00  0.00     0.256 A 
HETATM   10  N3  UNL     1      20.182   1.975  51.339  1.00  0.00    -0.162 NA
HETATM   11  N4  UNL     1      21.510   2.271  51.610  1.00  0.00    -0.232 N 
HETATM   12  S2  UNL     1      22.830  -0.883  53.509  1.00  0.00    -0.097 SA
HETATM   13  C17 UNL     1      24.056   0.434  53.672  1.00  0.00     0.100 C 
HETATM   14  C18 UNL     1      25.390  -0.099  53.286  1.00  0.00     0.127 C 
ENDROOT
BRANCH  11  15
HETATM   15  C10 UNL     1      21.840   3.547  51.096  1.00  0.00     0.277 C 
BRANCH  15  16
HETATM   16  O3  UNL     1      20.722   4.399  51.270  1.00  0.00    -0.371 OA
HETATM   17  H12 UNL     1      20.692   5.133  50.638  1.00  0.00     0.212 HD
ENDBRANCH  15  16
BRANCH  15  18
HETATM   18  C11 UNL     1      21.916   3.423  49.585  1.00  0.00    -0.008 A 
HETATM   19  C12 UNL     1      22.363   2.300  48.918  1.00  0.00     0.011 A 
HETATM   20  C13 UNL     1      22.388   2.301  47.538  1.00  0.00     0.001 A 
HETATM   21  C14 UNL     1      21.972   3.406  46.834  1.00  0.00     0.000 A 
HETATM   22  C15 UNL     1      21.532   4.508  47.532  1.00  0.00     0.001 A 
HETATM   23  C16 UNL     1      21.486   4.560  48.900  1.00  0.00     0.011 A 
ENDBRANCH  15  18
ENDBRANCH  11  15
BRANCH   1  24
HETATM   24  S1  UNL     1      27.898   0.666  53.564  1.00  0.00     0.217 S 
HETATM   25  O1  UNL     1      28.840   1.689  52.996  1.00  0.00    -0.211 OA
HETATM   26  O2  UNL     1      27.876   0.898  55.048  1.00  0.00    -0.211 OA
BRANCH  24  27
HETATM   27  C2  UNL     1      28.432  -0.962  53.223  1.00  0.00     0.144 C 
HETATM   28  C1  UNL     1      29.673  -1.252  53.595  1.00  0.00     0.024 C 
ENDBRANCH  24  27
ENDBRANCH   1  24
TORSDOF 5
ENDMDL
MODEL 3
REMARK VINA RESULT:      -8.0      2.371      7.093
REMARK  5 active torsions:
REMARK  status: ('A' for Active; 'I' for Inactive)
REMARK    1  A    between atoms: C2_2  and  S1_3 
REMARK    2  A    between atoms: S1_3  and  N1_6 
REMARK    3  A    between atoms: N4_16  and  C10_17 
REMARK    4  A    between atoms: C10_17  and  O3_18 
REMARK    5  A    between atoms: C10_17  and  C11_19 
ROOT
HETATM    1  N1  UNL     1      25.364   1.380  53.379  1.00  0.00    -0.208 NA
HETATM    2  C3  UNL     1      25.316   1.085  51.957  1.00  0.00     0.116 C 
HETATM    3  C4  UNL     1      23.827   1.044  51.614  1.00  0.00     0.028 C 
HETATM    4  C5  UNL     1      23.257   0.131  52.704  1.00  0.00     0.016 C 
HETATM    5  C6  UNL     1      23.279   2.417  51.749  1.00  0.00    -0.028 C 
HETATM    6  C7  UNL     1      22.143   2.953  51.440  1.00  0.00     0.095 A 
HETATM    7  C8  UNL     1      21.975   4.363  51.753  1.00  0.00     0.124 A 
HETATM    8  N2  UNL     1      20.922   5.034  51.433  1.00  0.00    -0.231 NA
HETATM    9  C9  UNL     1      19.823   4.425  50.738  1.00  0.00     0.256 A 
HETATM   10  N3  UNL     1      19.935   3.178  50.448  1.00  0.00    -0.162 NA
HETATM   11  N4  UNL     1      21.034   2.390  50.756  1.00  0.00    -0.232 N 
HETATM   12  S2  UNL     1      23.441   4.805  52.673  1.00  0.00    -0.097 SA
HETATM   13  C17 UNL     1      24.352   3.299  52.263  1.00  0.00     0.100 C 
HETATM   14  C18 UNL     1      25.014   2.786  53.492  1.00  0.00     0.127 C 
ENDROOT
BRANCH  11  15
HETATM   15  C10 UNL     1      20.840   1.074  50.277  1.00  0.00     0.277 C 
BRANCH  15  16
HETATM   16  O3  UNL     1      20.226   1.149  49.003  1.00  0.00    -0.371 OA
HETATM   17  H12 UNL     1      19.287   1.381  49.038  1.00  0.00     0.212 HD
ENDBRANCH  15  16
BRANCH  15  18
HETATM   18  C11 UNL     1      19.749   0.439  51.120  1.00  0.00    -0.008 A 
HETATM   19  C12 UNL     1      19.917   0.027  52.427  1.00  0.00     0.011 A 
HETATM   20  C13 UNL     1      18.851  -0.538  53.098  1.00  0.00     0.001 A 
HETATM   21  C14 UNL     1      17.635  -0.690  52.474  1.00  0.00     0.000 A 
HETATM   22  C15 UNL     1      17.505  -0.267  51.169  1.00  0.00     0.001 A 
HETATM   23  C16 UNL     1      18.529   0.300  50.458  1.00  0.00     0.011 A 
ENDBRANCH  15  18
ENDBRANCH  11  15
BRANCH   1  24
HETATM   24  S1  UNL     1      26.913   1.043  54.047  1.00  0.00     0.217 S 
HETATM   25  O1  UNL     1      27.681   2.330  54.155  1.00  0.00    -0.211 OA
HETATM   26  O2  UNL     1      26.731   0.547  55.453  1.00  0.00    -0.211 OA
BRANCH  24  27
HETATM   27  C2  UNL     1      27.777  -0.145  53.102  1.00  0.00     0.144 C 
HETATM   28  C1  UNL     1      28.929  -0.562  53.613  1.00  0.00     0.024 C 
ENDBRANCH  24  27
ENDBRANCH   1  24
TORSDOF 5
ENDMDL
MODEL 4
REMARK VINA RESULT:      -7.7      3.145      7.045
REMARK  5 active torsions:
REMARK  status: ('A' for Active; 'I' for Inactive)
REMARK    1  A    between atoms: C2_2  and  S1_3 
REMARK    2  A    between atoms: S1_3  and  N1_6 
REMARK    3  A    between atoms: N4_16  and  C10_17 
REMARK    4  A    between atoms: C10_17  and  O3_18 
REMARK    5  A    between atoms: C10_17  and  C11_19 
ROOT
HETATM    1  N1  UNL     1      25.463   0.586  52.747  1.00  0.00    -0.208 NA
HETATM    2  C3  UNL     1      25.436   1.851  53.461  1.00  0.00     0.116 C 
HETATM    3  C4  UNL     1      24.557   2.766  52.608  1.00  0.00     0.028 C 
HETATM    4  C5  UNL     1      25.142   2.579  51.204  1.00  0.00     0.016 C 
HETATM    5  C6  UNL     1      23.164   2.256  52.661  1.00  0.00    -0.028 C 
HETATM    6  C7  UNL     1      22.031   2.727  52.253  1.00  0.00     0.095 A 
HETATM    7  C8  UNL     1      20.856   1.902  52.478  1.00  0.00     0.124 A 
HETATM    8  N2  UNL     1      19.660   2.284  52.186  1.00  0.00    -0.231 NA
HETATM    9  C9  UNL     1      19.402   3.571  51.604  1.00  0.00     0.256 A 
HETATM   10  N3  UNL     1      20.418   4.327  51.387  1.00  0.00    -0.162 NA
HETATM   11  N4  UNL     1      21.732   3.989  51.675  1.00  0.00    -0.232 N 
HETATM   12  S2  UNL     1      21.496   0.361  53.118  1.00  0.00    -0.097 SA
HETATM   13  C17 UNL     1      23.158   0.994  53.437  1.00  0.00     0.100 C 
HETATM   14  C18 UNL     1      24.153  -0.006  52.964  1.00  0.00     0.127 C 
ENDROOT
BRANCH  11  15
HETATM   15  C10 UNL     1      22.596   5.054  51.330  1.00  0.00     0.277 C 
BRANCH  15  16
HETATM   16  O3  UNL     1      22.002   6.266  51.757  1.00  0.00    -0.371 OA
HETATM   17  H12 UNL     1      22.537   7.050  51.563  1.00  0.00     0.212 HD
ENDBRANCH  15  16
BRANCH  15  18
HETATM   18  C11 UNL     1      22.564   5.196  49.819  1.00  0.00    -0.008 A 
HETATM   19  C12 UNL     1      22.648   4.138  48.937  1.00  0.00     0.011 A 
HETATM   20  C13 UNL     1      22.607   4.387  47.580  1.00  0.00     0.001 A 
HETATM   21  C14 UNL     1      22.483   5.674  47.110  1.00  0.00     0.000 A 
HETATM   22  C15 UNL     1      22.402   6.704  48.020  1.00  0.00     0.001 A 
HETATM   23  C16 UNL     1      22.438   6.513  49.376  1.00  0.00     0.011 A 
ENDBRANCH  15  18
ENDBRANCH  11  15
BRANCH   1  24
HETATM   24  S1  UNL     1      26.733  -0.432  53.304  1.00  0.00     0.217 S 
HETATM   25  O1  UNL     1      26.411  -0.885  54.699  1.00  0.00    -0.211 OA
HETATM   26  O2  UNL     1      26.758  -1.673  52.458  1.00  0.00    -0.211 OA
BRANCH  24  27
HETATM   27  C2  UNL     1      28.282   0.372  53.228  1.00  0.00     0.144 C 
HETATM   28  C1  UNL     1      29.292  -0.266  53.807  1.00  0.00     0.024 C 
ENDBRANCH  24  27
ENDBRANCH   1  24
TORSDOF 5
ENDMDL
MODEL 5
REMARK VINA RESULT:      -6.9      9.765     11.865
REMARK  5 active torsions:
REMARK  status: ('A' for Active; 'I' for Inactive)
REMARK    1  A    between atoms: C2_2  and  S1_3 
REMARK    2  A    between atoms: S1_3  and  N1_6 
REMARK    3  A    between atoms: N4_16  and  C10_17 
REMARK    4  A    between atoms: C10_17  and  O3_18 
REMARK    5  A    between atoms: C10_17  and  C11_19 
ROOT
HETATM    1  N1  UNL     1      28.737   9.466  48.466  1.00  0.00    -0.208 NA
HETATM    2  C3  UNL     1      29.721   9.576  49.530  1.00  0.00     0.116 C 
HETATM    3  C4  UNL     1      30.930   8.787  49.031  1.00  0.00     0.028 C 
HETATM    4  C5  UNL     1      30.303   7.467  48.571  1.00  0.00     0.016 C 
HETATM    5  C6  UNL     1      31.517   9.512  47.877  1.00  0.00    -0.028 C 
HETATM    6  C7  UNL     1      32.609   9.364  47.198  1.00  0.00     0.095 A 
HETATM    7  C8  UNL     1      32.828  10.288  46.097  1.00  0.00     0.124 A 
HETATM    8  N2  UNL     1      33.905  10.296  45.389  1.00  0.00    -0.231 NA
HETATM    9  C9  UNL     1      34.979   9.375  45.640  1.00  0.00     0.256 A 
HETATM   10  N3  UNL     1      34.818   8.541  46.605  1.00  0.00    -0.162 NA
HETATM   11  N4  UNL     1      33.691   8.471  47.411  1.00  0.00    -0.232 N 
HETATM   12  S2  UNL     1      31.314  11.228  45.981  1.00  0.00    -0.097 SA
HETATM   13  C17 UNL     1      30.656  10.677  47.571  1.00  0.00     0.100 C 
HETATM   14  C18 UNL     1      29.218  10.334  47.405  1.00  0.00     0.127 C 
ENDROOT
BRANCH  11  15
HETATM   15  C10 UNL     1      33.851   7.457  48.385  1.00  0.00     0.277 C 
BRANCH  15  16
HETATM   16  O3  UNL     1      35.191   7.483  48.840  1.00  0.00    -0.371 OA
HETATM   17  H12 UNL     1      35.844   7.406  48.128  1.00  0.00     0.212 HD
ENDBRANCH  15  16
BRANCH  15  18
HETATM   18  C11 UNL     1      33.782   6.122  47.666  1.00  0.00    -0.008 A 
HETATM   19  C12 UNL     1      32.848   5.806  46.700  1.00  0.00     0.011 A 
HETATM   20  C13 UNL     1      32.882   4.557  46.113  1.00  0.00     0.001 A 
HETATM   21  C14 UNL     1      33.835   3.638  46.483  1.00  0.00     0.000 A 
HETATM   22  C15 UNL     1      34.751   3.989  47.450  1.00  0.00     0.001 A 
HETATM   23  C16 UNL     1      34.762   5.213  48.065  1.00  0.00     0.011 A 
ENDBRANCH  15  18
ENDBRANCH  11  15
BRANCH   1  24
HETATM   24  S1  UNL     1      27.165   9.911  49.004  1.00  0.00     0.217 S 
HETATM   25  O1  UNL     1      27.080   9.680  50.486  1.00  0.00    -0.211 OA
HETATM   26  O2  UNL     1      26.990  11.389  48.801  1.00  0.00    -0.211 OA
BRANCH  24  27
HETATM   27  C2  UNL     1      25.920   9.039  48.144  1.00  0.00     0.144 C 
HETATM   28  C1  UNL     1      26.303   7.910  47.560  1.00  0.00     0.024 C 
ENDBRANCH  24  27
ENDBRANCH   1  24
TORSDOF 5
ENDMDL
MODEL 6
REMARK VINA RESULT:      -6.8      9.762     12.833
REMARK  5 active torsions:
REMARK  status: ('A' for Active; 'I' for Inactive)
REMARK    1  A    between atoms: C2_2  and  S1_3 
REMARK    2  A    between atoms: S1_3  and  N1_6 
REMARK    3  A    between atoms: N4_16  and  C10_17 
REMARK    4  A    between atoms: C10_17  and  O3_18 
REMARK    5  A    between atoms: C10_17  and  C11_19 
ROOT
HETATM    1  N1  UNL     1      32.909   5.320  47.423  1.00  0.00    -0.208 NA
HETATM    2  C3  UNL     1      33.186   6.025  48.663  1.00  0.00     0.116 C 
HETATM    3  C4  UNL     1      32.470   7.368  48.520  1.00  0.00     0.028 C 
HETATM    4  C5  UNL     1      32.925   7.844  47.136  1.00  0.00     0.016 C 
HETATM    5  C6  UNL     1      31.007   7.120  48.528  1.00  0.00    -0.028 C 
HETATM    6  C7  UNL     1      29.975   7.898  48.585  1.00  0.00     0.095 A 
HETATM    7  C8  UNL     1      28.669   7.261  48.551  1.00  0.00     0.124 A 
HETATM    8  N2  UNL     1      27.564   7.914  48.674  1.00  0.00    -0.231 NA
HETATM    9  C9  UNL     1      27.547   9.339  48.851  1.00  0.00     0.256 A 
HETATM   10  N3  UNL     1      28.684   9.936  48.882  1.00  0.00    -0.162 NA
HETATM   11  N4  UNL     1      29.913   9.305  48.760  1.00  0.00    -0.232 N 
HETATM   12  S2  UNL     1      29.009   5.536  48.240  1.00  0.00    -0.097 SA
HETATM   13  C17 UNL     1      30.782   5.656  48.569  1.00  0.00     0.100 C 
HETATM   14  C18 UNL     1      31.520   4.906  47.518  1.00  0.00     0.127 C 
ENDROOT
BRANCH  11  15
HETATM   15  C10 UNL     1      30.960  10.252  48.858  1.00  0.00     0.277 C 
BRANCH  15  16
HETATM   16  O3  UNL     1      30.457  11.405  49.508  1.00  0.00    -0.371 OA
HETATM   17  H12 UNL     1      31.149  11.989  49.853  1.00  0.00     0.212 HD
ENDBRANCH  15  16
BRANCH  15  18
HETATM   18  C11 UNL     1      31.239  10.769  47.458  1.00  0.00    -0.008 A 
HETATM   19  C12 UNL     1      30.329  10.732  46.420  1.00  0.00     0.011 A 
HETATM   20  C13 UNL     1      30.694  11.233  45.187  1.00  0.00     0.001 A 
HETATM   21  C14 UNL     1      31.948  11.763  44.992  1.00  0.00     0.000 A 
HETATM   22  C15 UNL     1      32.828  11.782  46.051  1.00  0.00     0.001 A 
HETATM   23  C16 UNL     1      32.518  11.300  47.295  1.00  0.00     0.011 A 
ENDBRANCH  15  18
ENDBRANCH  11  15
BRANCH   1  24
HETATM   24  S1  UNL     1      33.969   3.983  47.202  1.00  0.00     0.217 S 
HETATM   25  O1  UNL     1      34.976   3.977  48.318  1.00  0.00    -0.211 OA
HETATM   26  O2  UNL     1      33.178   2.714  47.347  1.00  0.00    -0.211 OA
BRANCH  24  27
HETATM   27  C2  UNL     1      34.743   4.028  45.637  1.00  0.00     0.144 C 
HETATM   28  C1  UNL     1      34.095   4.697  44.691  1.00  0.00     0.024 C 
ENDBRANCH  24  27
ENDBRANCH   1  24
TORSDOF 5
ENDMDL
MODEL 7
REMARK VINA RESULT:      -6.7      7.097     11.264
REMARK  5 active torsions:
REMARK  status: ('A' for Active; 'I' for Inactive)
REMARK    1  A    between atoms: C2_2  and  S1_3 
REMARK    2  A    between atoms: S1_3  and  N1_6 
REMARK    3  A    between atoms: N4_16  and  C10_17 
REMARK    4  A    between atoms: C10_17  and  O3_18 
REMARK    5  A    between atoms: C10_17  and  C11_19 
ROOT
HETATM    1  N1  UNL     1      32.290   6.867  47.674  1.00  0.00    -0.208 NA
HETATM    2  C3  UNL     1      31.394   7.132  46.562  1.00  0.00     0.116 C 
HETATM    3  C4  UNL     1      29.990   6.918  47.127  1.00  0.00     0.028 C 
HETATM    4  C5  UNL     1      30.116   5.562  47.830  1.00  0.00     0.016 C 
HETATM    5  C6  UNL     1      29.717   7.991  48.116  1.00  0.00    -0.028 C 
HETATM    6  C7  UNL     1      28.655   8.356  48.758  1.00  0.00     0.095 A 
HETATM    7  C8  UNL     1      28.795   9.473  49.678  1.00  0.00     0.124 A 
HETATM    8  N2  UNL     1      27.802   9.982  50.323  1.00  0.00    -0.231 NA
HETATM    9  C9  UNL     1      26.468   9.470  50.180  1.00  0.00     0.256 A 
HETATM   10  N3  UNL     1      26.307   8.479  49.377  1.00  0.00    -0.162 NA
HETATM   11  N4  UNL     1      27.323   7.879  48.647  1.00  0.00    -0.232 N 
HETATM   12  S2  UNL     1      30.546   9.825  49.707  1.00  0.00    -0.097 SA
HETATM   13  C17 UNL     1      30.941   8.812  48.264  1.00  0.00     0.100 C 
HETATM   14  C18 UNL     1      32.166   8.018  48.552  1.00  0.00     0.127 C 
ENDROOT
BRANCH  11  15
HETATM   15  C10 UNL     1      26.799   6.835  47.849  1.00  0.00     0.277 C 
BRANCH  15  16
HETATM   16  O3  UNL     1      25.601   7.291  47.248  1.00  0.00    -0.371 OA
HETATM   17  H12 UNL     1      25.720   8.077  46.694  1.00  0.00     0.212 HD
ENDBRANCH  15  16
BRANCH  15  18
HETATM   18  C11 UNL     1      26.294   5.755  48.790  1.00  0.00    -0.008 A 
HETATM   19  C12 UNL     1      25.073   5.793  49.434  1.00  0.00     0.011 A 
HETATM   20  C13 UNL     1      24.719   4.752  50.267  1.00  0.00     0.001 A 
HETATM   21  C14 UNL     1      25.569   3.688  50.455  1.00  0.00     0.000 A 
HETATM   22  C15 UNL     1      26.778   3.684  49.796  1.00  0.00     0.001 A 
HETATM   23  C16 UNL     1      27.180   4.690  48.958  1.00  0.00     0.011 A 
ENDBRANCH  15  18
ENDBRANCH  11  15
BRANCH   1  24
HETATM   24  S1  UNL     1      33.909   6.630  47.143  1.00  0.00     0.217 S 
HETATM   25  O1  UNL     1      33.916   6.536  45.644  1.00  0.00    -0.211 OA
HETATM   26  O2  UNL     1      34.711   7.854  47.487  1.00  0.00    -0.211 OA
BRANCH  24  27
HETATM   27  C2  UNL     1      34.629   5.220  47.881  1.00  0.00     0.144 C 
HETATM   28  C1  UNL     1      34.040   4.062  47.607  1.00  0.00     0.024 C 
ENDBRANCH  24  27
ENDBRANCH   1  24
TORSDOF 5
ENDMDL
MODEL 8
REMARK VINA RESULT:      -6.7      7.690     10.335
REMARK  5 active torsions:
REMARK  status: ('A' for Active; 'I' for Inactive)
REMARK    1  A    between atoms: C2_2  and  S1_3 
REMARK    2  A    between atoms: S1_3  and  N1_6 
REMARK    3  A    between atoms: N4_16  and  C10_17 
REMARK    4  A    between atoms: C10_17  and  O3_18 
REMARK    5  A    between atoms: C10_17  and  C11_19 
ROOT
HETATM    1  N1  UNL     1      27.582   7.464  47.599  1.00  0.00    -0.208 NA
HETATM    2  C3  UNL     1      28.454   7.999  48.630  1.00  0.00     0.116 C 
HETATM    3  C4  UNL     1      29.818   7.364  48.360  1.00  0.00     0.028 C 
HETATM    4  C5  UNL     1      29.472   5.880  48.207  1.00  0.00     0.016 C 
HETATM    5  C6  UNL     1      30.341   7.909  47.082  1.00  0.00    -0.028 C 
HETATM    6  C7  UNL     1      31.484   7.824  46.483  1.00  0.00     0.095 A 
HETATM    7  C8  UNL     1      31.608   8.500  45.202  1.00  0.00     0.124 A 
HETATM    8  N2  UNL     1      32.711   8.555  44.538  1.00  0.00    -0.231 NA
HETATM    9  C9  UNL     1      33.914   7.938  45.024  1.00  0.00     0.256 A 
HETATM   10  N3  UNL     1      33.841   7.328  46.153  1.00  0.00    -0.162 NA
HETATM   11  N4  UNL     1      32.694   7.227  46.926  1.00  0.00    -0.232 N 
HETATM   12  S2  UNL     1      29.959   9.081  44.832  1.00  0.00    -0.097 SA
HETATM   13  C17 UNL     1      29.305   8.788  46.491  1.00  0.00     0.100 C 
HETATM   14  C18 UNL     1      27.968   8.146  46.375  1.00  0.00     0.127 C 
ENDROOT
BRANCH  11  15
HETATM   15  C10 UNL     1      32.968   6.509  48.113  1.00  0.00     0.277 C 
BRANCH  15  16
HETATM   16  O3  UNL     1      34.250   6.889  48.578  1.00  0.00    -0.371 OA
HETATM   17  H12 UNL     1      34.971   6.627  47.987  1.00  0.00     0.212 HD
ENDBRANCH  15  16
BRANCH  15  18
HETATM   18  C11 UNL     1      33.185   5.057  47.727  1.00  0.00    -0.008 A 
HETATM   19  C12 UNL     1      32.269   4.292  47.032  1.00  0.00     0.011 A 
HETATM   20  C13 UNL     1      32.576   2.979  46.735  1.00  0.00     0.001 A 
HETATM   21  C14 UNL     1      33.779   2.439  47.125  1.00  0.00     0.000 A 
HETATM   22  C15 UNL     1      34.667   3.232  47.816  1.00  0.00     0.001 A 
HETATM   23  C16 UNL     1      34.414   4.540  48.137  1.00  0.00     0.011 A 
ENDBRANCH  15  18
ENDBRANCH  11  15
BRANCH   1  24
HETATM   24  S1  UNL     1      25.922   7.709  47.979  1.00  0.00     0.217 S 
HETATM   25  O1  UNL     1      25.777   9.035  48.671  1.00  0.00    -0.211 OA
HETATM   26  O2  UNL     1      25.147   7.821  46.697  1.00  0.00    -0.211 OA
BRANCH  24  27
HETATM   27  C2  UNL     1      25.284   6.403  48.949  1.00  0.00     0.144 C 
HETATM   28  C1  UNL     1      26.002   5.286  48.957  1.00  0.00     0.024 C 
ENDBRANCH  24  27
ENDBRANCH   1  24
TORSDOF 5
ENDMDL
MODEL 9
REMARK VINA RESULT:      -6.6      9.932     13.068
REMARK  5 active torsions:
REMARK  status: ('A' for Active; 'I' for Inactive)
REMARK    1  A    between atoms: C2_2  and  S1_3 
REMARK    2  A    between atoms: S1_3  and  N1_6 
REMARK    3  A    between atoms: N4_16  and  C10_17 
REMARK    4  A    between atoms: C10_17  and  O3_18 
REMARK    5  A    between atoms: C10_17  and  C11_19 
ROOT
HETATM    1  N1  UNL     1      31.378   7.152  47.979  1.00  0.00    -0.208 NA
HETATM    2  C3  UNL     1      31.388   7.893  49.228  1.00  0.00     0.116 C 
HETATM    3  C4  UNL     1      30.678   9.209  48.911  1.00  0.00     0.028 C 
HETATM    4  C5  UNL     1      31.380   9.668  47.629  1.00  0.00     0.016 C 
HETATM    5  C6  UNL     1      29.248   8.914  48.641  1.00  0.00    -0.028 C 
HETATM    6  C7  UNL     1      28.204   9.660  48.475  1.00  0.00     0.095 A 
HETATM    7  C8  UNL     1      26.947   8.981  48.206  1.00  0.00     0.124 A 
HETATM    8  N2  UNL     1      25.823   9.600  48.093  1.00  0.00    -0.231 NA
HETATM    9  C9  UNL     1      25.732  11.027  48.223  1.00  0.00     0.256 A 
HETATM   10  N3  UNL     1      26.825  11.662  48.458  1.00  0.00    -0.162 NA
HETATM   11  N4  UNL     1      28.072  11.068  48.594  1.00  0.00    -0.232 N 
HETATM   12  S2  UNL     1      27.389   7.260  48.016  1.00  0.00    -0.097 SA
HETATM   13  C17 UNL     1      29.059   7.445  48.679  1.00  0.00     0.100 C 
HETATM   14  C18 UNL     1      30.008   6.695  47.813  1.00  0.00     0.127 C 
ENDROOT
BRANCH  11  15
HETATM   15  C10 UNL     1      29.052  12.050  48.867  1.00  0.00     0.277 C 
BRANCH  15  16
HETATM   16  O3  UNL     1      28.502  12.989  49.772  1.00  0.00    -0.371 OA
HETATM   17  H12 UNL     1      29.159  13.393  50.359  1.00  0.00     0.212 HD
ENDBRANCH  15  16
BRANCH  15  18
HETATM   18  C11 UNL     1      29.226  12.881  47.609  1.00  0.00    -0.008 A 
HETATM   19  C12 UNL     1      29.577  12.364  46.378  1.00  0.00     0.011 A 
HETATM   20  C13 UNL     1      29.706  13.218  45.301  1.00  0.00     0.001 A 
HETATM   21  C14 UNL     1      29.488  14.567  45.450  1.00  0.00     0.000 A 
HETATM   22  C15 UNL     1      29.139  15.047  46.693  1.00  0.00     0.001 A 
HETATM   23  C16 UNL     1      28.997  14.245  47.795  1.00  0.00     0.011 A 
ENDBRANCH  15  18
ENDBRANCH  11  15
BRANCH   1  24
HETATM   24  S1  UNL     1      32.497   5.845  48.005  1.00  0.00     0.217 S 
HETATM   25  O1  UNL     1      31.946   4.757  48.883  1.00  0.00    -0.211 OA
HETATM   26  O2  UNL     1      32.584   5.262  46.623  1.00  0.00    -0.211 OA
BRANCH  24  27
HETATM   27  C2  UNL     1      34.078   6.363  48.535  1.00  0.00     0.144 C 
HETATM   28  C1  UNL     1      34.966   5.396  48.733  1.00  0.00     0.024 C 
ENDBRANCH  24  27
ENDBRANCH   1  24
TORSDOF 5
ENDMDL
