MODEL 1
REMARK VINA RESULT:      -8.5      0.000      0.000
REMARK  7 active torsions:
REMARK  status: ('A' for Active; 'I' for Inactive)
REMARK    1  A    between atoms: C2_2  and  N1_4 
REMARK    2  A    between atoms: N1_4  and  C4_5 
REMARK    3  A    between atoms: N1_4  and  C20_29 
REMARK    4  A    between atoms: C4_5  and  C5_6 
REMARK    5  A    between atoms: C6_7  and  C7_8 
REMARK       I    between atoms: C7_8  and  N2_10 
REMARK    6  A    between atoms: C11_17  and  N6_18 
REMARK    7  A    between atoms: N6_18  and  C12_19 
ROOT
HETATM    1  C7  UNL     1      26.152   3.501  50.308  1.00  0.00     0.300 C 
HETATM    2  O1  UNL     1      27.217   2.982  49.874  1.00  0.00    -0.258 OA
HETATM    3  N2  UNL     1      25.656   4.737  49.802  1.00  0.00    -0.319 N 
HETATM    4  C8  UNL     1      24.432   5.329  50.303  1.00  0.00     0.279 C 
HETATM    5  N3  UNL     1      24.710   6.664  50.747  1.00  0.00    -0.252 NA
HETATM    6  C9  UNL     1      25.702   7.325  50.276  1.00  0.00     0.136 A 
HETATM    7  N4  UNL     1      26.020   8.655  50.686  1.00  0.00    -0.335 N 
HETATM    8  C10 UNL     1      27.132   9.351  50.134  1.00  0.00     0.211 A 
HETATM    9  N5  UNL     1      27.882   8.786  49.243  1.00  0.00    -0.226 NA
HETATM   10  C11 UNL     1      27.647   7.464  48.770  1.00  0.00     0.141 A 
HETATM   11  C18 UNL     1      26.624   6.804  49.268  1.00  0.00     0.051 A 
HETATM   12  C19 UNL     1      26.402   5.416  48.758  1.00  0.00     0.175 C 
HETATM   13  H12 UNL     1      25.430   9.136  51.405  1.00  0.00     0.168 HD
ENDROOT
BRANCH   1  14
HETATM   14  C6  UNL     1      25.482   2.762  51.338  1.00  0.00    -0.004 C 
HETATM   15  C5  UNL     1      24.907   2.143  52.211  1.00  0.00    -0.066 C 
BRANCH  15  16
HETATM   16  C4  UNL     1      24.232   1.377  53.264  1.00  0.00     0.367 C 
BRANCH  16  17
HETATM   17  N1  UNL     1      24.266  -0.040  53.059  1.00  0.00     0.107 N 
BRANCH  17  18
HETATM   18  C2  UNL     1      23.028  -0.701  53.170  1.00  0.00     0.216 C 
HETATM   19  C1  UNL     1      21.925  -0.083  52.352  1.00  0.00     0.042 C 
HETATM   20  C3  UNL     1      22.590  -0.984  54.584  1.00  0.00     0.042 C 
ENDBRANCH  17  18
BRANCH  17  21
HETATM   21  C20 UNL     1      25.392  -0.602  53.733  1.00  0.00     0.216 C 
HETATM   22  C21 UNL     1      26.129   0.285  54.667  1.00  0.00     0.042 C 
HETATM   23  C22 UNL     1      26.355  -1.133  52.698  1.00  0.00     0.042 C 
ENDBRANCH  17  21
ENDBRANCH  16  17
ENDBRANCH  15  16
ENDBRANCH   1  14
BRANCH  10  24
HETATM   24  N6  UNL     1      28.518   6.916  47.790  1.00  0.00    -0.340 N 
HETATM   25  H14 UNL     1      28.166   6.740  46.827  1.00  0.00     0.167 HD
BRANCH  24  26
HETATM   26  C12 UNL     1      29.874   6.600  48.105  1.00  0.00     0.035 A 
HETATM   27  C13 UNL     1      30.668   7.482  48.795  1.00  0.00     0.032 A 
HETATM   28  C14 UNL     1      31.977   7.155  49.085  1.00  0.00     0.046 A 
HETATM   29  C15 UNL     1      32.479   5.938  48.680  1.00  0.00     0.138 A 
HETATM   30  F1  UNL     1      33.774   5.574  48.947  1.00  0.00    -0.204 F 
HETATM   31  C16 UNL     1      31.727   5.026  47.990  1.00  0.00     0.074 A 
HETATM   32 CL1  UNL     1      32.381   3.491  47.484  1.00  0.00    -0.081 Cl
HETATM   33  C17 UNL     1      30.415   5.391  47.716  1.00  0.00     0.056 A 
ENDBRANCH  24  26
ENDBRANCH  10  24
TORSDOF 7
ENDMDL
MODEL 2
REMARK VINA RESULT:      -8.5      7.847     12.029
REMARK  7 active torsions:
REMARK  status: ('A' for Active; 'I' for Inactive)
REMARK    1  A    between atoms: C2_2  and  N1_4 
REMARK    2  A    between atoms: N1_4  and  C4_5 
REMARK    3  A    between atoms: N1_4  and  C20_29 
REMARK    4  A    between atoms: C4_5  and  C5_6 
REMARK    5  A    between atoms: C6_7  and  C7_8 
REMARK       I    between atoms: C7_8  and  N2_10 
REMARK    6  A    between atoms: C11_17  and  N6_18 
REMARK    7  A    between atoms: N6_18  and  C12_19 
ROOT
HETATM    1  C7  UNL     1      22.453  -0.845  54.205  1.00  0.00     0.300 C 
HETATM    2  O1  UNL     1      22.032  -1.857  54.830  1.00  0.00    -0.258 OA
HETATM    3  N2  UNL     1      21.569   0.159  53.716  1.00  0.00    -0.319 N 
HETATM    4  C8  UNL     1      22.056   1.320  52.998  1.00  0.00     0.279 C 
HETATM    5  N3  UNL     1      21.388   1.397  51.732  1.00  0.00    -0.252 NA
HETATM    6  C9  UNL     1      20.238   0.860  51.557  1.00  0.00     0.136 A 
HETATM    7  N4  UNL     1      19.534   0.909  50.316  1.00  0.00    -0.335 N 
HETATM    8  C10 UNL     1      18.256   0.299  50.168  1.00  0.00     0.211 A 
HETATM    9  N5  UNL     1      17.705  -0.318  51.164  1.00  0.00    -0.226 NA
HETATM   10  C11 UNL     1      18.328  -0.421  52.441  1.00  0.00     0.141 A 
HETATM   11  C18 UNL     1      19.509   0.137  52.597  1.00  0.00     0.051 A 
HETATM   12  C19 UNL     1      20.142   0.009  53.945  1.00  0.00     0.175 C 
HETATM   13  H12 UNL     1      19.955   1.401  49.493  1.00  0.00     0.168 HD
ENDROOT
BRANCH   1  14
HETATM   14  C6  UNL     1      23.874  -0.780  54.024  1.00  0.00    -0.004 C 
HETATM   15  C5  UNL     1      25.076  -0.718  53.864  1.00  0.00    -0.066 C 
BRANCH  15  16
HETATM   16  C4  UNL     1      26.532  -0.660  53.690  1.00  0.00     0.367 C 
BRANCH  16  17
HETATM   17  N1  UNL     1      27.104   0.604  54.048  1.00  0.00     0.107 N 
BRANCH  17  18
HETATM   18  C2  UNL     1      26.835   1.666  53.164  1.00  0.00     0.216 C 
HETATM   19  C1  UNL     1      25.697   2.553  53.597  1.00  0.00     0.042 C 
HETATM   20  C3  UNL     1      26.718   1.266  51.715  1.00  0.00     0.042 C 
ENDBRANCH  17  18
BRANCH  17  21
HETATM   21  C20 UNL     1      28.450   0.419  54.488  1.00  0.00     0.216 C 
HETATM   22  C21 UNL     1      29.360   1.586  54.378  1.00  0.00     0.042 C 
HETATM   23  C22 UNL     1      29.047  -0.743  53.731  1.00  0.00     0.042 C 
ENDBRANCH  17  21
ENDBRANCH  16  17
ENDBRANCH  15  16
ENDBRANCH   1  14
BRANCH  10  24
HETATM   24  N6  UNL     1      17.657  -1.116  53.482  1.00  0.00    -0.340 N 
HETATM   25  H14 UNL     1      17.671  -0.735  54.450  1.00  0.00     0.167 HD
BRANCH  24  26
HETATM   26  C12 UNL     1      16.959  -2.334  53.224  1.00  0.00     0.035 A 
HETATM   27  C13 UNL     1      17.442  -3.539  53.672  1.00  0.00     0.032 A 
HETATM   28  C14 UNL     1      16.751  -4.704  53.408  1.00  0.00     0.046 A 
HETATM   29  C15 UNL     1      15.574  -4.649  52.694  1.00  0.00     0.138 A 
HETATM   30  F1  UNL     1      14.858  -5.783  52.409  1.00  0.00    -0.204 F 
HETATM   31  C16 UNL     1      15.053  -3.474  52.227  1.00  0.00     0.074 A 
HETATM   32 CL1  UNL     1      13.562  -3.424  51.323  1.00  0.00    -0.081 Cl
HETATM   33  C17 UNL     1      15.776  -2.322  52.511  1.00  0.00     0.056 A 
ENDBRANCH  24  26
ENDBRANCH  10  24
TORSDOF 7
ENDMDL
MODEL 3
REMARK VINA RESULT:      -8.4      2.078      3.191
REMARK  7 active torsions:
REMARK  status: ('A' for Active; 'I' for Inactive)
REMARK    1  A    between atoms: C2_2  and  N1_4 
REMARK    2  A    between atoms: N1_4  and  C4_5 
REMARK    3  A    between atoms: N1_4  and  C20_29 
REMARK    4  A    between atoms: C4_5  and  C5_6 
REMARK    5  A    between atoms: C6_7  and  C7_8 
REMARK       I    between atoms: C7_8  and  N2_10 
REMARK    6  A    between atoms: C11_17  and  N6_18 
REMARK    7  A    between atoms: N6_18  and  C12_19 
ROOT
HETATM    1  C7  UNL     1      27.441   5.289  48.687  1.00  0.00     0.300 C 
HETATM    2  O1  UNL     1      28.235   4.400  48.275  1.00  0.00    -0.258 OA
HETATM    3  N2  UNL     1      27.607   6.663  48.349  1.00  0.00    -0.319 N 
HETATM    4  C8  UNL     1      26.693   7.682  48.824  1.00  0.00     0.279 C 
HETATM    5  N3  UNL     1      27.442   8.696  49.507  1.00  0.00    -0.252 NA
HETATM    6  C9  UNL     1      28.682   8.891  49.247  1.00  0.00     0.136 A 
HETATM    7  N4  UNL     1      29.469   9.887  49.900  1.00  0.00    -0.335 N 
HETATM    8  C10 UNL     1      30.843  10.069  49.577  1.00  0.00     0.211 A 
HETATM    9  N5  UNL     1      31.409   9.329  48.679  1.00  0.00    -0.226 NA
HETATM   10  C11 UNL     1      30.708   8.309  47.973  1.00  0.00     0.141 A 
HETATM   11  C18 UNL     1      29.437   8.126  48.258  1.00  0.00     0.051 A 
HETATM   12  C19 UNL     1      28.726   7.046  47.506  1.00  0.00     0.175 C 
HETATM   13  H12 UNL     1      29.037  10.501  50.630  1.00  0.00     0.168 HD
ENDROOT
BRANCH   1  14
HETATM   14  C6  UNL     1      26.366   4.821  49.513  1.00  0.00    -0.004 C 
HETATM   15  C5  UNL     1      25.452   4.421  50.205  1.00  0.00    -0.066 C 
BRANCH  15  16
HETATM   16  C4  UNL     1      24.359   3.946  51.061  1.00  0.00     0.367 C 
BRANCH  16  17
HETATM   17  N1  UNL     1      24.048   2.559  50.882  1.00  0.00     0.107 N 
BRANCH  17  18
HETATM   18  C2  UNL     1      22.774   2.286  50.349  1.00  0.00     0.216 C 
HETATM   19  C1  UNL     1      22.134   1.036  50.894  1.00  0.00     0.042 C 
HETATM   20  C3  UNL     1      22.693   2.349  48.845  1.00  0.00     0.042 C 
ENDBRANCH  17  18
BRANCH  17  21
HETATM   21  C20 UNL     1      24.474   1.814  52.022  1.00  0.00     0.216 C 
HETATM   22  C21 UNL     1      24.589   2.552  53.305  1.00  0.00     0.042 C 
HETATM   23  C22 UNL     1      25.803   1.171  51.705  1.00  0.00     0.042 C 
ENDBRANCH  17  21
ENDBRANCH  16  17
ENDBRANCH  15  16
ENDBRANCH   1  14
BRANCH  10  24
HETATM   24  N6  UNL     1      31.403   7.539  47.002  1.00  0.00    -0.340 N 
HETATM   25  H14 UNL     1      31.208   7.686  45.991  1.00  0.00     0.167 HD
BRANCH  24  26
HETATM   26  C12 UNL     1      32.368   6.562  47.390  1.00  0.00     0.035 A 
HETATM   27  C13 UNL     1      33.549   6.927  47.990  1.00  0.00     0.032 A 
HETATM   28  C14 UNL     1      34.468   5.964  48.354  1.00  0.00     0.046 A 
HETATM   29  C15 UNL     1      34.192   4.637  48.113  1.00  0.00     0.138 A 
HETATM   30  F1  UNL     1      35.078   3.648  48.458  1.00  0.00    -0.204 F 
HETATM   31  C16 UNL     1      33.031   4.223  47.519  1.00  0.00     0.074 A 
HETATM   32 CL1  UNL     1      32.700   2.537  47.221  1.00  0.00    -0.081 Cl
HETATM   33  C17 UNL     1      32.130   5.221  47.166  1.00  0.00     0.056 A 
ENDBRANCH  24  26
ENDBRANCH  10  24
TORSDOF 7
ENDMDL
MODEL 4
REMARK VINA RESULT:      -8.4      1.932      3.228
REMARK  7 active torsions:
REMARK  status: ('A' for Active; 'I' for Inactive)
REMARK    1  A    between atoms: C2_2  and  N1_4 
REMARK    2  A    between atoms: N1_4  and  C4_5 
REMARK    3  A    between atoms: N1_4  and  C20_29 
REMARK    4  A    between atoms: C4_5  and  C5_6 
REMARK    5  A    between atoms: C6_7  and  C7_8 
REMARK       I    between atoms: C7_8  and  N2_10 
REMARK    6  A    between atoms: C11_17  and  N6_18 
REMARK    7  A    between atoms: N6_18  and  C12_19 
ROOT
HETATM    1  C7  UNL     1      27.048   5.058  48.944  1.00  0.00     0.300 C 
HETATM    2  O1  UNL     1      27.849   4.182  48.516  1.00  0.00    -0.258 OA
HETATM    3  N2  UNL     1      27.164   6.429  48.575  1.00  0.00    -0.319 N 
HETATM    4  C8  UNL     1      26.243   7.432  49.069  1.00  0.00     0.279 C 
HETATM    5  N3  UNL     1      26.992   8.478  49.703  1.00  0.00    -0.252 NA
HETATM    6  C9  UNL     1      28.214   8.701  49.389  1.00  0.00     0.136 A 
HETATM    7  N4  UNL     1      29.001   9.729  49.990  1.00  0.00    -0.335 N 
HETATM    8  C10 UNL     1      30.355   9.941  49.608  1.00  0.00     0.211 A 
HETATM    9  N5  UNL     1      30.904   9.198  48.701  1.00  0.00    -0.226 NA
HETATM   10  C11 UNL     1      30.202   8.147  48.043  1.00  0.00     0.141 A 
HETATM   11  C18 UNL     1      28.949   7.937  48.383  1.00  0.00     0.051 A 
HETATM   12  C19 UNL     1      28.237   6.825  47.680  1.00  0.00     0.175 C 
HETATM   13  H12 UNL     1      28.583  10.345  50.727  1.00  0.00     0.168 HD
ENDROOT
BRANCH   1  14
HETATM   14  C6  UNL     1      26.021   4.577  49.823  1.00  0.00    -0.004 C 
HETATM   15  C5  UNL     1      25.146   4.168  50.558  1.00  0.00    -0.066 C 
BRANCH  15  16
HETATM   16  C4  UNL     1      24.103   3.679  51.467  1.00  0.00     0.367 C 
BRANCH  16  17
HETATM   17  N1  UNL     1      24.442   2.452  52.125  1.00  0.00     0.107 N 
BRANCH  17  18
HETATM   18  C2  UNL     1      25.813   2.256  52.377  1.00  0.00     0.216 C 
HETATM   19  C1  UNL     1      26.420   1.106  51.616  1.00  0.00     0.042 C 
HETATM   20  C3  UNL     1      26.187   2.224  53.837  1.00  0.00     0.042 C 
ENDBRANCH  17  18
BRANCH  17  21
HETATM   21  C20 UNL     1      23.701   1.374  51.554  1.00  0.00     0.216 C 
HETATM   22  C21 UNL     1      22.707   1.720  50.507  1.00  0.00     0.042 C 
HETATM   23  C22 UNL     1      23.003   0.630  52.667  1.00  0.00     0.042 C 
ENDBRANCH  17  21
ENDBRANCH  16  17
ENDBRANCH  15  16
ENDBRANCH   1  14
BRANCH  10  24
HETATM   24  N6  UNL     1      30.877   7.378  47.058  1.00  0.00    -0.340 N 
HETATM   25  H14 UNL     1      30.618   7.481  46.056  1.00  0.00     0.167 HD
BRANCH  24  26
HETATM   26  C12 UNL     1      31.909   6.461  47.420  1.00  0.00     0.035 A 
HETATM   27  C13 UNL     1      31.692   5.104  47.404  1.00  0.00     0.032 A 
HETATM   28  C14 UNL     1      32.705   4.237  47.760  1.00  0.00     0.046 A 
HETATM   29  C15 UNL     1      33.932   4.741  48.129  1.00  0.00     0.138 A 
HETATM   30  F1  UNL     1      34.965   3.914  48.492  1.00  0.00    -0.204 F 
HETATM   31  C16 UNL     1      34.196   6.083  48.161  1.00  0.00     0.074 A 
HETATM   32 CL1  UNL     1      35.757   6.702  48.634  1.00  0.00    -0.081 Cl
HETATM   33  C17 UNL     1      33.153   6.925  47.797  1.00  0.00     0.056 A 
ENDBRANCH  24  26
ENDBRANCH  10  24
TORSDOF 7
ENDMDL
MODEL 5
REMARK VINA RESULT:      -8.2      2.410      3.771
REMARK  7 active torsions:
REMARK  status: ('A' for Active; 'I' for Inactive)
REMARK    1  A    between atoms: C2_2  and  N1_4 
REMARK    2  A    between atoms: N1_4  and  C4_5 
REMARK    3  A    between atoms: N1_4  and  C20_29 
REMARK    4  A    between atoms: C4_5  and  C5_6 
REMARK    5  A    between atoms: C6_7  and  C7_8 
REMARK       I    between atoms: C7_8  and  N2_10 
REMARK    6  A    between atoms: C11_17  and  N6_18 
REMARK    7  A    between atoms: N6_18  and  C12_19 
ROOT
HETATM    1  C7  UNL     1      27.906   5.072  48.520  1.00  0.00     0.300 C 
HETATM    2  O1  UNL     1      28.850   4.334  48.126  1.00  0.00    -0.258 OA
HETATM    3  N2  UNL     1      27.865   6.465  48.224  1.00  0.00    -0.319 N 
HETATM    4  C8  UNL     1      26.780   7.310  48.678  1.00  0.00     0.279 C 
HETATM    5  N3  UNL     1      27.326   8.408  49.422  1.00  0.00    -0.252 NA
HETATM    6  C9  UNL     1      28.529   8.806  49.227  1.00  0.00     0.136 A 
HETATM    7  N4  UNL     1      29.118   9.893  49.941  1.00  0.00    -0.335 N 
HETATM    8  C10 UNL     1      30.458  10.300  49.691  1.00  0.00     0.211 A 
HETATM    9  N5  UNL     1      31.174   9.687  48.804  1.00  0.00    -0.226 NA
HETATM   10  C11 UNL     1      30.677   8.593  48.040  1.00  0.00     0.141 A 
HETATM   11  C18 UNL     1      29.440   8.202  48.258  1.00  0.00     0.051 A 
HETATM   12  C19 UNL     1      28.945   7.047  47.446  1.00  0.00     0.175 C 
HETATM   13  H12 UNL     1      28.561  10.406  50.665  1.00  0.00     0.168 HD
ENDROOT
BRANCH   1  14
HETATM   14  C6  UNL     1      26.885   4.413  49.281  1.00  0.00    -0.004 C 
HETATM   15  C5  UNL     1      26.014   3.854  49.917  1.00  0.00    -0.066 C 
BRANCH  15  16
HETATM   16  C4  UNL     1      24.977   3.182  50.707  1.00  0.00     0.367 C 
BRANCH  16  17
HETATM   17  N1  UNL     1      23.645   3.598  50.382  1.00  0.00     0.107 N 
BRANCH  17  18
HETATM   18  C2  UNL     1      22.658   3.275  51.332  1.00  0.00     0.216 C 
HETATM   19  C1  UNL     1      21.854   4.455  51.811  1.00  0.00     0.042 C 
HETATM   20  C3  UNL     1      23.140   2.420  52.476  1.00  0.00     0.042 C 
ENDBRANCH  17  18
BRANCH  17  21
HETATM   21  C20 UNL     1      23.372   3.324  49.008  1.00  0.00     0.216 C 
HETATM   22  C21 UNL     1      22.810   4.433  48.198  1.00  0.00     0.042 C 
HETATM   23  C22 UNL     1      22.439   2.139  48.931  1.00  0.00     0.042 C 
ENDBRANCH  17  21
ENDBRANCH  16  17
ENDBRANCH  15  16
ENDBRANCH   1  14
BRANCH  10  24
HETATM   24  N6  UNL     1      31.528   7.974  47.086  1.00  0.00    -0.340 N 
HETATM   25  H14 UNL     1      31.421   8.199  46.076  1.00  0.00     0.167 HD
BRANCH  24  26
HETATM   26  C12 UNL     1      32.533   7.043  47.489  1.00  0.00     0.035 A 
HETATM   27  C13 UNL     1      33.759   7.469  47.937  1.00  0.00     0.032 A 
HETATM   28  C14 UNL     1      34.715   6.550  48.320  1.00  0.00     0.046 A 
HETATM   29  C15 UNL     1      34.429   5.204  48.249  1.00  0.00     0.138 A 
HETATM   30  F1  UNL     1      35.351   4.258  48.618  1.00  0.00    -0.204 F 
HETATM   31  C16 UNL     1      33.223   4.731  47.810  1.00  0.00     0.074 A 
HETATM   32 CL1  UNL     1      32.881   3.023  47.726  1.00  0.00    -0.081 Cl
HETATM   33  C17 UNL     1      32.287   5.686  47.434  1.00  0.00     0.056 A 
ENDBRANCH  24  26
ENDBRANCH  10  24
TORSDOF 7
ENDMDL
MODEL 6
REMARK VINA RESULT:      -8.1      4.487     10.085
REMARK  7 active torsions:
REMARK  status: ('A' for Active; 'I' for Inactive)
REMARK    1  A    between atoms: C2_2  and  N1_4 
REMARK    2  A    between atoms: N1_4  and  C4_5 
REMARK    3  A    between atoms: N1_4  and  C20_29 
REMARK    4  A    between atoms: C4_5  and  C5_6 
REMARK    5  A    between atoms: C6_7  and  C7_8 
REMARK       I    between atoms: C7_8  and  N2_10 
REMARK    6  A    between atoms: C11_17  and  N6_18 
REMARK    7  A    between atoms: N6_18  and  C12_19 
ROOT
HETATM    1  C7  UNL     1      24.793   6.072  50.666  1.00  0.00     0.300 C 
HETATM    2  O1  UNL     1      23.857   6.493  51.398  1.00  0.00    -0.258 OA
HETATM    3  N2  UNL     1      24.905   4.698  50.302  1.00  0.00    -0.319 N 
HETATM    4  C8  UNL     1      25.982   4.217  49.460  1.00  0.00     0.279 C 
HETATM    5  N3  UNL     1      26.664   3.156  50.141  1.00  0.00    -0.252 NA
HETATM    6  C9  UNL     1      26.074   2.459  51.041  1.00  0.00     0.136 A 
HETATM    7  N4  UNL     1      26.710   1.393  51.746  1.00  0.00    -0.335 N 
HETATM    8  C10 UNL     1      26.014   0.646  52.737  1.00  0.00     0.211 A 
HETATM    9  N5  UNL     1      24.782   0.922  53.021  1.00  0.00    -0.226 NA
HETATM   10  C11 UNL     1      24.061   1.966  52.373  1.00  0.00     0.141 A 
HETATM   11  C18 UNL     1      24.688   2.668  51.454  1.00  0.00     0.051 A 
HETATM   12  C19 UNL     1      23.910   3.761  50.793  1.00  0.00     0.175 C 
HETATM   13  H12 UNL     1      27.706   1.148  51.536  1.00  0.00     0.168 HD
ENDROOT
BRANCH   1  14
HETATM   14  C6  UNL     1      25.729   7.066  50.228  1.00  0.00    -0.004 C 
HETATM   15  C5  UNL     1      26.514   7.914  49.855  1.00  0.00    -0.066 C 
BRANCH  15  16
HETATM   16  C4  UNL     1      27.482   8.924  49.411  1.00  0.00     0.367 C 
BRANCH  16  17
HETATM   17  N1  UNL     1      28.701   8.369  48.903  1.00  0.00     0.107 N 
BRANCH  17  18
HETATM   18  C2  UNL     1      29.716   9.298  48.608  1.00  0.00     0.216 C 
HETATM   19  C1  UNL     1      31.038   8.996  49.265  1.00  0.00     0.042 C 
HETATM   20  C3  UNL     1      29.318  10.742  48.781  1.00  0.00     0.042 C 
ENDBRANCH  17  18
BRANCH  17  21
HETATM   21  C20 UNL     1      28.410   7.361  47.935  1.00  0.00     0.216 C 
HETATM   22  C21 UNL     1      29.101   6.057  48.090  1.00  0.00     0.042 C 
HETATM   23  C22 UNL     1      28.708   7.914  46.562  1.00  0.00     0.042 C 
ENDBRANCH  17  21
ENDBRANCH  16  17
ENDBRANCH  15  16
ENDBRANCH   1  14
BRANCH  10  24
HETATM   24  N6  UNL     1      22.711   2.206  52.743  1.00  0.00    -0.340 N 
HETATM   25  H14 UNL     1      22.358   3.182  52.806  1.00  0.00     0.167 HD
BRANCH  24  26
HETATM   26  C12 UNL     1      21.825   1.125  53.035  1.00  0.00     0.035 A 
HETATM   27  C13 UNL     1      22.081   0.252  54.064  1.00  0.00     0.032 A 
HETATM   28  C14 UNL     1      21.211  -0.786  54.325  1.00  0.00     0.046 A 
HETATM   29  C15 UNL     1      20.084  -0.939  53.548  1.00  0.00     0.138 A 
HETATM   30  F1  UNL     1      19.194  -1.958  53.773  1.00  0.00    -0.204 F 
HETATM   31  C16 UNL     1      19.786  -0.097  52.512  1.00  0.00     0.074 A 
HETATM   32 CL1  UNL     1      18.354  -0.308  51.538  1.00  0.00    -0.081 Cl
HETATM   33  C17 UNL     1      20.685   0.936  52.279  1.00  0.00     0.056 A 
ENDBRANCH  24  26
ENDBRANCH  10  24
TORSDOF 7
ENDMDL
MODEL 7
REMARK VINA RESULT:      -7.8      7.791     11.476
REMARK  7 active torsions:
REMARK  status: ('A' for Active; 'I' for Inactive)
REMARK    1  A    between atoms: C2_2  and  N1_4 
REMARK    2  A    between atoms: N1_4  and  C4_5 
REMARK    3  A    between atoms: N1_4  and  C20_29 
REMARK    4  A    between atoms: C4_5  and  C5_6 
REMARK    5  A    between atoms: C6_7  and  C7_8 
REMARK       I    between atoms: C7_8  and  N2_10 
REMARK    6  A    between atoms: C11_17  and  N6_18 
REMARK    7  A    between atoms: N6_18  and  C12_19 
ROOT
HETATM    1  C7  UNL     1      16.341  -0.080  52.462  1.00  0.00     0.300 C 
HETATM    2  O1  UNL     1      16.953  -1.053  52.982  1.00  0.00    -0.258 OA
HETATM    3  N2  UNL     1      16.942   0.744  51.467  1.00  0.00    -0.319 N 
HETATM    4  C8  UNL     1      16.236   1.860  50.872  1.00  0.00     0.279 C 
HETATM    5  N3  UNL     1      17.023   3.048  51.037  1.00  0.00    -0.252 NA
HETATM    6  C9  UNL     1      18.294   2.984  51.187  1.00  0.00     0.136 A 
HETATM    7  N4  UNL     1      19.120   4.136  51.355  1.00  0.00    -0.335 N 
HETATM    8  C10 UNL     1      20.529   4.017  51.518  1.00  0.00     0.211 A 
HETATM    9  N5  UNL     1      21.092   2.851  51.517  1.00  0.00    -0.226 NA
HETATM   10  C11 UNL     1      20.355   1.644  51.357  1.00  0.00     0.141 A 
HETATM   11  C18 UNL     1      19.051   1.734  51.205  1.00  0.00     0.051 A 
HETATM   12  C19 UNL     1      18.301   0.450  51.044  1.00  0.00     0.175 C 
HETATM   13  H12 UNL     1      18.691   5.092  51.360  1.00  0.00     0.168 HD
ENDROOT
BRANCH   1  14
HETATM   14  C6  UNL     1      15.006   0.136  52.941  1.00  0.00    -0.004 C 
HETATM   15  C5  UNL     1      13.875   0.327  53.341  1.00  0.00    -0.066 C 
BRANCH  15  16
HETATM   16  C4  UNL     1      12.511   0.535  53.838  1.00  0.00     0.367 C 
BRANCH  16  17
HETATM   17  N1  UNL     1      11.943   1.793  53.452  1.00  0.00     0.107 N 
BRANCH  17  18
HETATM   18  C2  UNL     1      11.561   2.638  54.510  1.00  0.00     0.216 C 
HETATM   19  C1  UNL     1      12.303   3.949  54.550  1.00  0.00     0.042 C 
HETATM   20  C3  UNL     1      11.519   1.974  55.863  1.00  0.00     0.042 C 
ENDBRANCH  17  18
BRANCH  17  21
HETATM   21  C20 UNL     1      11.022   1.601  52.378  1.00  0.00     0.216 C 
HETATM   22  C21 UNL     1      10.453   0.241  52.213  1.00  0.00     0.042 C 
HETATM   23  C22 UNL     1      11.697   2.009  51.090  1.00  0.00     0.042 C 
ENDBRANCH  17  21
ENDBRANCH  16  17
ENDBRANCH  15  16
ENDBRANCH   1  14
BRANCH  10  24
HETATM   24  N6  UNL     1      21.049   0.405  51.368  1.00  0.00    -0.340 N 
HETATM   25  H14 UNL     1      21.150  -0.139  50.486  1.00  0.00     0.167 HD
BRANCH  24  26
HETATM   26  C12 UNL     1      21.612  -0.114  52.573  1.00  0.00     0.035 A 
HETATM   27  C13 UNL     1      20.817  -0.659  53.552  1.00  0.00     0.032 A 
HETATM   28  C14 UNL     1      21.384  -1.151  54.710  1.00  0.00     0.046 A 
HETATM   29  C15 UNL     1      22.750  -1.093  54.875  1.00  0.00     0.138 A 
HETATM   30  F1  UNL     1      23.354  -1.570  56.010  1.00  0.00    -0.204 F 
HETATM   31  C16 UNL     1      23.583  -0.560  53.929  1.00  0.00     0.074 A 
HETATM   32 CL1  UNL     1      25.311  -0.494  54.157  1.00  0.00    -0.081 Cl
HETATM   33  C17 UNL     1      22.976  -0.074  52.778  1.00  0.00     0.056 A 
ENDBRANCH  24  26
ENDBRANCH  10  24
TORSDOF 7
ENDMDL
MODEL 8
REMARK VINA RESULT:      -7.8      5.089      8.113
REMARK  7 active torsions:
REMARK  status: ('A' for Active; 'I' for Inactive)
REMARK    1  A    between atoms: C2_2  and  N1_4 
REMARK    2  A    between atoms: N1_4  and  C4_5 
REMARK    3  A    between atoms: N1_4  and  C20_29 
REMARK    4  A    between atoms: C4_5  and  C5_6 
REMARK    5  A    between atoms: C6_7  and  C7_8 
REMARK       I    between atoms: C7_8  and  N2_10 
REMARK    6  A    between atoms: C11_17  and  N6_18 
REMARK    7  A    between atoms: N6_18  and  C12_19 
ROOT
HETATM    1  C7  UNL     1      20.380   0.317  52.426  1.00  0.00     0.300 C 
HETATM    2  O1  UNL     1      20.570   0.244  53.671  1.00  0.00    -0.258 OA
HETATM    3  N2  UNL     1      21.462   0.410  51.504  1.00  0.00    -0.319 N 
HETATM    4  C8  UNL     1      21.241   0.494  50.074  1.00  0.00     0.279 C 
HETATM    5  N3  UNL     1      21.901   1.663  49.571  1.00  0.00    -0.252 NA
HETATM    6  C9  UNL     1      22.902   2.175  50.186  1.00  0.00     0.136 A 
HETATM    7  N4  UNL     1      23.592   3.337  49.726  1.00  0.00    -0.335 N 
HETATM    8  C10 UNL     1      24.700   3.869  50.442  1.00  0.00     0.211 A 
HETATM    9  N5  UNL     1      25.107   3.306  51.534  1.00  0.00    -0.226 NA
HETATM   10  C11 UNL     1      24.484   2.144  52.075  1.00  0.00     0.141 A 
HETATM   11  C18 UNL     1      23.458   1.637  51.426  1.00  0.00     0.051 A 
HETATM   12  C19 UNL     1      22.821   0.420  52.018  1.00  0.00     0.175 C 
HETATM   13  H12 UNL     1      23.285   3.813  48.845  1.00  0.00     0.168 HD
ENDROOT
BRANCH   1  14
HETATM   14  C6  UNL     1      19.008   0.301  52.010  1.00  0.00    -0.004 C 
HETATM   15  C5  UNL     1      17.845   0.278  51.661  1.00  0.00    -0.066 C 
BRANCH  15  16
HETATM   16  C4  UNL     1      16.443   0.273  51.229  1.00  0.00     0.367 C 
BRANCH  16  17
HETATM   17  N1  UNL     1      15.560   0.952  52.131  1.00  0.00     0.107 N 
BRANCH  17  18
HETATM   18  C2  UNL     1      14.785   0.122  52.963  1.00  0.00     0.216 C 
HETATM   19  C1  UNL     1      14.498  -1.238  52.381  1.00  0.00     0.042 C 
HETATM   20  C3  UNL     1      13.542   0.771  53.517  1.00  0.00     0.042 C 
ENDBRANCH  17  18
BRANCH  17  21
HETATM   21  C20 UNL     1      14.907   2.026  51.454  1.00  0.00     0.216 C 
HETATM   22  C21 UNL     1      14.827   1.940  49.975  1.00  0.00     0.042 C 
HETATM   23  C22 UNL     1      15.590   3.318  51.834  1.00  0.00     0.042 C 
ENDBRANCH  17  21
ENDBRANCH  16  17
ENDBRANCH  15  16
ENDBRANCH   1  14
BRANCH  10  24
HETATM   24  N6  UNL     1      24.991   1.587  53.279  1.00  0.00    -0.340 N 
HETATM   25  H14 UNL     1      24.405   1.594  54.138  1.00  0.00     0.167 HD
BRANCH  24  26
HETATM   26  C12 UNL     1      26.298   1.015  53.333  1.00  0.00     0.035 A 
HETATM   27  C13 UNL     1      27.397   1.780  53.641  1.00  0.00     0.032 A 
HETATM   28  C14 UNL     1      28.651   1.205  53.686  1.00  0.00     0.046 A 
HETATM   29  C15 UNL     1      28.791  -0.139  53.420  1.00  0.00     0.138 A 
HETATM   30  F1  UNL     1      30.020  -0.748  53.451  1.00  0.00    -0.204 F 
HETATM   31  C16 UNL     1      27.729  -0.941  53.108  1.00  0.00     0.074 A 
HETATM   32 CL1  UNL     1      27.927  -2.642  52.772  1.00  0.00    -0.081 Cl
HETATM   33  C17 UNL     1      26.483  -0.328  53.072  1.00  0.00     0.056 A 
ENDBRANCH  24  26
ENDBRANCH  10  24
TORSDOF 7
ENDMDL
MODEL 9
REMARK VINA RESULT:      -7.7      3.966      9.286
REMARK  7 active torsions:
REMARK  status: ('A' for Active; 'I' for Inactive)
REMARK    1  A    between atoms: C2_2  and  N1_4 
REMARK    2  A    between atoms: N1_4  and  C4_5 
REMARK    3  A    between atoms: N1_4  and  C20_29 
REMARK    4  A    between atoms: C4_5  and  C5_6 
REMARK    5  A    between atoms: C6_7  and  C7_8 
REMARK       I    between atoms: C7_8  and  N2_10 
REMARK    6  A    between atoms: C11_17  and  N6_18 
REMARK    7  A    between atoms: N6_18  and  C12_19 
ROOT
HETATM    1  C7  UNL     1      26.678   4.419  49.283  1.00  0.00     0.300 C 
HETATM    2  O1  UNL     1      26.995   3.215  49.079  1.00  0.00    -0.258 OA
HETATM    3  N2  UNL     1      25.501   4.776  50.004  1.00  0.00    -0.319 N 
HETATM    4  C8  UNL     1      25.140   6.159  50.237  1.00  0.00     0.279 C 
HETATM    5  N3  UNL     1      23.811   6.381  49.744  1.00  0.00    -0.252 NA
HETATM    6  C9  UNL     1      22.975   5.415  49.639  1.00  0.00     0.136 A 
HETATM    7  N4  UNL     1      21.643   5.585  49.155  1.00  0.00    -0.335 N 
HETATM    8  C10 UNL     1      20.748   4.483  49.057  1.00  0.00     0.211 A 
HETATM    9  N5  UNL     1      21.129   3.296  49.406  1.00  0.00    -0.226 NA
HETATM   10  C11 UNL     1      22.437   3.025  49.900  1.00  0.00     0.141 A 
HETATM   11  C18 UNL     1      23.278   4.032  49.999  1.00  0.00     0.051 A 
HETATM   12  C19 UNL     1      24.646   3.719  50.516  1.00  0.00     0.175 C 
HETATM   13  H12 UNL     1      21.308   6.534  48.866  1.00  0.00     0.168 HD
ENDROOT
BRANCH   1  14
HETATM   14  C6  UNL     1      27.579   5.394  48.742  1.00  0.00    -0.004 C 
HETATM   15  C5  UNL     1      28.348   6.219  48.292  1.00  0.00    -0.066 C 
BRANCH  15  16
HETATM   16  C4  UNL     1      29.263   7.218  47.727  1.00  0.00     0.367 C 
BRANCH  16  17
HETATM   17  N1  UNL     1      30.127   7.821  48.698  1.00  0.00     0.107 N 
BRANCH  17  18
HETATM   18  C2  UNL     1      29.892   9.185  48.957  1.00  0.00     0.216 C 
HETATM   19  C1  UNL     1      28.564   9.467  49.610  1.00  0.00     0.042 C 
HETATM   20  C3  UNL     1      30.151  10.102  47.789  1.00  0.00     0.042 C 
ENDBRANCH  17  18
BRANCH  17  21
HETATM   21  C20 UNL     1      31.473   7.401  48.477  1.00  0.00     0.216 C 
HETATM   22  C21 UNL     1      31.769   6.741  47.181  1.00  0.00     0.042 C 
HETATM   23  C22 UNL     1      31.876   6.476  49.601  1.00  0.00     0.042 C 
ENDBRANCH  17  21
ENDBRANCH  16  17
ENDBRANCH  15  16
ENDBRANCH   1  14
BRANCH  10  24
HETATM   24  N6  UNL     1      22.776   1.694  50.262  1.00  0.00    -0.340 N 
HETATM   25  H14 UNL     1      23.301   1.095  49.592  1.00  0.00     0.167 HD
BRANCH  24  26
HETATM   26  C12 UNL     1      22.407   1.159  51.533  1.00  0.00     0.035 A 
HETATM   27  C13 UNL     1      21.104   1.186  51.964  1.00  0.00     0.032 A 
HETATM   28  C14 UNL     1      20.772   0.664  53.198  1.00  0.00     0.046 A 
HETATM   29  C15 UNL     1      21.756   0.117  53.991  1.00  0.00     0.138 A 
HETATM   30  F1  UNL     1      21.469  -0.410  55.224  1.00  0.00    -0.204 F 
HETATM   31  C16 UNL     1      23.067   0.068  53.606  1.00  0.00     0.074 A 
HETATM   32 CL1  UNL     1      24.300  -0.628  54.625  1.00  0.00    -0.081 Cl
HETATM   33  C17 UNL     1      23.364   0.602  52.358  1.00  0.00     0.056 A 
ENDBRANCH  24  26
ENDBRANCH  10  24
TORSDOF 7
ENDMDL
