MODEL 1
REMARK VINA RESULT:      -7.5      0.000      0.000
REMARK  8 active torsions:
REMARK  status: ('A' for Active; 'I' for Inactive)
REMARK    1  A    between atoms: N1_8  and  C7_9 
REMARK    2  A    between atoms: C12_16  and  C13_17 
REMARK    3  A    between atoms: C13_17  and  N4_18 
REMARK    4  A    between atoms: N4_18  and  C14_19 
REMARK    5  A    between atoms: C14_19  and  N5_21 
REMARK    6  A    between atoms: N5_21  and  C15_22 
REMARK    7  A    between atoms: C15_22  and  C16_23 
REMARK    8  A    between atoms: C16_23  and  N6_24 
ROOT
HETATM    1  C7  UNL     1      25.449  -0.482  54.291  1.00  0.00     0.145 C 
HETATM    2  N2  UNL     1      24.866  -1.176  55.241  1.00  0.00    -0.223 NA
HETATM    3  C8  UNL     1      23.463  -1.320  55.498  1.00  0.00     0.234 C 
HETATM    4  N3  UNL     1      22.448  -1.105  54.738  1.00  0.00    -0.254 NA
HETATM    5  C9  UNL     1      22.409  -0.648  53.383  1.00  0.00     0.119 C 
HETATM    6  C10 UNL     1      23.417  -0.033  52.765  1.00  0.00     0.034 C 
HETATM    7  C11 UNL     1      24.764   0.331  53.255  1.00  0.00     0.010 C 
HETATM    8  C12 UNL     1      25.353   1.396  52.749  1.00  0.00     0.008 C 
ENDROOT
BRANCH   8   9
HETATM    9  C13 UNL     1      25.411   2.561  51.860  1.00  0.00     0.150 C 
BRANCH   9  10
HETATM   10  N4  UNL     1      24.524   3.650  52.240  1.00  0.00    -0.364 N 
HETATM   11  H12 UNL     1      24.110   4.125  53.052  1.00  0.00     0.162 HD
BRANCH  10  12
HETATM   12  C14 UNL     1      24.067   4.289  51.023  1.00  0.00     0.167 C 
HETATM   13  S1  UNL     1      23.544   5.849  50.834  1.00  0.00    -0.041 SA
BRANCH  12  14
HETATM   14  N5  UNL     1      23.989   3.636  49.769  1.00  0.00    -0.366 N 
HETATM   15  H13 UNL     1      24.911   3.657  49.232  1.00  0.00     0.161 HD
BRANCH  14  16
HETATM   16  C15 UNL     1      22.914   2.954  49.089  1.00  0.00     0.152 C 
BRANCH  16  17
HETATM   17  C16 UNL     1      22.185   2.095  50.064  1.00  0.00     0.292 C 
BRANCH  17  18
HETATM   18  N6  UNL     1      20.746   2.211  49.974  1.00  0.00     0.094 N 
HETATM   19  C17 UNL     1      20.269   3.573  50.049  1.00  0.00     0.298 C 
HETATM   20  C18 UNL     1      20.260   4.135  51.448  1.00  0.00     0.198 C 
HETATM   21  O1  UNL     1      20.820   3.281  52.373  1.00  0.00    -0.388 OA
HETATM   22  C19 UNL     1      20.108   2.080  52.344  1.00  0.00     0.198 C 
HETATM   23  C20 UNL     1      20.157   1.415  51.005  1.00  0.00     0.298 C 
ENDBRANCH  17  18
ENDBRANCH  16  17
ENDBRANCH  14  16
ENDBRANCH  12  14
ENDBRANCH  10  12
ENDBRANCH   9  10
ENDBRANCH   8   9
BRANCH   1  24
HETATM   24  N1  UNL     1      26.885  -0.415  54.134  1.00  0.00    -0.304 N 
HETATM   25  C2  UNL     1      27.593  -1.319  53.285  1.00  0.00     0.069 A 
HETATM   26  C1  UNL     1      26.940  -2.240  52.626  1.00  0.00     0.047 C 
HETATM   27  C3  UNL     1      29.038  -1.222  53.146  1.00  0.00     0.142 A 
HETATM   28  F1  UNL     1      29.758  -2.043  52.361  1.00  0.00    -0.204 F 
HETATM   29  C4  UNL     1      29.623  -0.257  53.849  1.00  0.00     0.046 A 
HETATM   30  C5  UNL     1      28.915   0.686  54.732  1.00  0.00     0.021 A 
HETATM   31  C6  UNL     1      27.595   0.585  54.847  1.00  0.00     0.099 A 
ENDBRANCH   1  24
TORSDOF 8
ENDMDL
MODEL 2
REMARK VINA RESULT:      -7.5      2.264      3.284
REMARK  8 active torsions:
REMARK  status: ('A' for Active; 'I' for Inactive)
REMARK    1  A    between atoms: N1_8  and  C7_9 
REMARK    2  A    between atoms: C12_16  and  C13_17 
REMARK    3  A    between atoms: C13_17  and  N4_18 
REMARK    4  A    between atoms: N4_18  and  C14_19 
REMARK    5  A    between atoms: C14_19  and  N5_21 
REMARK    6  A    between atoms: N5_21  and  C15_22 
REMARK    7  A    between atoms: C15_22  and  C16_23 
REMARK    8  A    between atoms: C16_23  and  N6_24 
ROOT
HETATM    1  C7  UNL     1      25.337  -0.556  54.417  1.00  0.00     0.145 C 
HETATM    2  N2  UNL     1      24.850  -1.330  55.359  1.00  0.00    -0.223 NA
HETATM    3  C8  UNL     1      23.474  -1.600  55.658  1.00  0.00     0.234 C 
HETATM    4  N3  UNL     1      22.417  -1.445  54.942  1.00  0.00    -0.254 NA
HETATM    5  C9  UNL     1      22.290  -0.946  53.607  1.00  0.00     0.119 C 
HETATM    6  C10 UNL     1      23.219  -0.228  52.979  1.00  0.00     0.034 C 
HETATM    7  C11 UNL     1      24.549   0.232  53.436  1.00  0.00     0.010 C 
HETATM    8  C12 UNL     1      25.028   1.360  52.952  1.00  0.00     0.008 C 
ENDROOT
BRANCH   8   9
HETATM    9  C13 UNL     1      24.956   2.556  52.106  1.00  0.00     0.150 C 
BRANCH   9  10
HETATM   10  N4  UNL     1      24.501   3.752  52.798  1.00  0.00    -0.364 N 
HETATM   11  H12 UNL     1      24.767   4.433  53.520  1.00  0.00     0.162 HD
BRANCH  10  12
HETATM   12  C14 UNL     1      23.200   4.101  52.263  1.00  0.00     0.167 C 
HETATM   13  S1  UNL     1      22.093   3.091  51.557  1.00  0.00    -0.041 SA
BRANCH  12  14
HETATM   14  N5  UNL     1      22.675   5.415  52.256  1.00  0.00    -0.366 N 
HETATM   15  H13 UNL     1      22.490   5.794  53.236  1.00  0.00     0.161 HD
BRANCH  14  16
HETATM   16  C15 UNL     1      22.348   6.330  51.188  1.00  0.00     0.152 C 
BRANCH  16  17
HETATM   17  C16 UNL     1      23.597   6.980  50.700  1.00  0.00     0.292 C 
BRANCH  17  18
HETATM   18  N6  UNL     1      23.804   6.836  49.275  1.00  0.00     0.094 N 
HETATM   19  C17 UNL     1      23.738   5.468  48.816  1.00  0.00     0.298 C 
HETATM   20  C18 UNL     1      24.982   4.670  49.110  1.00  0.00     0.198 C 
HETATM   21  O1  UNL     1      25.900   5.366  49.867  1.00  0.00    -0.388 OA
HETATM   22  C19 UNL     1      26.241   6.530  49.176  1.00  0.00     0.198 C 
HETATM   23  C20 UNL     1      25.063   7.421  48.936  1.00  0.00     0.298 C 
ENDBRANCH  17  18
ENDBRANCH  16  17
ENDBRANCH  14  16
ENDBRANCH  12  14
ENDBRANCH  10  12
ENDBRANCH   9  10
ENDBRANCH   8   9
BRANCH   1  24
HETATM   24  N1  UNL     1      26.756  -0.362  54.214  1.00  0.00    -0.304 N 
HETATM   25  C2  UNL     1      27.518  -1.215  53.359  1.00  0.00     0.069 A 
HETATM   26  C1  UNL     1      26.933  -2.205  52.737  1.00  0.00     0.047 C 
HETATM   27  C3  UNL     1      28.944  -0.991  53.173  1.00  0.00     0.142 A 
HETATM   28  F1  UNL     1      29.712  -1.759  52.380  1.00  0.00    -0.204 F 
HETATM   29  C4  UNL     1      29.458   0.037  53.841  1.00  0.00     0.046 A 
HETATM   30  C5  UNL     1      28.694   0.930  54.728  1.00  0.00     0.021 A 
HETATM   31  C6  UNL     1      27.393   0.712  54.887  1.00  0.00     0.099 A 
ENDBRANCH   1  24
TORSDOF 8
ENDMDL
MODEL 3
REMARK VINA RESULT:      -7.3      2.960      4.274
REMARK  8 active torsions:
REMARK  status: ('A' for Active; 'I' for Inactive)
REMARK    1  A    between atoms: N1_8  and  C7_9 
REMARK    2  A    between atoms: C12_16  and  C13_17 
REMARK    3  A    between atoms: C13_17  and  N4_18 
REMARK    4  A    between atoms: N4_18  and  C14_19 
REMARK    5  A    between atoms: C14_19  and  N5_21 
REMARK    6  A    between atoms: N5_21  and  C15_22 
REMARK    7  A    between atoms: C15_22  and  C16_23 
REMARK    8  A    between atoms: C16_23  and  N6_24 
ROOT
HETATM    1  C7  UNL     1      25.512  -0.467  54.297  1.00  0.00     0.145 C 
HETATM    2  N2  UNL     1      24.954  -1.151  55.268  1.00  0.00    -0.223 NA
HETATM    3  C8  UNL     1      23.557  -1.316  55.545  1.00  0.00     0.234 C 
HETATM    4  N3  UNL     1      22.529  -1.137  54.794  1.00  0.00    -0.254 NA
HETATM    5  C9  UNL     1      22.465  -0.711  53.429  1.00  0.00     0.119 C 
HETATM    6  C10 UNL     1      23.454  -0.091  52.786  1.00  0.00     0.034 C 
HETATM    7  C11 UNL     1      24.800   0.309  53.252  1.00  0.00     0.010 C 
HETATM    8  C12 UNL     1      25.362   1.374  52.716  1.00  0.00     0.008 C 
ENDROOT
BRANCH   8   9
HETATM    9  C13 UNL     1      25.387   2.520  51.801  1.00  0.00     0.150 C 
BRANCH   9  10
HETATM   10  N4  UNL     1      24.566   3.644  52.226  1.00  0.00    -0.364 N 
HETATM   11  H12 UNL     1      24.029   4.013  53.021  1.00  0.00     0.162 HD
BRANCH  10  12
HETATM   12  C14 UNL     1      24.489   4.575  51.118  1.00  0.00     0.167 C 
HETATM   13  S1  UNL     1      23.127   5.214  50.426  1.00  0.00    -0.041 SA
BRANCH  12  14
HETATM   14  N5  UNL     1      25.619   5.081  50.431  1.00  0.00    -0.366 N 
HETATM   15  H13 UNL     1      26.383   5.429  51.089  1.00  0.00     0.161 HD
BRANCH  14  16
HETATM   16  C15 UNL     1      25.930   5.212  49.028  1.00  0.00     0.152 C 
BRANCH  16  17
HETATM   17  C16 UNL     1      27.032   6.201  48.861  1.00  0.00     0.292 C 
BRANCH  17  18
HETATM   18  N6  UNL     1      26.643   7.377  48.113  1.00  0.00     0.094 N 
HETATM   19  C17 UNL     1      27.686   8.371  48.014  1.00  0.00     0.298 C 
HETATM   20  C18 UNL     1      27.864   9.188  49.269  1.00  0.00     0.198 C 
HETATM   21  O1  UNL     1      27.077   8.750  50.311  1.00  0.00    -0.388 OA
HETATM   22  C19 UNL     1      25.743   8.803  49.901  1.00  0.00     0.198 C 
HETATM   23  C20 UNL     1      25.472   7.934  48.714  1.00  0.00     0.298 C 
ENDBRANCH  17  18
ENDBRANCH  16  17
ENDBRANCH  14  16
ENDBRANCH  12  14
ENDBRANCH  10  12
ENDBRANCH   9  10
ENDBRANCH   8   9
BRANCH   1  24
HETATM   24  N1  UNL     1      26.945  -0.377  54.121  1.00  0.00    -0.304 N 
HETATM   25  C2  UNL     1      27.659  -1.282  53.279  1.00  0.00     0.069 A 
HETATM   26  C1  UNL     1      27.017  -2.227  52.645  1.00  0.00     0.047 C 
HETATM   27  C3  UNL     1      29.101  -1.161  53.121  1.00  0.00     0.142 A 
HETATM   28  F1  UNL     1      29.827  -1.982  52.342  1.00  0.00    -0.204 F 
HETATM   29  C4  UNL     1      29.675  -0.173  53.800  1.00  0.00     0.046 A 
HETATM   30  C5  UNL     1      28.960   0.773  54.674  1.00  0.00     0.021 A 
HETATM   31  C6  UNL     1      27.644   0.649  54.807  1.00  0.00     0.099 A 
ENDBRANCH   1  24
TORSDOF 8
ENDMDL
MODEL 4
REMARK VINA RESULT:      -7.2      1.656      2.164
REMARK  8 active torsions:
REMARK  status: ('A' for Active; 'I' for Inactive)
REMARK    1  A    between atoms: N1_8  and  C7_9 
REMARK    2  A    between atoms: C12_16  and  C13_17 
REMARK    3  A    between atoms: C13_17  and  N4_18 
REMARK    4  A    between atoms: N4_18  and  C14_19 
REMARK    5  A    between atoms: C14_19  and  N5_21 
REMARK    6  A    between atoms: N5_21  and  C15_22 
REMARK    7  A    between atoms: C15_22  and  C16_23 
REMARK    8  A    between atoms: C16_23  and  N6_24 
ROOT
HETATM    1  C7  UNL     1      25.361  -0.472  54.282  1.00  0.00     0.145 C 
HETATM    2  N2  UNL     1      24.847  -1.133  55.293  1.00  0.00    -0.223 NA
HETATM    3  C8  UNL     1      23.464  -1.378  55.579  1.00  0.00     0.234 C 
HETATM    4  N3  UNL     1      22.430  -1.317  54.817  1.00  0.00    -0.254 NA
HETATM    5  C9  UNL     1      22.343  -0.981  53.429  1.00  0.00     0.119 C 
HETATM    6  C10 UNL     1      23.289  -0.334  52.749  1.00  0.00     0.034 C 
HETATM    7  C11 UNL     1      24.601   0.187  53.191  1.00  0.00     0.010 C 
HETATM    8  C12 UNL     1      25.091   1.254  52.591  1.00  0.00     0.008 C 
ENDROOT
BRANCH   8   9
HETATM    9  C13 UNL     1      25.040   2.341  51.608  1.00  0.00     0.150 C 
BRANCH   9  10
HETATM   10  N4  UNL     1      26.244   2.478  50.803  1.00  0.00    -0.364 N 
HETATM   11  H12 UNL     1      27.074   1.967  50.475  1.00  0.00     0.162 HD
BRANCH  10  12
HETATM   12  C14 UNL     1      26.269   3.828  50.276  1.00  0.00     0.167 C 
HETATM   13  S1  UNL     1      27.148   4.397  48.993  1.00  0.00    -0.041 SA
BRANCH  12  14
HETATM   14  N5  UNL     1      25.521   4.900  50.817  1.00  0.00    -0.366 N 
HETATM   15  H13 UNL     1      25.487   4.887  51.883  1.00  0.00     0.161 HD
BRANCH  14  16
HETATM   16  C15 UNL     1      24.804   5.995  50.208  1.00  0.00     0.152 C 
BRANCH  16  17
HETATM   17  C16 UNL     1      23.463   6.118  50.846  1.00  0.00     0.292 C 
BRANCH  17  18
HETATM   18  N6  UNL     1      22.368   6.082  49.901  1.00  0.00     0.094 N 
HETATM   19  C17 UNL     1      21.071   5.943  50.522  1.00  0.00     0.298 C 
HETATM   20  C18 UNL     1      20.766   4.540  50.979  1.00  0.00     0.198 C 
HETATM   21  O1  UNL     1      21.832   3.681  50.825  1.00  0.00    -0.388 OA
HETATM   22  C19 UNL     1      22.188   3.667  49.475  1.00  0.00     0.198 C 
HETATM   23  C20 UNL     1      22.600   5.017  48.975  1.00  0.00     0.298 C 
ENDBRANCH  17  18
ENDBRANCH  16  17
ENDBRANCH  14  16
ENDBRANCH  12  14
ENDBRANCH  10  12
ENDBRANCH   9  10
ENDBRANCH   8   9
BRANCH   1  24
HETATM   24  N1  UNL     1      26.785  -0.293  54.102  1.00  0.00    -0.304 N 
HETATM   25  C2  UNL     1      27.563  -1.190  53.310  1.00  0.00     0.069 A 
HETATM   26  C1  UNL     1      26.989  -2.210  52.728  1.00  0.00     0.047 C 
HETATM   27  C3  UNL     1      28.993  -0.979  53.146  1.00  0.00     0.142 A 
HETATM   28  F1  UNL     1      29.777  -1.789  52.412  1.00  0.00    -0.204 F 
HETATM   29  C4  UNL     1      29.496   0.081  53.771  1.00  0.00     0.046 A 
HETATM   30  C5  UNL     1      28.714   1.021  54.593  1.00  0.00     0.021 A 
HETATM   31  C6  UNL     1      27.410   0.814  54.732  1.00  0.00     0.099 A 
ENDBRANCH   1  24
TORSDOF 8
ENDMDL
MODEL 5
REMARK VINA RESULT:      -7.0      4.789      6.323
REMARK  8 active torsions:
REMARK  status: ('A' for Active; 'I' for Inactive)
REMARK    1  A    between atoms: N1_8  and  C7_9 
REMARK    2  A    between atoms: C12_16  and  C13_17 
REMARK    3  A    between atoms: C13_17  and  N4_18 
REMARK    4  A    between atoms: N4_18  and  C14_19 
REMARK    5  A    between atoms: C14_19  and  N5_21 
REMARK    6  A    between atoms: N5_21  and  C15_22 
REMARK    7  A    between atoms: C15_22  and  C16_23 
REMARK    8  A    between atoms: C16_23  and  N6_24 
ROOT
HETATM    1  C7  UNL     1      24.453   0.745  53.070  1.00  0.00     0.145 C 
HETATM    2  N2  UNL     1      23.665   0.119  53.912  1.00  0.00    -0.223 NA
HETATM    3  C8  UNL     1      22.239  -0.024  53.850  1.00  0.00     0.234 C 
HETATM    4  N3  UNL     1      21.428   0.116  52.863  1.00  0.00    -0.254 NA
HETATM    5  C9  UNL     1      21.703   0.463  51.503  1.00  0.00     0.119 C 
HETATM    6  C10 UNL     1      22.829   1.042  51.086  1.00  0.00     0.034 C 
HETATM    7  C11 UNL     1      24.029   1.463  51.842  1.00  0.00     0.010 C 
HETATM    8  C12 UNL     1      24.723   2.493  51.401  1.00  0.00     0.008 C 
ENDROOT
BRANCH   8   9
HETATM    9  C13 UNL     1      24.989   3.586  50.459  1.00  0.00     0.150 C 
BRANCH   9  10
HETATM   10  N4  UNL     1      26.353   4.088  50.494  1.00  0.00    -0.364 N 
HETATM   11  H12 UNL     1      27.239   4.021  51.011  1.00  0.00     0.162 HD
BRANCH  10  12
HETATM   12  C14 UNL     1      26.507   5.016  49.391  1.00  0.00     0.167 C 
HETATM   13  S1  UNL     1      25.372   6.051  48.774  1.00  0.00    -0.041 SA
BRANCH  12  14
HETATM   14  N5  UNL     1      27.702   5.165  48.646  1.00  0.00    -0.366 N 
HETATM   15  H13 UNL     1      28.188   4.235  48.450  1.00  0.00     0.161 HD
BRANCH  14  16
HETATM   16  C15 UNL     1      28.377   6.320  48.106  1.00  0.00     0.152 C 
BRANCH  16  17
HETATM   17  C16 UNL     1      29.850   6.125  48.222  1.00  0.00     0.292 C 
BRANCH  17  18
HETATM   18  N6  UNL     1      30.622   7.118  47.507  1.00  0.00     0.094 N 
HETATM   19  C17 UNL     1      32.046   6.875  47.535  1.00  0.00     0.298 C 
HETATM   20  C18 UNL     1      32.700   7.256  48.839  1.00  0.00     0.198 C 
HETATM   21  O1  UNL     1      31.794   7.654  49.798  1.00  0.00    -0.388 OA
HETATM   22  C19 UNL     1      31.078   8.743  49.295  1.00  0.00     0.198 C 
HETATM   23  C20 UNL     1      30.321   8.406  48.049  1.00  0.00     0.298 C 
ENDBRANCH  17  18
ENDBRANCH  16  17
ENDBRANCH  14  16
ENDBRANCH  12  14
ENDBRANCH  10  12
ENDBRANCH   9  10
ENDBRANCH   8   9
BRANCH   1  24
HETATM   24  N1  UNL     1      25.887   0.820  53.242  1.00  0.00    -0.304 N 
HETATM   25  C2  UNL     1      26.739  -0.290  52.958  1.00  0.00     0.069 A 
HETATM   26  C1  UNL     1      26.225  -1.413  52.531  1.00  0.00     0.047 C 
HETATM   27  C3  UNL     1      28.179  -0.180  53.138  1.00  0.00     0.142 A 
HETATM   28  F1  UNL     1      29.031  -1.190  52.886  1.00  0.00    -0.204 F 
HETATM   29  C4  UNL     1      28.618   0.997  53.574  1.00  0.00     0.046 A 
HETATM   30  C5  UNL     1      27.760   2.155  53.874  1.00  0.00     0.021 A 
HETATM   31  C6  UNL     1      26.447   2.038  53.704  1.00  0.00     0.099 A 
ENDBRANCH   1  24
TORSDOF 8
ENDMDL
MODEL 6
REMARK VINA RESULT:      -7.0      2.393      4.358
REMARK  8 active torsions:
REMARK  status: ('A' for Active; 'I' for Inactive)
REMARK    1  A    between atoms: N1_8  and  C7_9 
REMARK    2  A    between atoms: C12_16  and  C13_17 
REMARK    3  A    between atoms: C13_17  and  N4_18 
REMARK    4  A    between atoms: N4_18  and  C14_19 
REMARK    5  A    between atoms: C14_19  and  N5_21 
REMARK    6  A    between atoms: N5_21  and  C15_22 
REMARK    7  A    between atoms: C15_22  and  C16_23 
REMARK    8  A    between atoms: C16_23  and  N6_24 
ROOT
HETATM    1  C7  UNL     1      26.195   1.993  51.530  1.00  0.00     0.145 C 
HETATM    2  N2  UNL     1      26.701   2.656  50.517  1.00  0.00    -0.223 NA
HETATM    3  C8  UNL     1      26.102   3.723  49.770  1.00  0.00     0.234 C 
HETATM    4  N3  UNL     1      25.119   4.499  50.062  1.00  0.00    -0.254 NA
HETATM    5  C9  UNL     1      24.310   4.535  51.241  1.00  0.00     0.119 C 
HETATM    6  C10 UNL     1      24.212   3.537  52.118  1.00  0.00     0.034 C 
HETATM    7  C11 UNL     1      24.855   2.204  52.133  1.00  0.00     0.010 C 
HETATM    8  C12 UNL     1      24.214   1.201  52.697  1.00  0.00     0.008 C 
ENDROOT
BRANCH   8   9
HETATM    9  C13 UNL     1      23.074   0.607  53.404  1.00  0.00     0.150 C 
BRANCH   9  10
HETATM   10  N4  UNL     1      22.127  -0.082  52.541  1.00  0.00    -0.364 N 
HETATM   11  H12 UNL     1      22.061  -0.778  51.788  1.00  0.00     0.162 HD
BRANCH  10  12
HETATM   12  C14 UNL     1      20.800   0.392  52.878  1.00  0.00     0.167 C 
HETATM   13  S1  UNL     1      19.465  -0.515  53.248  1.00  0.00    -0.041 SA
BRANCH  12  14
HETATM   14  N5  UNL     1      20.440   1.760  52.930  1.00  0.00    -0.366 N 
HETATM   15  H13 UNL     1      20.666   2.215  53.868  1.00  0.00     0.161 HD
BRANCH  14  16
HETATM   16  C15 UNL     1      19.833   2.646  51.965  1.00  0.00     0.152 C 
BRANCH  16  17
HETATM   17  C16 UNL     1      20.826   2.965  50.901  1.00  0.00     0.292 C 
BRANCH  17  18
HETATM   18  N6  UNL     1      20.975   1.915  49.917  1.00  0.00     0.094 N 
HETATM   19  C17 UNL     1      22.288   1.866  49.316  1.00  0.00     0.298 C 
HETATM   20  C18 UNL     1      22.513   2.925  48.268  1.00  0.00     0.198 C 
HETATM   21  O1  UNL     1      21.464   3.813  48.167  1.00  0.00    -0.388 OA
HETATM   22  C19 UNL     1      20.309   3.089  47.862  1.00  0.00     0.198 C 
HETATM   23  C20 UNL     1      19.969   2.081  48.915  1.00  0.00     0.298 C 
ENDBRANCH  17  18
ENDBRANCH  16  17
ENDBRANCH  14  16
ENDBRANCH  12  14
ENDBRANCH  10  12
ENDBRANCH   9  10
ENDBRANCH   8   9
BRANCH   1  24
HETATM   24  N1  UNL     1      26.903   0.929  52.207  1.00  0.00    -0.304 N 
HETATM   25  C2  UNL     1      27.921   1.196  53.172  1.00  0.00     0.069 A 
HETATM   26  C1  UNL     1      28.236   2.431  53.461  1.00  0.00     0.047 C 
HETATM   27  C3  UNL     1      28.612   0.103  53.838  1.00  0.00     0.142 A 
HETATM   28  F1  UNL     1      29.577   0.293  54.755  1.00  0.00    -0.204 F 
HETATM   29  C4  UNL     1      28.231  -1.121  53.485  1.00  0.00     0.046 A 
HETATM   30  C5  UNL     1      27.184  -1.422  52.493  1.00  0.00     0.021 A 
HETATM   31  C6  UNL     1      26.563  -0.412  51.895  1.00  0.00     0.099 A 
ENDBRANCH   1  24
TORSDOF 8
ENDMDL
MODEL 7
REMARK VINA RESULT:      -6.8      3.321      7.219
REMARK  8 active torsions:
REMARK  status: ('A' for Active; 'I' for Inactive)
REMARK    1  A    between atoms: N1_8  and  C7_9 
REMARK    2  A    between atoms: C12_16  and  C13_17 
REMARK    3  A    between atoms: C13_17  and  N4_18 
REMARK    4  A    between atoms: N4_18  and  C14_19 
REMARK    5  A    between atoms: C14_19  and  N5_21 
REMARK    6  A    between atoms: N5_21  and  C15_22 
REMARK    7  A    between atoms: C15_22  and  C16_23 
REMARK    8  A    between atoms: C16_23  and  N6_24 
ROOT
HETATM    1  C7  UNL     1      24.442   4.640  49.367  1.00  0.00     0.145 C 
HETATM    2  N2  UNL     1      24.521   5.834  48.829  1.00  0.00    -0.223 NA
HETATM    3  C8  UNL     1      25.698   6.614  48.576  1.00  0.00     0.234 C 
HETATM    4  N3  UNL     1      26.932   6.263  48.498  1.00  0.00    -0.254 NA
HETATM    5  C9  UNL     1      27.518   4.966  48.643  1.00  0.00     0.119 C 
HETATM    6  C10 UNL     1      26.919   3.929  49.227  1.00  0.00     0.034 C 
HETATM    7  C11 UNL     1      25.581   3.819  49.848  1.00  0.00     0.010 C 
HETATM    8  C12 UNL     1      25.415   2.969  50.842  1.00  0.00     0.008 C 
ENDROOT
BRANCH   8   9
HETATM    9  C13 UNL     1      25.887   1.951  51.786  1.00  0.00     0.150 C 
BRANCH   9  10
HETATM   10  N4  UNL     1      27.076   2.332  52.533  1.00  0.00    -0.364 N 
HETATM   11  H12 UNL     1      27.824   3.034  52.580  1.00  0.00     0.162 HD
BRANCH  10  12
HETATM   12  C14 UNL     1      27.256   1.362  53.595  1.00  0.00     0.167 C 
HETATM   13  S1  UNL     1      28.682   0.819  54.238  1.00  0.00    -0.041 SA
BRANCH  12  14
HETATM   14  N5  UNL     1      26.189   0.705  54.253  1.00  0.00    -0.366 N 
HETATM   15  H13 UNL     1      25.830   1.242  55.102  1.00  0.00     0.161 HD
BRANCH  14  16
HETATM   16  C15 UNL     1      25.503  -0.539  53.997  1.00  0.00     0.152 C 
BRANCH  16  17
HETATM   17  C16 UNL     1      24.052  -0.367  54.289  1.00  0.00     0.292 C 
BRANCH  17  18
HETATM   18  N6  UNL     1      23.196  -0.671  53.163  1.00  0.00     0.094 N 
HETATM   19  C17 UNL     1      22.501   0.481  52.637  1.00  0.00     0.298 C 
HETATM   20  C18 UNL     1      21.315   0.903  53.466  1.00  0.00     0.198 C 
HETATM   21  O1  UNL     1      21.192   0.180  54.634  1.00  0.00    -0.388 OA
HETATM   22  C19 UNL     1      21.074  -1.170  54.299  1.00  0.00     0.198 C 
HETATM   23  C20 UNL     1      22.267  -1.684  53.556  1.00  0.00     0.298 C 
ENDBRANCH  17  18
ENDBRANCH  16  17
ENDBRANCH  14  16
ENDBRANCH  12  14
ENDBRANCH  10  12
ENDBRANCH   9  10
ENDBRANCH   8   9
BRANCH   1  24
HETATM   24  N1  UNL     1      23.187   3.951  49.571  1.00  0.00    -0.304 N 
HETATM   25  C2  UNL     1      22.283   4.324  50.612  1.00  0.00     0.069 A 
HETATM   26  C1  UNL     1      22.584   5.311  51.413  1.00  0.00     0.047 C 
HETATM   27  C3  UNL     1      21.026   3.612  50.788  1.00  0.00     0.142 A 
HETATM   28  F1  UNL     1      20.135   3.919  51.748  1.00  0.00    -0.204 F 
HETATM   29  C4  UNL     1      20.798   2.623  49.930  1.00  0.00     0.046 A 
HETATM   30  C5  UNL     1      21.714   2.219  48.849  1.00  0.00     0.021 A 
HETATM   31  C6  UNL     1      22.857   2.879  48.702  1.00  0.00     0.099 A 
ENDBRANCH   1  24
TORSDOF 8
ENDMDL
MODEL 8
REMARK VINA RESULT:      -6.6      6.293      9.273
REMARK  8 active torsions:
REMARK  status: ('A' for Active; 'I' for Inactive)
REMARK    1  A    between atoms: N1_8  and  C7_9 
REMARK    2  A    between atoms: C12_16  and  C13_17 
REMARK    3  A    between atoms: C13_17  and  N4_18 
REMARK    4  A    between atoms: N4_18  and  C14_19 
REMARK    5  A    between atoms: C14_19  and  N5_21 
REMARK    6  A    between atoms: N5_21  and  C15_22 
REMARK    7  A    between atoms: C15_22  and  C16_23 
REMARK    8  A    between atoms: C16_23  and  N6_24 
ROOT
HETATM    1  C7  UNL     1      24.495   2.747  50.920  1.00  0.00     0.145 C 
HETATM    2  N2  UNL     1      24.038   1.665  51.504  1.00  0.00    -0.223 NA
HETATM    3  C8  UNL     1      24.787   0.586  52.080  1.00  0.00     0.234 C 
HETATM    4  N3  UNL     1      26.014   0.531  52.460  1.00  0.00    -0.254 NA
HETATM    5  C9  UNL     1      27.023   1.544  52.422  1.00  0.00     0.119 C 
HETATM    6  C10 UNL     1      26.963   2.640  51.666  1.00  0.00     0.034 C 
HETATM    7  C11 UNL     1      25.923   3.096  50.718  1.00  0.00     0.010 C 
HETATM    8  C12 UNL     1      26.289   3.827  49.684  1.00  0.00     0.008 C 
ENDROOT
BRANCH   8   9
HETATM    9  C13 UNL     1      27.283   4.518  48.855  1.00  0.00     0.150 C 
BRANCH   9  10
HETATM   10  N4  UNL     1      27.336   5.957  49.059  1.00  0.00    -0.364 N 
HETATM   11  H12 UNL     1      26.819   6.748  49.463  1.00  0.00     0.162 HD
BRANCH  10  12
HETATM   12  C14 UNL     1      28.576   6.436  48.481  1.00  0.00     0.167 C 
HETATM   13  S1  UNL     1      28.762   7.470  47.200  1.00  0.00    -0.041 SA
BRANCH  12  14
HETATM   14  N5  UNL     1      29.860   6.061  48.944  1.00  0.00    -0.366 N 
HETATM   15  H13 UNL     1      29.849   5.157  49.511  1.00  0.00     0.161 HD
BRANCH  14  16
HETATM   16  C15 UNL     1      31.164   6.661  48.795  1.00  0.00     0.152 C 
BRANCH  16  17
HETATM   17  C16 UNL     1      32.192   5.584  48.713  1.00  0.00     0.292 C 
BRANCH  17  18
HETATM   18  N6  UNL     1      33.003   5.651  47.518  1.00  0.00     0.094 N 
HETATM   19  C17 UNL     1      33.718   4.428  47.234  1.00  0.00     0.298 C 
HETATM   20  C18 UNL     1      34.941   4.229  48.093  1.00  0.00     0.198 C 
HETATM   21  O1  UNL     1      35.076   5.195  49.067  1.00  0.00    -0.388 OA
HETATM   22  C19 UNL     1      35.142   6.439  48.439  1.00  0.00     0.198 C 
HETATM   23  C20 UNL     1      33.912   6.748  47.644  1.00  0.00     0.298 C 
ENDBRANCH  17  18
ENDBRANCH  16  17
ENDBRANCH  14  16
ENDBRANCH  12  14
ENDBRANCH  10  12
ENDBRANCH   9  10
ENDBRANCH   8   9
BRANCH   1  24
HETATM   24  N1  UNL     1      23.631   3.771  50.375  1.00  0.00    -0.304 N 
HETATM   25  C2  UNL     1      23.135   4.844  51.175  1.00  0.00     0.069 A 
HETATM   26  C1  UNL     1      23.459   4.916  52.440  1.00  0.00     0.047 C 
HETATM   27  C3  UNL     1      22.271   5.860  50.595  1.00  0.00     0.142 A 
HETATM   28  F1  UNL     1      21.775   6.894  51.299  1.00  0.00    -0.204 F 
HETATM   29  C4  UNL     1      21.992   5.712  49.304  1.00  0.00     0.046 A 
HETATM   30  C5  UNL     1      22.491   4.615  48.457  1.00  0.00     0.021 A 
HETATM   31  C6  UNL     1      23.279   3.695  49.002  1.00  0.00     0.099 A 
ENDBRANCH   1  24
TORSDOF 8
ENDMDL
MODEL 9
REMARK VINA RESULT:      -6.6      3.779      6.128
REMARK  8 active torsions:
REMARK  status: ('A' for Active; 'I' for Inactive)
REMARK    1  A    between atoms: N1_8  and  C7_9 
REMARK    2  A    between atoms: C12_16  and  C13_17 
REMARK    3  A    between atoms: C13_17  and  N4_18 
REMARK    4  A    between atoms: N4_18  and  C14_19 
REMARK    5  A    between atoms: C14_19  and  N5_21 
REMARK    6  A    between atoms: N5_21  and  C15_22 
REMARK    7  A    between atoms: C15_22  and  C16_23 
REMARK    8  A    between atoms: C16_23  and  N6_24 
ROOT
HETATM    1  C7  UNL     1      25.006  -0.233  53.181  1.00  0.00     0.145 C 
HETATM    2  N2  UNL     1      25.763  -1.271  52.912  1.00  0.00    -0.223 NA
HETATM    3  C8  UNL     1      27.190  -1.373  53.009  1.00  0.00     0.234 C 
HETATM    4  N3  UNL     1      28.038  -0.651  53.652  1.00  0.00    -0.254 NA
HETATM    5  C9  UNL     1      27.812   0.493  54.480  1.00  0.00     0.119 C 
HETATM    6  C10 UNL     1      26.702   1.230  54.463  1.00  0.00     0.034 C 
HETATM    7  C11 UNL     1      25.474   1.095  53.648  1.00  0.00     0.010 C 
HETATM    8  C12 UNL     1      24.795   2.184  53.346  1.00  0.00     0.008 C 
ENDROOT
BRANCH   8   9
HETATM    9  C13 UNL     1      24.563   3.632  53.376  1.00  0.00     0.150 C 
BRANCH   9  10
HETATM   10  N4  UNL     1      23.482   4.083  52.514  1.00  0.00    -0.364 N 
HETATM   11  H12 UNL     1      22.473   4.277  52.497  1.00  0.00     0.162 HD
BRANCH  10  12
HETATM   12  C14 UNL     1      24.048   4.358  51.208  1.00  0.00     0.167 C 
HETATM   13  S1  UNL     1      23.825   3.502  49.808  1.00  0.00    -0.041 SA
BRANCH  12  14
HETATM   14  N5  UNL     1      24.921   5.439  50.938  1.00  0.00    -0.366 N 
HETATM   15  H13 UNL     1      25.042   6.094  51.771  1.00  0.00     0.161 HD
BRANCH  14  16
HETATM   16  C15 UNL     1      25.669   5.819  49.763  1.00  0.00     0.152 C 
BRANCH  16  17
HETATM   17  C16 UNL     1      25.489   7.278  49.519  1.00  0.00     0.292 C 
BRANCH  17  18
HETATM   18  N6  UNL     1      26.398   7.813  48.529  1.00  0.00     0.094 N 
HETATM   19  C17 UNL     1      27.721   8.084  49.043  1.00  0.00     0.298 C 
HETATM   20  C18 UNL     1      27.806   9.351  49.855  1.00  0.00     0.198 C 
HETATM   21  O1  UNL     1      26.579   9.948  50.051  1.00  0.00    -0.388 OA
HETATM   22  C19 UNL     1      26.027  10.229  48.800  1.00  0.00     0.198 C 
HETATM   23  C20 UNL     1      25.821   8.998  47.973  1.00  0.00     0.298 C 
ENDBRANCH  17  18
ENDBRANCH  16  17
ENDBRANCH  14  16
ENDBRANCH  12  14
ENDBRANCH  10  12
ENDBRANCH   9  10
ENDBRANCH   8   9
BRANCH   1  24
HETATM   24  N1  UNL     1      23.566  -0.254  53.043  1.00  0.00    -0.304 N 
HETATM   25  C2  UNL     1      22.721  -0.823  54.043  1.00  0.00     0.069 A 
HETATM   26  C1  UNL     1      23.248  -1.347  55.119  1.00  0.00     0.047 C 
HETATM   27  C3  UNL     1      21.276  -0.824  53.876  1.00  0.00     0.142 A 
HETATM   28  F1  UNL     1      20.431  -1.344  54.784  1.00  0.00    -0.204 F 
HETATM   29  C4  UNL     1      20.824  -0.271  52.755  1.00  0.00     0.046 A 
HETATM   30  C5  UNL     1      21.675   0.322  51.708  1.00  0.00     0.021 A 
HETATM   31  C6  UNL     1      22.992   0.316  51.877  1.00  0.00     0.099 A 
ENDBRANCH   1  24
TORSDOF 8
ENDMDL
