MODEL 1
REMARK VINA RESULT:      -8.4      0.000      0.000
REMARK  6 active torsions:
REMARK  status: ('A' for Active; 'I' for Inactive)
REMARK    1  A    between atoms: C9_13  and  C10_14 
REMARK    2  A    between atoms: C11_15  and  N3_16 
REMARK    3  A    between atoms: C12_17  and  N4_18 
REMARK    4  A    between atoms: N4_18  and  C13_19 
REMARK    5  A    between atoms: N5_23  and  C17_24 
REMARK    6  A    between atoms: C20_27  and  O3_28 
ROOT
HETATM    1  C1  UNL     1      21.508   0.920  49.195  1.00  0.00     0.066 C 
HETATM    2  C2  UNL     1      21.426   2.015  49.940  1.00  0.00     0.123 C 
HETATM    3  N1  UNL     1      21.137   3.243  49.411  1.00  0.00    -0.220 NA
HETATM    4  C3  UNL     1      20.264   3.695  48.591  1.00  0.00     0.253 C 
HETATM    5  O1  UNL     1      20.881   4.907  48.805  1.00  0.00    -0.345 OA
HETATM    6  C4  UNL     1      20.517   6.220  48.651  1.00  0.00     0.176 C 
HETATM    7  C5  UNL     1      21.446   7.263  49.162  1.00  0.00     0.029 C 
HETATM    8  C6  UNL     1      21.684   7.309  50.683  1.00  0.00     0.029 C 
HETATM    9  C7  UNL     1      22.033   5.951  51.013  1.00  0.00     0.177 C 
HETATM   10  O2  UNL     1      22.428   5.416  52.207  1.00  0.00    -0.336 OA
HETATM   11  C8  UNL     1      22.718   4.027  52.273  1.00  0.00     0.160 C 
HETATM   12  N2  UNL     1      23.916   4.536  52.211  1.00  0.00    -0.280 NA
HETATM   13  C9  UNL     1      22.575   2.539  52.356  1.00  0.00     0.192 C 
HETATM   14  N5  UNL     1      21.627   2.036  51.342  1.00  0.00    -0.316 N 
HETATM   15  H12 UNL     1      24.724   3.903  52.220  1.00  0.00     0.189 HD
ENDROOT
BRANCH  13  16
HETATM   16  C10 UNL     1      23.873   1.853  52.315  1.00  0.00     0.026 C 
HETATM   17  C11 UNL     1      23.987   0.633  52.820  1.00  0.00     0.116 C 
BRANCH  17  18
HETATM   18  N3  UNL     1      25.227  -0.068  52.801  1.00  0.00    -0.256 NA
HETATM   19  C12 UNL     1      25.736  -0.537  53.897  1.00  0.00     0.207 C 
BRANCH  19  20
HETATM   20  N4  UNL     1      26.968  -1.208  53.724  1.00  0.00    -0.351 N 
HETATM   21  H17 UNL     1      26.994  -2.242  53.619  1.00  0.00     0.166 HD
BRANCH  20  22
HETATM   22  C13 UNL     1      28.277  -0.645  53.669  1.00  0.00     0.032 A 
HETATM   23  C14 UNL     1      28.964   0.481  53.759  1.00  0.00     0.029 A 
HETATM   24  C15 UNL     1      30.196  -0.266  53.524  1.00  0.00     0.004 A 
HETATM   25  C16 UNL     1      29.490  -1.394  53.436  1.00  0.00     0.029 A 
ENDBRANCH  20  22
ENDBRANCH  19  20
ENDBRANCH  17  18
ENDBRANCH  13  16
BRANCH  14  26
HETATM   26  C17 UNL     1      20.432   1.290  51.676  1.00  0.00     0.037 A 
HETATM   27  C18 UNL     1      20.566   0.140  52.426  1.00  0.00     0.032 A 
HETATM   28  C19 UNL     1      19.509  -0.670  52.817  1.00  0.00     0.039 A 
HETATM   29  C20 UNL     1      18.236  -0.267  52.408  1.00  0.00     0.068 A 
HETATM   30  C22 UNL     1      18.083   0.883  51.655  1.00  0.00     0.039 A 
HETATM   31  C23 UNL     1      19.168   1.659  51.288  1.00  0.00     0.032 A 
BRANCH  29  32
HETATM   32  O3  UNL     1      17.215  -1.108  52.823  1.00  0.00    -0.356 OA
HETATM   33  C21 UNL     1      17.506  -2.362  53.402  1.00  0.00     0.210 C 
ENDBRANCH  29  32
ENDBRANCH  14  26
TORSDOF 6
ENDMDL
MODEL 2
REMARK VINA RESULT:      -8.3      2.665      7.211
REMARK  6 active torsions:
REMARK  status: ('A' for Active; 'I' for Inactive)
REMARK    1  A    between atoms: C9_13  and  C10_14 
REMARK    2  A    between atoms: C11_15  and  N3_16 
REMARK    3  A    between atoms: C12_17  and  N4_18 
REMARK    4  A    between atoms: N4_18  and  C13_19 
REMARK    5  A    between atoms: N5_23  and  C17_24 
REMARK    6  A    between atoms: C20_27  and  O3_28 
ROOT
HETATM    1  C1  UNL     1      22.669   4.399  52.384  1.00  0.00     0.066 C 
HETATM    2  C2  UNL     1      22.794   3.893  51.164  1.00  0.00     0.123 C 
HETATM    3  N1  UNL     1      22.734   4.667  50.038  1.00  0.00    -0.220 NA
HETATM    4  C3  UNL     1      23.260   5.774  49.669  1.00  0.00     0.253 C 
HETATM    5  O1  UNL     1      22.555   5.571  48.504  1.00  0.00    -0.345 OA
HETATM    6  C4  UNL     1      22.658   6.030  47.215  1.00  0.00     0.176 C 
HETATM    7  C5  UNL     1      21.768   5.426  46.190  1.00  0.00     0.029 C 
HETATM    8  C6  UNL     1      21.966   3.931  45.877  1.00  0.00     0.029 C 
HETATM    9  C7  UNL     1      21.933   3.305  47.173  1.00  0.00     0.177 C 
HETATM   10  O2  UNL     1      21.978   1.980  47.504  1.00  0.00    -0.336 OA
HETATM   11  C8  UNL     1      21.930   1.616  48.877  1.00  0.00     0.160 C 
HETATM   12  N2  UNL     1      20.702   1.386  48.508  1.00  0.00    -0.280 NA
HETATM   13  C9  UNL     1      22.313   1.352  50.301  1.00  0.00     0.192 C 
HETATM   14  N5  UNL     1      22.999   2.517  50.893  1.00  0.00    -0.316 N 
HETATM   15  H12 UNL     1      20.034   1.033  49.203  1.00  0.00     0.189 HD
ENDROOT
BRANCH  13  16
HETATM   16  C10 UNL     1      21.175   0.888  51.104  1.00  0.00     0.026 C 
HETATM   17  C11 UNL     1      21.386   0.097  52.147  1.00  0.00     0.116 C 
BRANCH  17  18
HETATM   18  N3  UNL     1      20.311  -0.376  52.953  1.00  0.00    -0.256 NA
HETATM   19  C12 UNL     1      19.121  -0.505  52.456  1.00  0.00     0.207 C 
BRANCH  19  20
HETATM   20  N4  UNL     1      18.158  -0.984  53.372  1.00  0.00    -0.351 N 
HETATM   21  H17 UNL     1      18.010  -0.501  54.281  1.00  0.00     0.166 HD
BRANCH  20  22
HETATM   22  C13 UNL     1      17.295  -2.110  53.234  1.00  0.00     0.032 A 
HETATM   23  C14 UNL     1      16.146  -2.524  52.730  1.00  0.00     0.029 A 
HETATM   24  C15 UNL     1      16.404  -3.857  53.265  1.00  0.00     0.004 A 
HETATM   25  C16 UNL     1      17.561  -3.425  53.768  1.00  0.00     0.029 A 
ENDBRANCH  20  22
ENDBRANCH  19  20
ENDBRANCH  17  18
ENDBRANCH  13  16
BRANCH  14  26
HETATM   26  C17 UNL     1      24.337   2.454  51.442  1.00  0.00     0.037 A 
HETATM   27  C18 UNL     1      25.396   2.793  50.626  1.00  0.00     0.032 A 
HETATM   28  C19 UNL     1      26.727   2.777  51.018  1.00  0.00     0.039 A 
HETATM   29  C20 UNL     1      26.979   2.387  52.336  1.00  0.00     0.068 A 
HETATM   30  C22 UNL     1      25.930   2.042  53.168  1.00  0.00     0.039 A 
HETATM   31  C23 UNL     1      24.618   2.073  52.730  1.00  0.00     0.032 A 
BRANCH  29  32
HETATM   32  O3  UNL     1      28.322   2.388  52.680  1.00  0.00    -0.356 OA
HETATM   33  C21 UNL     1      28.780   1.653  53.794  1.00  0.00     0.210 C 
ENDBRANCH  29  32
ENDBRANCH  14  26
TORSDOF 6
ENDMDL
MODEL 3
REMARK VINA RESULT:      -8.1      3.254      6.624
REMARK  6 active torsions:
REMARK  status: ('A' for Active; 'I' for Inactive)
REMARK    1  A    between atoms: C9_13  and  C10_14 
REMARK    2  A    between atoms: C11_15  and  N3_16 
REMARK    3  A    between atoms: C12_17  and  N4_18 
REMARK    4  A    between atoms: N4_18  and  C13_19 
REMARK    5  A    between atoms: N5_23  and  C17_24 
REMARK    6  A    between atoms: C20_27  and  O3_28 
ROOT
HETATM    1  C1  UNL     1      24.129   6.631  51.488  1.00  0.00     0.066 C 
HETATM    2  C2  UNL     1      23.528   5.801  50.645  1.00  0.00     0.123 C 
HETATM    3  N1  UNL     1      22.171   5.783  50.473  1.00  0.00    -0.220 NA
HETATM    4  C3  UNL     1      21.268   6.672  50.294  1.00  0.00     0.253 C 
HETATM    5  O1  UNL     1      20.404   5.600  50.260  1.00  0.00    -0.345 OA
HETATM    6  C4  UNL     1      19.144   5.386  49.764  1.00  0.00     0.176 C 
HETATM    7  C5  UNL     1      18.612   3.998  49.794  1.00  0.00     0.029 C 
HETATM    8  C6  UNL     1      19.337   2.947  48.933  1.00  0.00     0.029 C 
HETATM    9  C7  UNL     1      20.719   3.091  49.313  1.00  0.00     0.177 C 
HETATM   10  O2  UNL     1      21.810   2.362  48.931  1.00  0.00    -0.336 OA
HETATM   11  C8  UNL     1      23.083   2.710  49.456  1.00  0.00     0.160 C 
HETATM   12  N2  UNL     1      22.773   1.685  50.197  1.00  0.00    -0.280 NA
HETATM   13  C9  UNL     1      24.393   3.397  49.693  1.00  0.00     0.192 C 
HETATM   14  N5  UNL     1      24.212   4.854  49.842  1.00  0.00    -0.316 N 
HETATM   15  H12 UNL     1      23.434   1.378  50.920  1.00  0.00     0.189 HD
ENDROOT
BRANCH  13  16
HETATM   16  C10 UNL     1      25.141   2.796  50.804  1.00  0.00     0.026 C 
HETATM   17  C11 UNL     1      26.464   2.739  50.751  1.00  0.00     0.116 C 
BRANCH  17  18
HETATM   18  N3  UNL     1      27.229   2.165  51.807  1.00  0.00    -0.256 NA
HETATM   19  C12 UNL     1      26.744   2.090  53.006  1.00  0.00     0.207 C 
BRANCH  19  20
HETATM   20  N4  UNL     1      27.615   1.497  53.948  1.00  0.00    -0.351 N 
HETATM   21  H17 UNL     1      27.620   1.821  54.937  1.00  0.00     0.166 HD
BRANCH  20  22
HETATM   22  C13 UNL     1      28.558   0.449  53.738  1.00  0.00     0.032 A 
HETATM   23  C14 UNL     1      29.846   0.156  53.709  1.00  0.00     0.029 A 
HETATM   24  C15 UNL     1      29.513  -1.227  53.385  1.00  0.00     0.004 A 
HETATM   25  C16 UNL     1      28.217  -0.917  53.417  1.00  0.00     0.029 A 
ENDBRANCH  20  22
ENDBRANCH  19  20
ENDBRANCH  17  18
ENDBRANCH  13  16
BRANCH  14  26
HETATM   26  C17 UNL     1      24.859   5.825  48.984  1.00  0.00     0.037 A 
HETATM   27  C18 UNL     1      26.234   5.927  49.030  1.00  0.00     0.032 A 
HETATM   28  C19 UNL     1      26.982   6.811  48.266  1.00  0.00     0.039 A 
HETATM   29  C20 UNL     1      26.265   7.640  47.400  1.00  0.00     0.068 A 
HETATM   30  C22 UNL     1      24.886   7.552  47.341  1.00  0.00     0.039 A 
HETATM   31  C23 UNL     1      24.184   6.654  48.125  1.00  0.00     0.032 A 
BRANCH  29  32
HETATM   32  O3  UNL     1      27.057   8.504  46.659  1.00  0.00    -0.356 OA
HETATM   33  C21 UNL     1      28.418   8.212  46.425  1.00  0.00     0.210 C 
ENDBRANCH  29  32
ENDBRANCH  14  26
TORSDOF 6
ENDMDL
MODEL 4
REMARK VINA RESULT:      -7.8      2.335      5.368
REMARK  6 active torsions:
REMARK  status: ('A' for Active; 'I' for Inactive)
REMARK    1  A    between atoms: C9_13  and  C10_14 
REMARK    2  A    between atoms: C11_15  and  N3_16 
REMARK    3  A    between atoms: C12_17  and  N4_18 
REMARK    4  A    between atoms: N4_18  and  C13_19 
REMARK    5  A    between atoms: N5_23  and  C17_24 
REMARK    6  A    between atoms: C20_27  and  O3_28 
ROOT
HETATM    1  C1  UNL     1      20.894   4.106  51.821  1.00  0.00     0.066 C 
HETATM    2  C2  UNL     1      20.063   3.104  51.558  1.00  0.00     0.123 C 
HETATM    3  N1  UNL     1      18.707   3.219  51.697  1.00  0.00    -0.220 NA
HETATM    4  C3  UNL     1      17.829   4.082  51.347  1.00  0.00     0.253 C 
HETATM    5  O1  UNL     1      16.937   3.228  51.956  1.00  0.00    -0.345 OA
HETATM    6  C4  UNL     1      15.584   3.021  51.873  1.00  0.00     0.176 C 
HETATM    7  C5  UNL     1      15.014   1.858  52.603  1.00  0.00     0.029 C 
HETATM    8  C6  UNL     1      15.451   0.455  52.143  1.00  0.00     0.029 C 
HETATM    9  C7  UNL     1      16.889   0.535  52.129  1.00  0.00     0.177 C 
HETATM   10  O2  UNL     1      17.814  -0.439  51.878  1.00  0.00    -0.336 OA
HETATM   11  C8  UNL     1      19.193  -0.100  51.926  1.00  0.00     0.160 C 
HETATM   12  N2  UNL     1      19.033  -0.681  53.081  1.00  0.00    -0.280 NA
HETATM   13  C9  UNL     1      20.551   0.422  51.569  1.00  0.00     0.192 C 
HETATM   14  N5  UNL     1      20.481   1.825  51.115  1.00  0.00    -0.316 N 
HETATM   15  H12 UNL     1      19.839  -0.764  53.710  1.00  0.00     0.189 HD
ENDROOT
BRANCH  13  16
HETATM   16  C10 UNL     1      21.525   0.219  52.648  1.00  0.00     0.026 C 
HETATM   17  C11 UNL     1      22.822   0.223  52.372  1.00  0.00     0.116 C 
BRANCH  17  18
HETATM   18  N3  UNL     1      23.801   0.029  53.388  1.00  0.00    -0.256 NA
HETATM   19  C12 UNL     1      25.060   0.198  53.132  1.00  0.00     0.207 C 
BRANCH  19  20
HETATM   20  N4  UNL     1      25.913  -0.029  54.235  1.00  0.00    -0.351 N 
HETATM   21  H17 UNL     1      25.519  -0.141  55.191  1.00  0.00     0.166 HD
BRANCH  20  22
HETATM   22  C13 UNL     1      27.335  -0.135  54.242  1.00  0.00     0.032 A 
HETATM   23  C14 UNL     1      28.429   0.175  54.915  1.00  0.00     0.029 A 
HETATM   24  C15 UNL     1      29.232  -0.487  53.891  1.00  0.00     0.004 A 
HETATM   25  C16 UNL     1      28.119  -0.793  53.224  1.00  0.00     0.029 A 
ENDBRANCH  20  22
ENDBRANCH  19  20
ENDBRANCH  17  18
ENDBRANCH  13  16
BRANCH  14  26
HETATM   26  C17 UNL     1      20.935   2.260  49.811  1.00  0.00     0.037 A 
HETATM   27  C18 UNL     1      19.989   2.552  48.851  1.00  0.00     0.032 A 
HETATM   28  C19 UNL     1      20.281   2.977  47.563  1.00  0.00     0.039 A 
HETATM   29  C20 UNL     1      21.635   3.109  47.247  1.00  0.00     0.068 A 
HETATM   30  C22 UNL     1      22.598   2.819  48.197  1.00  0.00     0.039 A 
HETATM   31  C23 UNL     1      22.257   2.397  49.469  1.00  0.00     0.032 A 
BRANCH  29  32
HETATM   32  O3  UNL     1      21.876   3.536  45.951  1.00  0.00    -0.356 OA
HETATM   33  C21 UNL     1      20.809   3.914  45.108  1.00  0.00     0.210 C 
ENDBRANCH  29  32
ENDBRANCH  14  26
TORSDOF 6
ENDMDL
MODEL 5
REMARK VINA RESULT:      -7.7      4.620      7.792
REMARK  6 active torsions:
REMARK  status: ('A' for Active; 'I' for Inactive)
REMARK    1  A    between atoms: C9_13  and  C10_14 
REMARK    2  A    between atoms: C11_15  and  N3_16 
REMARK    3  A    between atoms: C12_17  and  N4_18 
REMARK    4  A    between atoms: N4_18  and  C13_19 
REMARK    5  A    between atoms: N5_23  and  C17_24 
REMARK    6  A    between atoms: C20_27  and  O3_28 
ROOT
HETATM    1  C1  UNL     1      22.231   5.022  50.991  1.00  0.00     0.066 C 
HETATM    2  C2  UNL     1      23.098   4.031  50.825  1.00  0.00     0.123 C 
HETATM    3  N1  UNL     1      23.151   2.952  51.664  1.00  0.00    -0.220 NA
HETATM    4  C3  UNL     1      22.287   2.155  52.172  1.00  0.00     0.253 C 
HETATM    5  O1  UNL     1      23.379   1.560  52.765  1.00  0.00    -0.345 OA
HETATM    6  C4  UNL     1      23.635   0.327  53.308  1.00  0.00     0.176 C 
HETATM    7  C5  UNL     1      25.032   0.023  53.713  1.00  0.00     0.029 C 
HETATM    8  C6  UNL     1      26.091  -0.036  52.596  1.00  0.00     0.029 C 
HETATM    9  C7  UNL     1      25.906   1.203  51.886  1.00  0.00     0.177 C 
HETATM   10  O2  UNL     1      26.622   1.729  50.847  1.00  0.00    -0.336 OA
HETATM   11  C8  UNL     1      26.231   2.987  50.315  1.00  0.00     0.160 C 
HETATM   12  N2  UNL     1      27.241   3.330  51.063  1.00  0.00    -0.280 NA
HETATM   13  C9  UNL     1      25.509   4.055  49.552  1.00  0.00     0.192 C 
HETATM   14  N5  UNL     1      24.052   3.981  49.778  1.00  0.00    -0.316 N 
HETATM   15  H12 UNL     1      27.512   4.318  51.108  1.00  0.00     0.189 HD
ENDROOT
BRANCH  13  16
HETATM   16  C10 UNL     1      26.061   5.391  49.811  1.00  0.00     0.026 C 
HETATM   17  C11 UNL     1      26.542   6.109  48.806  1.00  0.00     0.116 C 
BRANCH  17  18
HETATM   18  N3  UNL     1      27.087   7.409  49.012  1.00  0.00    -0.256 NA
HETATM   19  C12 UNL     1      27.098   8.279  48.052  1.00  0.00     0.207 C 
BRANCH  19  20
HETATM   20  N4  UNL     1      27.668   9.523  48.403  1.00  0.00    -0.351 N 
HETATM   21  H17 UNL     1      27.066  10.306  48.730  1.00  0.00     0.166 HD
BRANCH  20  22
HETATM   22  C13 UNL     1      29.043   9.901  48.374  1.00  0.00     0.032 A 
HETATM   23  C14 UNL     1      29.955  10.572  47.694  1.00  0.00     0.029 A 
HETATM   24  C15 UNL     1      30.955  10.200  48.690  1.00  0.00     0.004 A 
HETATM   25  C16 UNL     1      30.024   9.527  49.366  1.00  0.00     0.029 A 
ENDBRANCH  20  22
ENDBRANCH  19  20
ENDBRANCH  17  18
ENDBRANCH  13  16
BRANCH  14  26
HETATM   26  C17 UNL     1      23.093   3.795  48.710  1.00  0.00     0.037 A 
HETATM   27  C18 UNL     1      22.805   4.870  47.895  1.00  0.00     0.032 A 
HETATM   28  C19 UNL     1      21.908   4.835  46.836  1.00  0.00     0.039 A 
HETATM   29  C20 UNL     1      21.271   3.614  46.605  1.00  0.00     0.068 A 
HETATM   30  C22 UNL     1      21.547   2.526  47.413  1.00  0.00     0.039 A 
HETATM   31  C23 UNL     1      22.449   2.610  48.458  1.00  0.00     0.032 A 
BRANCH  29  32
HETATM   32  O3  UNL     1      20.386   3.629  45.538  1.00  0.00    -0.356 OA
HETATM   33  C21 UNL     1      20.820   4.006  44.249  1.00  0.00     0.210 C 
ENDBRANCH  29  32
ENDBRANCH  14  26
TORSDOF 6
ENDMDL
MODEL 6
REMARK VINA RESULT:      -7.4      7.155      9.033
REMARK  6 active torsions:
REMARK  status: ('A' for Active; 'I' for Inactive)
REMARK    1  A    between atoms: C9_13  and  C10_14 
REMARK    2  A    between atoms: C11_15  and  N3_16 
REMARK    3  A    between atoms: C12_17  and  N4_18 
REMARK    4  A    between atoms: N4_18  and  C13_19 
REMARK    5  A    between atoms: N5_23  and  C17_24 
REMARK    6  A    between atoms: C20_27  and  O3_28 
ROOT
HETATM    1  C1  UNL     1      25.332   7.818  46.813  1.00  0.00     0.066 C 
HETATM    2  C2  UNL     1      26.087   8.526  47.643  1.00  0.00     0.123 C 
HETATM    3  N1  UNL     1      26.113   9.894  47.627  1.00  0.00    -0.220 NA
HETATM    4  C3  UNL     1      25.227  10.817  47.594  1.00  0.00     0.253 C 
HETATM    5  O1  UNL     1      26.306  11.672  47.612  1.00  0.00    -0.345 OA
HETATM    6  C4  UNL     1      26.494  12.988  47.949  1.00  0.00     0.176 C 
HETATM    7  C5  UNL     1      27.887  13.505  47.982  1.00  0.00     0.029 C 
HETATM    8  C6  UNL     1      28.838  12.901  49.033  1.00  0.00     0.029 C 
HETATM    9  C7  UNL     1      28.706  11.481  48.834  1.00  0.00     0.177 C 
HETATM   10  O2  UNL     1      29.376  10.450  49.431  1.00  0.00    -0.336 OA
HETATM   11  C8  UNL     1      29.057   9.118  49.055  1.00  0.00     0.160 C 
HETATM   12  N2  UNL     1      30.154   9.318  48.382  1.00  0.00    -0.280 NA
HETATM   13  C9  UNL     1      28.373   7.790  48.934  1.00  0.00     0.192 C 
HETATM   14  N5  UNL     1      26.940   7.955  48.620  1.00  0.00    -0.316 N 
HETATM   15  H12 UNL     1      30.517   8.562  47.790  1.00  0.00     0.189 HD
ENDROOT
BRANCH  13  16
HETATM   16  C10 UNL     1      29.064   6.894  47.999  1.00  0.00     0.026 C 
HETATM   17  C11 UNL     1      29.659   5.800  48.456  1.00  0.00     0.116 C 
BRANCH  17  18
HETATM   18  N3  UNL     1      30.341   4.903  47.585  1.00  0.00    -0.256 NA
HETATM   19  C12 UNL     1      31.609   4.678  47.731  1.00  0.00     0.207 C 
BRANCH  19  20
HETATM   20  N4  UNL     1      32.148   3.767  46.795  1.00  0.00    -0.351 N 
HETATM   21  H17 UNL     1      31.648   2.882  46.573  1.00  0.00     0.166 HD
BRANCH  20  22
HETATM   22  C13 UNL     1      33.361   3.881  46.055  1.00  0.00     0.032 A 
HETATM   23  C14 UNL     1      33.900   4.363  44.949  1.00  0.00     0.029 A 
HETATM   24  C15 UNL     1      35.192   3.820  45.355  1.00  0.00     0.004 A 
HETATM   25  C16 UNL     1      34.635   3.339  46.466  1.00  0.00     0.029 A 
ENDBRANCH  20  22
ENDBRANCH  19  20
ENDBRANCH  17  18
ENDBRANCH  13  16
BRANCH  14  26
HETATM   26  C17 UNL     1      25.881   7.438  49.460  1.00  0.00     0.037 A 
HETATM   27  C18 UNL     1      25.777   6.071  49.617  1.00  0.00     0.032 A 
HETATM   28  C19 UNL     1      24.813   5.440  50.390  1.00  0.00     0.039 A 
HETATM   29  C20 UNL     1      23.900   6.272  51.041  1.00  0.00     0.068 A 
HETATM   30  C22 UNL     1      23.988   7.645  50.894  1.00  0.00     0.039 A 
HETATM   31  C23 UNL     1      24.967   8.228  50.111  1.00  0.00     0.032 A 
BRANCH  29  32
HETATM   32  O3  UNL     1      22.958   5.595  51.800  1.00  0.00    -0.356 OA
HETATM   33  C21 UNL     1      23.205   4.280  52.248  1.00  0.00     0.210 C 
ENDBRANCH  29  32
ENDBRANCH  14  26
TORSDOF 6
ENDMDL
MODEL 7
REMARK VINA RESULT:      -7.4      3.421      5.636
REMARK  6 active torsions:
REMARK  status: ('A' for Active; 'I' for Inactive)
REMARK    1  A    between atoms: C9_13  and  C10_14 
REMARK    2  A    between atoms: C11_15  and  N3_16 
REMARK    3  A    between atoms: C12_17  and  N4_18 
REMARK    4  A    between atoms: N4_18  and  C13_19 
REMARK    5  A    between atoms: N5_23  and  C17_24 
REMARK    6  A    between atoms: C20_27  and  O3_28 
ROOT
HETATM    1  C1  UNL     1      21.124   0.337  49.834  1.00  0.00     0.066 C 
HETATM    2  C2  UNL     1      20.258   1.063  50.530  1.00  0.00     0.123 C 
HETATM    3  N1  UNL     1      18.906   0.868  50.453  1.00  0.00    -0.220 NA
HETATM    4  C3  UNL     1      18.133  -0.152  50.492  1.00  0.00     0.253 C 
HETATM    5  O1  UNL     1      17.123   0.772  50.336  1.00  0.00    -0.345 OA
HETATM    6  C4  UNL     1      15.775   0.786  50.589  1.00  0.00     0.176 C 
HETATM    7  C5  UNL     1      15.051   2.073  50.422  1.00  0.00     0.029 C 
HETATM    8  C6  UNL     1      15.435   3.225  51.370  1.00  0.00     0.029 C 
HETATM    9  C7  UNL     1      16.868   3.299  51.250  1.00  0.00     0.177 C 
HETATM   10  O2  UNL     1      17.745   4.191  51.802  1.00  0.00    -0.336 OA
HETATM   11  C8  UNL     1      19.131   4.046  51.528  1.00  0.00     0.160 C 
HETATM   12  N2  UNL     1      18.809   5.010  50.712  1.00  0.00    -0.280 NA
HETATM   13  C9  UNL     1      20.553   3.574  51.552  1.00  0.00     0.192 C 
HETATM   14  N5  UNL     1      20.629   2.106  51.415  1.00  0.00    -0.316 N 
HETATM   15  H12 UNL     1      19.536   5.416  50.113  1.00  0.00     0.189 HD
ENDROOT
BRANCH  13  16
HETATM   16  C10 UNL     1      21.390   4.283  50.577  1.00  0.00     0.026 C 
HETATM   17  C11 UNL     1      22.553   4.794  50.958  1.00  0.00     0.116 C 
BRANCH  17  18
HETATM   18  N3  UNL     1      23.396   5.490  50.045  1.00  0.00    -0.256 NA
HETATM   19  C12 UNL     1      24.607   5.083  49.825  1.00  0.00     0.207 C 
BRANCH  19  20
HETATM   20  N4  UNL     1      25.324   5.871  48.897  1.00  0.00    -0.351 N 
HETATM   21  H17 UNL     1      24.826   6.551  48.288  1.00  0.00     0.166 HD
BRANCH  20  22
HETATM   22  C13 UNL     1      26.727   5.878  48.647  1.00  0.00     0.032 A 
HETATM   23  C14 UNL     1      27.759   6.647  48.346  1.00  0.00     0.029 A 
HETATM   24  C15 UNL     1      28.627   5.475  48.372  1.00  0.00     0.004 A 
HETATM   25  C16 UNL     1      27.578   4.711  48.676  1.00  0.00     0.029 A 
ENDBRANCH  20  22
ENDBRANCH  19  20
ENDBRANCH  17  18
ENDBRANCH  13  16
BRANCH  14  26
HETATM   26  C17 UNL     1      21.249   1.249  52.404  1.00  0.00     0.037 A 
HETATM   27  C18 UNL     1      20.442   0.644  53.345  1.00  0.00     0.032 A 
HETATM   28  C19 UNL     1      20.900  -0.198  54.348  1.00  0.00     0.039 A 
HETATM   29  C20 UNL     1      22.276  -0.430  54.381  1.00  0.00     0.068 A 
HETATM   30  C22 UNL     1      23.101   0.169  53.446  1.00  0.00     0.039 A 
HETATM   31  C23 UNL     1      22.597   1.003  52.464  1.00  0.00     0.032 A 
BRANCH  29  32
HETATM   32  O3  UNL     1      22.684  -1.277  55.400  1.00  0.00    -0.356 OA
HETATM   33  C21 UNL     1      24.040  -1.333  55.790  1.00  0.00     0.210 C 
ENDBRANCH  29  32
ENDBRANCH  14  26
TORSDOF 6
ENDMDL
MODEL 8
REMARK VINA RESULT:      -7.4      8.136     11.122
REMARK  6 active torsions:
REMARK  status: ('A' for Active; 'I' for Inactive)
REMARK    1  A    between atoms: C9_13  and  C10_14 
REMARK    2  A    between atoms: C11_15  and  N3_16 
REMARK    3  A    between atoms: C12_17  and  N4_18 
REMARK    4  A    between atoms: N4_18  and  C13_19 
REMARK    5  A    between atoms: N5_23  and  C17_24 
REMARK    6  A    between atoms: C20_27  and  O3_28 
ROOT
HETATM    1  C1  UNL     1      31.639   7.516  49.529  1.00  0.00     0.066 C 
HETATM    2  C2  UNL     1      30.842   7.965  48.567  1.00  0.00     0.123 C 
HETATM    3  N1  UNL     1      30.720   9.297  48.277  1.00  0.00    -0.220 NA
HETATM    4  C3  UNL     1      31.538  10.265  48.098  1.00  0.00     0.253 C 
HETATM    5  O1  UNL     1      30.401  11.016  47.896  1.00  0.00    -0.345 OA
HETATM    6  C4  UNL     1      30.123  12.207  47.276  1.00  0.00     0.176 C 
HETATM    7  C5  UNL     1      28.697  12.602  47.138  1.00  0.00     0.029 C 
HETATM    8  C6  UNL     1      27.802  11.713  46.255  1.00  0.00     0.029 C 
HETATM    9  C7  UNL     1      28.032  10.386  46.765  1.00  0.00     0.177 C 
HETATM   10  O2  UNL     1      27.442   9.203  46.417  1.00  0.00    -0.336 OA
HETATM   11  C8  UNL     1      27.852   8.014  47.079  1.00  0.00     0.160 C 
HETATM   12  N2  UNL     1      26.736   8.281  47.698  1.00  0.00    -0.280 NA
HETATM   13  C9  UNL     1      28.626   6.800  47.488  1.00  0.00     0.192 C 
HETATM   14  N5  UNL     1      30.041   7.132  47.748  1.00  0.00    -0.316 N 
HETATM   15  H12 UNL     1      26.423   7.652  48.446  1.00  0.00     0.189 HD
ENDROOT
BRANCH  13  16
HETATM   16  C10 UNL     1      27.992   6.087  48.604  1.00  0.00     0.026 C 
HETATM   17  C11 UNL     1      27.884   4.766  48.563  1.00  0.00     0.116 C 
BRANCH  17  18
HETATM   18  N3  UNL     1      27.275   4.035  49.624  1.00  0.00    -0.256 NA
HETATM   19  C12 UNL     1      26.040   3.655  49.538  1.00  0.00     0.207 C 
BRANCH  19  20
HETATM   20  N4  UNL     1      25.573   2.940  50.664  1.00  0.00    -0.351 N 
HETATM   21  H17 UNL     1      24.561   2.939  50.905  1.00  0.00     0.166 HD
BRANCH  20  22
HETATM   22  C13 UNL     1      26.330   2.166  51.591  1.00  0.00     0.032 A 
HETATM   23  C14 UNL     1      27.157   2.233  52.620  1.00  0.00     0.029 A 
HETATM   24  C15 UNL     1      27.210   0.775  52.658  1.00  0.00     0.004 A 
HETATM   25  C16 UNL     1      26.375   0.723  51.620  1.00  0.00     0.029 A 
ENDBRANCH  20  22
ENDBRANCH  19  20
ENDBRANCH  17  18
ENDBRANCH  13  16
BRANCH  14  26
HETATM   26  C17 UNL     1      31.143   6.517  47.037  1.00  0.00     0.037 A 
HETATM   27  C18 UNL     1      31.517   5.237  47.390  1.00  0.00     0.032 A 
HETATM   28  C19 UNL     1      32.551   4.529  46.795  1.00  0.00     0.039 A 
HETATM   29  C20 UNL     1      33.241   5.184  45.773  1.00  0.00     0.068 A 
HETATM   30  C22 UNL     1      32.881   6.468  45.406  1.00  0.00     0.039 A 
HETATM   31  C23 UNL     1      31.841   7.134  46.030  1.00  0.00     0.032 A 
BRANCH  29  32
HETATM   32  O3  UNL     1      34.265   4.436  45.210  1.00  0.00    -0.356 OA
HETATM   33  C21 UNL     1      34.972   3.489  45.982  1.00  0.00     0.210 C 
ENDBRANCH  29  32
ENDBRANCH  14  26
TORSDOF 6
ENDMDL
MODEL 9
REMARK VINA RESULT:      -7.4      4.110      5.361
REMARK  6 active torsions:
REMARK  status: ('A' for Active; 'I' for Inactive)
REMARK    1  A    between atoms: C9_13  and  C10_14 
REMARK    2  A    between atoms: C11_15  and  N3_16 
REMARK    3  A    between atoms: C12_17  and  N4_18 
REMARK    4  A    between atoms: N4_18  and  C13_19 
REMARK    5  A    between atoms: N5_23  and  C17_24 
REMARK    6  A    between atoms: C20_27  and  O3_28 
ROOT
HETATM    1  C1  UNL     1      23.273   2.740  48.403  1.00  0.00     0.066 C 
HETATM    2  C2  UNL     1      22.966   3.787  49.159  1.00  0.00     0.123 C 
HETATM    3  N1  UNL     1      21.784   4.464  49.031  1.00  0.00    -0.220 NA
HETATM    4  C3  UNL     1      20.552   4.130  48.937  1.00  0.00     0.253 C 
HETATM    5  O1  UNL     1      20.325   5.486  48.867  1.00  0.00    -0.345 OA
HETATM    6  C4  UNL     1      19.244   6.300  49.092  1.00  0.00     0.176 C 
HETATM    7  C5  UNL     1      19.463   7.770  49.058  1.00  0.00     0.029 C 
HETATM    8  C6  UNL     1      20.382   8.370  50.139  1.00  0.00     0.029 C 
HETATM    9  C7  UNL     1      21.572   7.563  50.059  1.00  0.00     0.177 C 
HETATM   10  O2  UNL     1      22.758   7.687  50.728  1.00  0.00    -0.336 OA
HETATM   11  C8  UNL     1      23.792   6.748  50.467  1.00  0.00     0.160 C 
HETATM   12  N2  UNL     1      24.190   7.768  49.761  1.00  0.00    -0.280 NA
HETATM   13  C9  UNL     1      24.629   5.506  50.467  1.00  0.00     0.192 C 
HETATM   14  N5  UNL     1      23.814   4.313  50.165  1.00  0.00    -0.316 N 
HETATM   15  H12 UNL     1      25.062   7.691  49.227  1.00  0.00     0.189 HD
ENDROOT
BRANCH  13  16
HETATM   16  C10 UNL     1      25.805   5.630  49.597  1.00  0.00     0.026 C 
HETATM   17  C11 UNL     1      26.636   4.605  49.465  1.00  0.00     0.116 C 
BRANCH  17  18
HETATM   18  N3  UNL     1      27.788   4.682  48.633  1.00  0.00    -0.256 NA
HETATM   19  C12 UNL     1      28.408   5.808  48.466  1.00  0.00     0.207 C 
BRANCH  19  20
HETATM   20  N4  UNL     1      29.532   5.732  47.614  1.00  0.00    -0.351 N 
HETATM   21  H17 UNL     1      29.421   5.835  46.585  1.00  0.00     0.166 HD
BRANCH  20  22
HETATM   22  C13 UNL     1      30.895   5.519  47.973  1.00  0.00     0.032 A 
HETATM   23  C14 UNL     1      32.033   4.971  47.582  1.00  0.00     0.029 A 
HETATM   24  C15 UNL     1      32.667   5.442  48.810  1.00  0.00     0.004 A 
HETATM   25  C16 UNL     1      31.513   5.990  49.190  1.00  0.00     0.029 A 
ENDBRANCH  20  22
ENDBRANCH  19  20
ENDBRANCH  17  18
ENDBRANCH  13  16
BRANCH  14  26
HETATM   26  C17 UNL     1      23.701   3.182  51.062  1.00  0.00     0.037 A 
HETATM   27  C18 UNL     1      24.770   2.317  51.163  1.00  0.00     0.032 A 
HETATM   28  C19 UNL     1      24.799   1.196  51.981  1.00  0.00     0.039 A 
HETATM   29  C20 UNL     1      23.653   0.955  52.742  1.00  0.00     0.068 A 
HETATM   30  C22 UNL     1      22.571   1.812  52.653  1.00  0.00     0.039 A 
HETATM   31  C23 UNL     1      22.589   2.918  51.822  1.00  0.00     0.032 A 
BRANCH  29  32
HETATM   32  O3  UNL     1      23.731  -0.174  53.542  1.00  0.00    -0.356 OA
HETATM   33  C21 UNL     1      24.962  -0.571  54.108  1.00  0.00     0.210 C 
ENDBRANCH  29  32
ENDBRANCH  14  26
TORSDOF 6
ENDMDL
