MODEL 1
REMARK VINA RESULT:      -8.8      0.000      0.000
REMARK  5 active torsions:
REMARK  status: ('A' for Active; 'I' for Inactive)
REMARK    1  A    between atoms: S1_2  and  N1_5 
REMARK    2  A    between atoms: N1_5  and  C2_6 
REMARK    3  A    between atoms: C8_13  and  N2_14 
REMARK    4  A    between atoms: C8_13  and  C9_16 
REMARK    5  A    between atoms: N2_14  and  N3_15 
ROOT
HETATM    1  C2  UNL     1      21.157   1.655  50.853  1.00  0.00     0.043 A 
HETATM    2  C3  UNL     1      22.092   2.439  50.339  1.00  0.00     0.044 A 
HETATM    3  C4  UNL     1      23.323   2.049  51.035  1.00  0.00    -0.005 A 
HETATM    4  C5  UNL     1      24.548   2.548  50.889  1.00  0.00     0.147 C 
HETATM    5  O3  UNL     1      25.678   2.097  51.614  1.00  0.00    -0.358 OA
HETATM    6  C6  UNL     1      25.946   0.723  51.782  1.00  0.00     0.211 C 
HETATM    7  C7  UNL     1      25.146   0.166  52.940  1.00  0.00    -0.023 C 
HETATM    8  C8  UNL     1      25.296  -0.402  54.123  1.00  0.00     0.057 C 
HETATM    9  C15 UNL     1      23.679   0.126  52.988  1.00  0.00     0.078 C 
HETATM   10  C16 UNL     1      22.982   0.971  51.986  1.00  0.00    -0.040 A 
HETATM   11  C17 UNL     1      21.671   0.747  51.862  1.00  0.00     0.038 A 
ENDROOT
BRANCH   8  12
HETATM   12  N2  UNL     1      25.544  -1.021  55.414  1.00  0.00    -0.323 N 
HETATM   13  H9  UNL     1      26.561  -1.009  55.731  1.00  0.00     0.180 HD
BRANCH  12  14
HETATM   14  N3  UNL     1      24.493  -1.588  56.141  1.00  0.00    -0.249 NA
HETATM   15  H10 UNL     1      24.404  -2.587  55.806  1.00  0.00     0.143 HD
HETATM   16  H11 UNL     1      23.600  -1.127  55.809  1.00  0.00     0.143 HD
ENDBRANCH  12  14
ENDBRANCH   8  12
BRANCH   8  17
HETATM   17  C9  UNL     1      26.779  -0.353  53.945  1.00  0.00    -0.006 A 
HETATM   18  C10 UNL     1      27.547  -1.360  53.349  1.00  0.00     0.017 A 
HETATM   19  C11 UNL     1      28.923  -1.355  53.163  1.00  0.00     0.045 A 
HETATM   20  C12 UNL     1      29.569  -0.228  53.622  1.00  0.00     0.138 A 
HETATM   21  F1  UNL     1      30.911  -0.164  53.466  1.00  0.00    -0.204 F 
HETATM   22  C13 UNL     1      28.948   0.841  54.227  1.00  0.00     0.073 A 
HETATM   23 CL1  UNL     1      29.772   2.266  54.812  1.00  0.00    -0.081 Cl
HETATM   24  C14 UNL     1      27.558   0.737  54.368  1.00  0.00     0.040 A 
ENDBRANCH   8  17
BRANCH   1  25
HETATM   25  N1  UNL     1      19.809   1.751  50.409  1.00  0.00    -0.285 N 
HETATM   26  H4  UNL     1      19.520   1.132  49.608  1.00  0.00     0.178 HD
BRANCH  25  27
HETATM   27  S1  UNL     1      18.656   2.819  51.118  1.00  0.00     0.227 S 
HETATM   28  C1  UNL     1      18.152   4.118  50.034  1.00  0.00     0.186 C 
HETATM   29  O1  UNL     1      17.426   2.087  51.563  1.00  0.00    -0.206 OA
HETATM   30  O2  UNL     1      19.257   3.452  52.340  1.00  0.00    -0.206 OA
ENDBRANCH  25  27
ENDBRANCH   1  25
TORSDOF 5
ENDMDL
MODEL 2
REMARK VINA RESULT:      -7.8      5.041      8.745
REMARK  5 active torsions:
REMARK  status: ('A' for Active; 'I' for Inactive)
REMARK    1  A    between atoms: S1_2  and  N1_5 
REMARK    2  A    between atoms: N1_5  and  C2_6 
REMARK    3  A    between atoms: C8_13  and  N2_14 
REMARK    4  A    between atoms: C8_13  and  C9_16 
REMARK    5  A    between atoms: N2_14  and  N3_15 
ROOT
HETATM    1  C2  UNL     1      26.051   0.854  54.086  1.00  0.00     0.043 A 
HETATM    2  C3  UNL     1      25.115  -0.058  53.875  1.00  0.00     0.044 A 
HETATM    3  C4  UNL     1      24.018   0.682  53.242  1.00  0.00    -0.005 A 
HETATM    4  C5  UNL     1      22.834   0.222  52.841  1.00  0.00     0.147 C 
HETATM    5  O3  UNL     1      21.838   1.025  52.235  1.00  0.00    -0.358 OA
HETATM    6  C6  UNL     1      22.151   1.941  51.209  1.00  0.00     0.211 C 
HETATM    7  C7  UNL     1      22.653   3.241  51.799  1.00  0.00    -0.023 C 
HETATM    8  C8  UNL     1      22.361   4.528  51.865  1.00  0.00     0.057 C 
HETATM    9  C15 UNL     1      23.873   3.368  52.607  1.00  0.00     0.078 C 
HETATM   10  C16 UNL     1      24.435   2.093  53.119  1.00  0.00    -0.040 A 
HETATM   11  C17 UNL     1      25.665   2.178  53.634  1.00  0.00     0.038 A 
ENDROOT
BRANCH   8  12
HETATM   12  N2  UNL     1      21.972   5.929  51.891  1.00  0.00    -0.323 N 
HETATM   13  H9  UNL     1      21.011   6.121  52.307  1.00  0.00     0.180 HD
BRANCH  12  14
HETATM   14  N3  UNL     1      22.828   6.910  51.383  1.00  0.00    -0.249 NA
HETATM   15  H10 UNL     1      22.382   7.261  50.491  1.00  0.00     0.143 HD
HETATM   16  H11 UNL     1      23.705   6.420  51.054  1.00  0.00     0.143 HD
ENDBRANCH  12  14
ENDBRANCH   8  12
BRANCH   8  17
HETATM   17  C9  UNL     1      21.170   4.291  50.995  1.00  0.00    -0.006 A 
HETATM   18  C10 UNL     1      21.190   4.280  49.595  1.00  0.00     0.017 A 
HETATM   19  C11 UNL     1      20.110   4.062  48.750  1.00  0.00     0.045 A 
HETATM   20  C12 UNL     1      18.909   3.836  49.386  1.00  0.00     0.138 A 
HETATM   21  F1  UNL     1      17.820   3.615  48.615  1.00  0.00    -0.204 F 
HETATM   22  C13 UNL     1      18.735   3.816  50.752  1.00  0.00     0.073 A 
HETATM   23 CL1  UNL     1      17.210   3.532  51.553  1.00  0.00    -0.081 Cl
HETATM   24  C14 UNL     1      19.887   4.047  51.515  1.00  0.00     0.040 A 
ENDBRANCH   8  17
BRANCH   1  25
HETATM   25  N1  UNL     1      27.285   0.494  54.696  1.00  0.00    -0.285 N 
HETATM   26  H4  UNL     1      27.242  -0.133  55.539  1.00  0.00     0.178 HD
BRANCH  25  27
HETATM   27  S1  UNL     1      28.817   1.035  54.118  1.00  0.00     0.227 S 
HETATM   28  C1  UNL     1      29.941  -0.283  53.787  1.00  0.00     0.186 C 
HETATM   29  O1  UNL     1      28.679   1.848  52.865  1.00  0.00    -0.206 OA
HETATM   30  O2  UNL     1      29.448   1.924  55.151  1.00  0.00    -0.206 OA
ENDBRANCH  25  27
ENDBRANCH   1  25
TORSDOF 5
ENDMDL
MODEL 3
REMARK VINA RESULT:      -7.8      2.591      2.923
REMARK  5 active torsions:
REMARK  status: ('A' for Active; 'I' for Inactive)
REMARK    1  A    between atoms: S1_2  and  N1_5 
REMARK    2  A    between atoms: N1_5  and  C2_6 
REMARK    3  A    between atoms: C8_13  and  N2_14 
REMARK    4  A    between atoms: C8_13  and  C9_16 
REMARK    5  A    between atoms: N2_14  and  N3_15 
ROOT
HETATM    1  C2  UNL     1      22.653   4.261  49.007  1.00  0.00     0.043 A 
HETATM    2  C3  UNL     1      23.882   4.745  48.914  1.00  0.00     0.044 A 
HETATM    3  C4  UNL     1      24.674   3.916  49.828  1.00  0.00    -0.005 A 
HETATM    4  C5  UNL     1      25.973   4.004  50.107  1.00  0.00     0.147 C 
HETATM    5  O3  UNL     1      26.647   3.147  51.010  1.00  0.00    -0.358 OA
HETATM    6  C6  UNL     1      26.454   1.750  50.987  1.00  0.00     0.211 C 
HETATM    7  C7  UNL     1      25.211   1.377  51.768  1.00  0.00    -0.023 C 
HETATM    8  C8  UNL     1      24.821   0.684  52.822  1.00  0.00     0.057 C 
HETATM    9  C15 UNL     1      23.853   1.809  51.416  1.00  0.00     0.078 C 
HETATM   10  C16 UNL     1      23.768   2.922  50.438  1.00  0.00    -0.040 A 
HETATM   11  C17 UNL     1      22.552   3.146  49.931  1.00  0.00     0.038 A 
ENDROOT
BRANCH   8  12
HETATM   12  N2  UNL     1      24.472  -0.099  53.996  1.00  0.00    -0.323 N 
HETATM   13  H9  UNL     1      25.238  -0.172  54.733  1.00  0.00     0.180 HD
BRANCH  12  14
HETATM   14  N3  UNL     1      23.216  -0.703  54.096  1.00  0.00    -0.249 NA
HETATM   15  H10 UNL     1      23.050  -1.200  53.177  1.00  0.00     0.143 HD
HETATM   16  H11 UNL     1      22.496   0.073  54.100  1.00  0.00     0.143 HD
ENDBRANCH  12  14
ENDBRANCH   8  12
BRANCH   8  17
HETATM   17  C9  UNL     1      26.237   0.268  53.057  1.00  0.00    -0.006 A 
HETATM   18  C10 UNL     1      26.778  -0.972  52.693  1.00  0.00     0.017 A 
HETATM   19  C11 UNL     1      28.085  -1.397  52.890  1.00  0.00     0.045 A 
HETATM   20  C12 UNL     1      28.908  -0.483  53.510  1.00  0.00     0.138 A 
HETATM   21  F1  UNL     1      30.194  -0.842  53.728  1.00  0.00    -0.204 F 
HETATM   22  C13 UNL     1      28.519   0.770  53.924  1.00  0.00     0.073 A 
HETATM   23 CL1  UNL     1      29.566   1.924  54.713  1.00  0.00    -0.081 Cl
HETATM   24  C14 UNL     1      27.180   1.103  53.678  1.00  0.00     0.040 A 
ENDBRANCH   8  17
BRANCH   1  25
HETATM   25  N1  UNL     1      21.593   4.828  48.246  1.00  0.00    -0.285 N 
HETATM   26  H4  UNL     1      21.275   5.796  48.508  1.00  0.00     0.178 HD
BRANCH  25  27
HETATM   27  S1  UNL     1      20.827   4.007  46.938  1.00  0.00     0.227 S 
HETATM   28  C1  UNL     1      21.921   3.660  45.598  1.00  0.00     0.186 C 
HETATM   29  O1  UNL     1      20.215   2.711  47.381  1.00  0.00    -0.206 OA
HETATM   30  O2  UNL     1      19.711   4.860  46.407  1.00  0.00    -0.206 OA
ENDBRANCH  25  27
ENDBRANCH   1  25
TORSDOF 5
ENDMDL
MODEL 4
REMARK VINA RESULT:      -7.8      2.447      3.094
REMARK  5 active torsions:
REMARK  status: ('A' for Active; 'I' for Inactive)
REMARK    1  A    between atoms: S1_2  and  N1_5 
REMARK    2  A    between atoms: N1_5  and  C2_6 
REMARK    3  A    between atoms: C8_13  and  N2_14 
REMARK    4  A    between atoms: C8_13  and  C9_16 
REMARK    5  A    between atoms: N2_14  and  N3_15 
ROOT
HETATM    1  C2  UNL     1      19.917   1.467  52.079  1.00  0.00     0.043 A 
HETATM    2  C3  UNL     1      20.145   0.319  52.698  1.00  0.00     0.044 A 
HETATM    3  C4  UNL     1      21.606   0.190  52.705  1.00  0.00    -0.005 A 
HETATM    4  C5  UNL     1      22.345  -0.799  53.202  1.00  0.00     0.147 C 
HETATM    5  O3  UNL     1      23.760  -0.828  53.160  1.00  0.00    -0.358 OA
HETATM    6  C6  UNL     1      24.531   0.303  53.499  1.00  0.00     0.211 C 
HETATM    7  C7  UNL     1      24.646   1.238  52.314  1.00  0.00    -0.023 C 
HETATM    8  C8  UNL     1      25.540   1.773  51.501  1.00  0.00     0.057 C 
HETATM    9  C15 UNL     1      23.508   1.912  51.678  1.00  0.00     0.078 C 
HETATM   10  C16 UNL     1      22.169   1.378  52.032  1.00  0.00    -0.040 A 
HETATM   11  C17 UNL     1      21.134   2.138  51.660  1.00  0.00     0.038 A 
ENDROOT
BRANCH   8  12
HETATM   12  N2  UNL     1      26.583   2.321  50.649  1.00  0.00    -0.323 N 
HETATM   13  H9  UNL     1      27.564   1.958  50.849  1.00  0.00     0.180 HD
BRANCH  12  14
HETATM   14  N3  UNL     1      26.270   3.261  49.663  1.00  0.00    -0.249 NA
HETATM   15  H10 UNL     1      25.273   3.064  49.369  1.00  0.00     0.143 HD
HETATM   16  H11 UNL     1      26.841   3.017  48.807  1.00  0.00     0.143 HD
ENDBRANCH  12  14
ENDBRANCH   8  12
BRANCH   8  17
HETATM   17  C9  UNL     1      26.625   1.074  52.253  1.00  0.00    -0.006 A 
HETATM   18  C10 UNL     1      26.849  -0.309  52.236  1.00  0.00     0.017 A 
HETATM   19  C11 UNL     1      27.844  -0.997  52.916  1.00  0.00     0.045 A 
HETATM   20  C12 UNL     1      28.681  -0.211  53.677  1.00  0.00     0.138 A 
HETATM   21  F1  UNL     1      29.672  -0.827  54.362  1.00  0.00    -0.204 F 
HETATM   22  C13 UNL     1      28.585   1.157  53.791  1.00  0.00     0.073 A 
HETATM   23 CL1  UNL     1      29.646   2.149  54.761  1.00  0.00    -0.081 Cl
HETATM   24  C14 UNL     1      27.546   1.756  53.065  1.00  0.00     0.040 A 
ENDBRANCH   8  17
BRANCH   1  25
HETATM   25  N1  UNL     1      18.586   1.930  51.883  1.00  0.00    -0.285 N 
HETATM   26  H4  UNL     1      18.174   2.544  52.632  1.00  0.00     0.178 HD
BRANCH  25  27
HETATM   27  S1  UNL     1      17.643   1.533  50.496  1.00  0.00     0.227 S 
HETATM   28  C1  UNL     1      15.946   1.990  50.653  1.00  0.00     0.186 C 
HETATM   29  O1  UNL     1      18.182   2.183  49.256  1.00  0.00    -0.206 OA
HETATM   30  O2  UNL     1      17.696   0.049  50.271  1.00  0.00    -0.206 OA
ENDBRANCH  25  27
ENDBRANCH   1  25
TORSDOF 5
ENDMDL
MODEL 5
REMARK VINA RESULT:      -7.7      5.953      8.870
REMARK  5 active torsions:
REMARK  status: ('A' for Active; 'I' for Inactive)
REMARK    1  A    between atoms: S1_2  and  N1_5 
REMARK    2  A    between atoms: N1_5  and  C2_6 
REMARK    3  A    between atoms: C8_13  and  N2_14 
REMARK    4  A    between atoms: C8_13  and  C9_16 
REMARK    5  A    between atoms: N2_14  and  N3_15 
ROOT
HETATM    1  C2  UNL     1      26.164   0.667  51.988  1.00  0.00     0.043 A 
HETATM    2  C3  UNL     1      24.900   0.871  52.325  1.00  0.00     0.044 A 
HETATM    3  C4  UNL     1      24.585   2.198  51.786  1.00  0.00    -0.005 A 
HETATM    4  C5  UNL     1      23.440   2.873  51.866  1.00  0.00     0.147 C 
HETATM    5  O3  UNL     1      23.238   4.157  51.306  1.00  0.00    -0.358 OA
HETATM    6  C6  UNL     1      23.662   4.467  49.998  1.00  0.00     0.211 C 
HETATM    7  C7  UNL     1      25.128   4.841  49.993  1.00  0.00    -0.023 C 
HETATM    8  C8  UNL     1      25.939   5.846  49.714  1.00  0.00     0.057 C 
HETATM    9  C15 UNL     1      26.215   3.933  50.382  1.00  0.00     0.078 C 
HETATM   10  C16 UNL     1      25.797   2.713  51.116  1.00  0.00    -0.040 A 
HETATM   11  C17 UNL     1      26.739   1.775  51.249  1.00  0.00     0.038 A 
ENDROOT
BRANCH   8  12
HETATM   12  N2  UNL     1      26.764   6.998  49.387  1.00  0.00    -0.323 N 
HETATM   13  H9  UNL     1      26.272   7.940  49.464  1.00  0.00     0.180 HD
BRANCH  12  14
HETATM   14  N3  UNL     1      28.094   6.827  48.995  1.00  0.00    -0.249 NA
HETATM   15  H10 UNL     1      28.087   6.104  48.223  1.00  0.00     0.143 HD
HETATM   16  H11 UNL     1      28.595   6.344  49.791  1.00  0.00     0.143 HD
ENDBRANCH  12  14
ENDBRANCH   8  12
BRANCH   8  17
HETATM   17  C9  UNL     1      24.761   6.665  49.297  1.00  0.00    -0.006 A 
HETATM   18  C10 UNL     1      24.035   7.513  50.143  1.00  0.00     0.017 A 
HETATM   19  C11 UNL     1      22.939   8.291  49.797  1.00  0.00     0.045 A 
HETATM   20  C12 UNL     1      22.550   8.198  48.479  1.00  0.00     0.138 A 
HETATM   21  F1  UNL     1      21.488   8.935  48.082  1.00  0.00    -0.204 F 
HETATM   22  C13 UNL     1      23.166   7.410  47.533  1.00  0.00     0.073 A 
HETATM   23 CL1  UNL     1      22.667   7.292  45.863  1.00  0.00    -0.081 Cl
HETATM   24  C14 UNL     1      24.262   6.663  47.984  1.00  0.00     0.040 A 
ENDBRANCH   8  17
BRANCH   1  25
HETATM   25  N1  UNL     1      26.822  -0.542  52.349  1.00  0.00    -0.285 N 
HETATM   26  H4  UNL     1      26.581  -1.405  51.799  1.00  0.00     0.178 HD
BRANCH  25  27
HETATM   27  S1  UNL     1      27.975  -0.643  53.627  1.00  0.00     0.227 S 
HETATM   28  C1  UNL     1      29.231   0.593  53.530  1.00  0.00     0.186 C 
HETATM   29  O1  UNL     1      27.321  -0.531  54.972  1.00  0.00    -0.206 OA
HETATM   30  O2  UNL     1      28.649  -1.984  53.577  1.00  0.00    -0.206 OA
ENDBRANCH  25  27
ENDBRANCH   1  25
TORSDOF 5
ENDMDL
MODEL 6
REMARK VINA RESULT:      -7.7      3.734      5.434
REMARK  5 active torsions:
REMARK  status: ('A' for Active; 'I' for Inactive)
REMARK    1  A    between atoms: S1_2  and  N1_5 
REMARK    2  A    between atoms: N1_5  and  C2_6 
REMARK    3  A    between atoms: C8_13  and  N2_14 
REMARK    4  A    between atoms: C8_13  and  C9_16 
REMARK    5  A    between atoms: N2_14  and  N3_15 
ROOT
HETATM    1  C2  UNL     1      17.326  -1.388  52.844  1.00  0.00     0.043 A 
HETATM    2  C3  UNL     1      18.125  -1.953  53.736  1.00  0.00     0.044 A 
HETATM    3  C4  UNL     1      19.428  -1.318  53.517  1.00  0.00    -0.005 A 
HETATM    4  C5  UNL     1      20.576  -1.545  54.153  1.00  0.00     0.147 C 
HETATM    5  O3  UNL     1      21.787  -0.871  53.864  1.00  0.00    -0.358 OA
HETATM    6  C6  UNL     1      21.830   0.528  53.688  1.00  0.00     0.211 C 
HETATM    7  C7  UNL     1      21.442   0.893  52.271  1.00  0.00    -0.023 C 
HETATM    8  C8  UNL     1      21.921   1.471  51.184  1.00  0.00     0.057 C 
HETATM    9  C15 UNL     1      20.127   0.623  51.677  1.00  0.00     0.078 C 
HETATM   10  C16 UNL     1      19.277  -0.343  52.418  1.00  0.00    -0.040 A 
HETATM   11  C17 UNL     1      18.002  -0.400  52.024  1.00  0.00     0.038 A 
ENDROOT
BRANCH   8  12
HETATM   12  N2  UNL     1      22.520   2.119  50.029  1.00  0.00    -0.323 N 
HETATM   13  H9  UNL     1      23.190   2.916  50.257  1.00  0.00     0.180 HD
BRANCH  12  14
HETATM   14  N3  UNL     1      22.198   1.698  48.736  1.00  0.00    -0.249 NA
HETATM   15  H10 UNL     1      21.153   1.538  48.726  1.00  0.00     0.143 HD
HETATM   16  H11 UNL     1      22.606   0.730  48.612  1.00  0.00     0.143 HD
ENDBRANCH  12  14
ENDBRANCH   8  12
BRANCH   8  17
HETATM   17  C9  UNL     1      23.203   1.738  51.905  1.00  0.00    -0.006 A 
HETATM   18  C10 UNL     1      23.460   2.870  52.688  1.00  0.00     0.017 A 
HETATM   19  C11 UNL     1      24.632   3.156  53.375  1.00  0.00     0.045 A 
HETATM   20  C12 UNL     1      25.625   2.208  53.253  1.00  0.00     0.138 A 
HETATM   21  F1  UNL     1      26.791   2.432  53.901  1.00  0.00    -0.204 F 
HETATM   22  C13 UNL     1      25.517   1.048  52.520  1.00  0.00     0.073 A 
HETATM   23 CL1  UNL     1      26.780  -0.148  52.365  1.00  0.00    -0.081 Cl
HETATM   24  C14 UNL     1      24.294   0.854  51.865  1.00  0.00     0.040 A 
ENDBRANCH   8  17
BRANCH   1  25
HETATM   25  N1  UNL     1      15.956  -1.764  52.761  1.00  0.00    -0.285 N 
HETATM   26  H4  UNL     1      15.726  -2.782  52.893  1.00  0.00     0.178 HD
BRANCH  25  27
HETATM   27  S1  UNL     1      14.686  -0.637  52.461  1.00  0.00     0.227 S 
HETATM   28  C1  UNL     1      13.082  -1.288  52.806  1.00  0.00     0.186 C 
HETATM   29  O1  UNL     1      14.857   0.617  53.265  1.00  0.00    -0.206 OA
HETATM   30  O2  UNL     1      14.714  -0.237  51.013  1.00  0.00    -0.206 OA
ENDBRANCH  25  27
ENDBRANCH   1  25
TORSDOF 5
ENDMDL
MODEL 7
REMARK VINA RESULT:      -7.7      7.000      8.639
REMARK  5 active torsions:
REMARK  status: ('A' for Active; 'I' for Inactive)
REMARK    1  A    between atoms: S1_2  and  N1_5 
REMARK    2  A    between atoms: N1_5  and  C2_6 
REMARK    3  A    between atoms: C8_13  and  N2_14 
REMARK    4  A    between atoms: C8_13  and  C9_16 
REMARK    5  A    between atoms: N2_14  and  N3_15 
ROOT
HETATM    1  C2  UNL     1      24.703   3.395  50.340  1.00  0.00     0.043 A 
HETATM    2  C3  UNL     1      24.319   4.625  50.642  1.00  0.00     0.044 A 
HETATM    3  C4  UNL     1      25.371   5.485  50.090  1.00  0.00    -0.005 A 
HETATM    4  C5  UNL     1      25.463   6.812  50.136  1.00  0.00     0.147 C 
HETATM    5  O3  UNL     1      26.527   7.552  49.566  1.00  0.00    -0.358 OA
HETATM    6  C6  UNL     1      27.004   7.278  48.268  1.00  0.00     0.211 C 
HETATM    7  C7  UNL     1      27.994   6.132  48.301  1.00  0.00    -0.023 C 
HETATM    8  C8  UNL     1      29.257   5.849  48.040  1.00  0.00     0.057 C 
HETATM    9  C15 UNL     1      27.663   4.765  48.723  1.00  0.00     0.078 C 
HETATM   10  C16 UNL     1      26.378   4.613  49.450  1.00  0.00    -0.040 A 
HETATM   11  C17 UNL     1      25.958   3.355  49.612  1.00  0.00     0.038 A 
ENDROOT
BRANCH   8  12
HETATM   12  N2  UNL     1      30.659   5.616  47.731  1.00  0.00    -0.323 N 
HETATM   13  H9  UNL     1      30.970   5.958  46.771  1.00  0.00     0.180 HD
BRANCH  12  14
HETATM   14  N3  UNL     1      31.491   4.976  48.653  1.00  0.00    -0.249 NA
HETATM   15  H10 UNL     1      30.862   4.630  49.431  1.00  0.00     0.143 HD
HETATM   16  H11 UNL     1      32.079   5.724  49.115  1.00  0.00     0.143 HD
ENDBRANCH  12  14
ENDBRANCH   8  12
BRANCH   8  17
HETATM   17  C9  UNL     1      29.468   7.257  47.588  1.00  0.00    -0.006 A 
HETATM   18  C10 UNL     1      29.257   7.719  46.283  1.00  0.00     0.017 A 
HETATM   19  C11 UNL     1      29.437   9.016  45.821  1.00  0.00     0.045 A 
HETATM   20  C12 UNL     1      29.869   9.917  46.770  1.00  0.00     0.138 A 
HETATM   21  F1  UNL     1      30.062  11.197  46.379  1.00  0.00    -0.204 F 
HETATM   22  C13 UNL     1      30.118   9.610  48.088  1.00  0.00     0.073 A 
HETATM   23 CL1  UNL     1      30.670  10.756  49.286  1.00  0.00    -0.081 Cl
HETATM   24  C14 UNL     1      29.905   8.274  48.453  1.00  0.00     0.040 A 
ENDBRANCH   8  17
BRANCH   1  25
HETATM   25  N1  UNL     1      23.912   2.276  50.724  1.00  0.00    -0.285 N 
HETATM   26  H4  UNL     1      23.152   1.973  50.062  1.00  0.00     0.178 HD
BRANCH  25  27
HETATM   27  S1  UNL     1      24.147   1.416  52.199  1.00  0.00     0.227 S 
HETATM   28  C1  UNL     1      22.775   0.397  52.637  1.00  0.00     0.186 C 
HETATM   29  O1  UNL     1      25.367   0.546  52.144  1.00  0.00    -0.206 OA
HETATM   30  O2  UNL     1      24.360   2.399  53.315  1.00  0.00    -0.206 OA
ENDBRANCH  25  27
ENDBRANCH   1  25
TORSDOF 5
ENDMDL
MODEL 8
REMARK VINA RESULT:      -7.6      5.263      9.122
REMARK  5 active torsions:
REMARK  status: ('A' for Active; 'I' for Inactive)
REMARK    1  A    between atoms: S1_2  and  N1_5 
REMARK    2  A    between atoms: N1_5  and  C2_6 
REMARK    3  A    between atoms: C8_13  and  N2_14 
REMARK    4  A    between atoms: C8_13  and  C9_16 
REMARK    5  A    between atoms: N2_14  and  N3_15 
ROOT
HETATM    1  C2  UNL     1      24.409  -0.633  53.937  1.00  0.00     0.043 A 
HETATM    2  C3  UNL     1      23.463  -0.801  54.848  1.00  0.00     0.044 A 
HETATM    3  C4  UNL     1      22.233  -0.353  54.187  1.00  0.00    -0.005 A 
HETATM    4  C5  UNL     1      20.998  -0.309  54.681  1.00  0.00     0.147 C 
HETATM    5  O3  UNL     1      19.870   0.141  53.953  1.00  0.00    -0.358 OA
HETATM    6  C6  UNL     1      19.632  -0.276  52.628  1.00  0.00     0.211 C 
HETATM    7  C7  UNL     1      20.430   0.569  51.658  1.00  0.00    -0.023 C 
HETATM    8  C8  UNL     1      20.278   1.411  50.651  1.00  0.00     0.057 C 
HETATM    9  C15 UNL     1      21.897   0.629  51.625  1.00  0.00     0.078 C 
HETATM   10  C16 UNL     1      22.586   0.078  52.819  1.00  0.00    -0.040 A 
HETATM   11  C17 UNL     1      23.904  -0.098  52.686  1.00  0.00     0.038 A 
ENDROOT
BRANCH   8  12
HETATM   12  N2  UNL     1      20.028   2.329  49.551  1.00  0.00    -0.323 N 
HETATM   13  H9  UNL     1      19.559   3.244  49.828  1.00  0.00     0.180 HD
BRANCH  12  14
HETATM   14  N3  UNL     1      20.384   1.982  48.245  1.00  0.00    -0.249 NA
HETATM   15  H10 UNL     1      21.254   2.538  48.016  1.00  0.00     0.143 HD
HETATM   16  H11 UNL     1      19.647   2.385  47.603  1.00  0.00     0.143 HD
ENDBRANCH  12  14
ENDBRANCH   8  12
BRANCH   8  17
HETATM   17  C9  UNL     1      18.797   1.237  50.744  1.00  0.00    -0.006 A 
HETATM   18  C10 UNL     1      18.085   0.147  50.228  1.00  0.00     0.017 A 
HETATM   19  C11 UNL     1      16.713  -0.056  50.294  1.00  0.00     0.045 A 
HETATM   20  C12 UNL     1      16.009   0.936  50.941  1.00  0.00     0.138 A 
HETATM   21  F1  UNL     1      14.667   0.793  51.038  1.00  0.00    -0.204 F 
HETATM   22  C13 UNL     1      16.570   2.062  51.498  1.00  0.00     0.073 A 
HETATM   23 CL1  UNL     1      15.671   3.319  52.313  1.00  0.00    -0.081 Cl
HETATM   24  C14 UNL     1      17.961   2.172  51.377  1.00  0.00     0.040 A 
ENDBRANCH   8  17
BRANCH   1  25
HETATM   25  N1  UNL     1      25.761  -0.969  54.230  1.00  0.00    -0.285 N 
HETATM   26  H4  UNL     1      25.972  -1.978  54.443  1.00  0.00     0.178 HD
BRANCH  25  27
HETATM   27  S1  UNL     1      27.038   0.189  54.246  1.00  0.00     0.227 S 
HETATM   28  C1  UNL     1      27.620   0.606  52.633  1.00  0.00     0.186 C 
HETATM   29  O1  UNL     1      26.625   1.458  54.929  1.00  0.00    -0.206 OA
HETATM   30  O2  UNL     1      28.199  -0.368  55.019  1.00  0.00    -0.206 OA
ENDBRANCH  25  27
ENDBRANCH   1  25
TORSDOF 5
ENDMDL
MODEL 9
REMARK VINA RESULT:      -7.5      5.519      9.014
REMARK  5 active torsions:
REMARK  status: ('A' for Active; 'I' for Inactive)
REMARK    1  A    between atoms: S1_2  and  N1_5 
REMARK    2  A    between atoms: N1_5  and  C2_6 
REMARK    3  A    between atoms: C8_13  and  N2_14 
REMARK    4  A    between atoms: C8_13  and  C9_16 
REMARK    5  A    between atoms: N2_14  and  N3_15 
ROOT
HETATM    1  C2  UNL     1      24.292   1.014  52.873  1.00  0.00     0.043 A 
HETATM    2  C3  UNL     1      24.200   1.569  51.674  1.00  0.00     0.044 A 
HETATM    3  C4  UNL     1      22.794   1.399  51.297  1.00  0.00    -0.005 A 
HETATM    4  C5  UNL     1      22.188   1.776  50.173  1.00  0.00     0.147 C 
HETATM    5  O3  UNL     1      20.814   1.564  49.905  1.00  0.00    -0.358 OA
HETATM    6  C6  UNL     1      19.823   1.840  50.870  1.00  0.00     0.211 C 
HETATM    7  C7  UNL     1      19.680   0.675  51.827  1.00  0.00    -0.023 C 
HETATM    8  C8  UNL     1      18.804  -0.222  52.240  1.00  0.00     0.057 C 
HETATM    9  C15 UNL     1      20.748   0.200  52.716  1.00  0.00     0.078 C 
HETATM   10  C16 UNL     1      22.111   0.696  52.402  1.00  0.00    -0.040 A 
HETATM   11  C17 UNL     1      23.031   0.472  53.344  1.00  0.00     0.038 A 
ENDROOT
BRANCH   8  12
HETATM   12  N2  UNL     1      17.784  -1.178  52.642  1.00  0.00    -0.323 N 
HETATM   13  H9  UNL     1      17.350  -1.734  51.844  1.00  0.00     0.180 HD
BRANCH  12  14
HETATM   14  N3  UNL     1      17.428  -1.309  53.987  1.00  0.00    -0.249 NA
HETATM   15  H10 UNL     1      17.672  -0.390  54.451  1.00  0.00     0.143 HD
HETATM   16  H11 UNL     1      18.101  -2.000  54.422  1.00  0.00     0.143 HD
ENDBRANCH  12  14
ENDBRANCH   8  12
BRANCH   8  17
HETATM   17  C9  UNL     1      17.780   0.375  51.331  1.00  0.00    -0.006 A 
HETATM   18  C10 UNL     1      17.399  -0.160  50.094  1.00  0.00     0.017 A 
HETATM   19  C11 UNL     1      16.453   0.359  49.220  1.00  0.00     0.045 A 
HETATM   20  C12 UNL     1      15.846   1.521  49.643  1.00  0.00     0.138 A 
HETATM   21  F1  UNL     1      14.913   2.074  48.834  1.00  0.00    -0.204 F 
HETATM   22  C13 UNL     1      16.116   2.161  50.831  1.00  0.00     0.073 A 
HETATM   23 CL1  UNL     1      15.345   3.636  51.362  1.00  0.00    -0.081 Cl
HETATM   24  C14 UNL     1      17.086   1.556  51.641  1.00  0.00     0.040 A 
ENDBRANCH   8  17
BRANCH   1  25
HETATM   25  N1  UNL     1      25.535   0.992  53.565  1.00  0.00    -0.285 N 
HETATM   26  H4  UNL     1      25.984   1.919  53.781  1.00  0.00     0.178 HD
BRANCH  25  27
HETATM   27  S1  UNL     1      26.315  -0.465  54.056  1.00  0.00     0.227 S 
HETATM   28  C1  UNL     1      26.723  -1.525  52.706  1.00  0.00     0.186 C 
HETATM   29  O1  UNL     1      27.575  -0.187  54.820  1.00  0.00    -0.206 OA
HETATM   30  O2  UNL     1      25.404  -1.227  54.975  1.00  0.00    -0.206 OA
ENDBRANCH  25  27
ENDBRANCH   1  25
TORSDOF 5
ENDMDL
