MODEL 1
REMARK VINA RESULT:      -7.4      0.000      0.000
REMARK  6 active torsions:
REMARK  status: ('A' for Active; 'I' for Inactive)
REMARK    1  A    between atoms: C3_3  and  C4_4 
REMARK       I    between atoms: N2_8  and  C7_9 
REMARK    2  A    between atoms: C7_9  and  C8_11 
REMARK    3  A    between atoms: C12_16  and  N3_17 
REMARK    4  A    between atoms: N3_17  and  S1_18 
REMARK    5  A    between atoms: S1_18  and  C13_21 
REMARK    6  A    between atoms: C13_21  and  C14_22 
ROOT
HETATM    1  C1  UNL     1      31.382   0.508  46.370  1.00  0.00     0.011 C 
HETATM    2  C2  UNL     1      32.366   1.489  46.801  1.00  0.00    -0.006 C 
HETATM    3  C3  UNL     1      33.325   2.296  47.124  1.00  0.00     0.021 C 
ENDROOT
BRANCH   3   4
HETATM    4  C4  UNL     1      34.119   3.337  47.633  1.00  0.00    -0.011 C 
HETATM    5  C5  UNL     1      33.950   4.475  46.958  1.00  0.00    -0.022 C 
HETATM    6  C6  UNL     1      33.068   4.754  45.798  1.00  0.00     0.147 C 
HETATM    7  C17 UNL     1      34.560   5.828  47.074  1.00  0.00     0.194 C 
HETATM    8  N1  UNL     1      32.756   6.017  45.816  1.00  0.00    -0.181 NA
HETATM    9  N2  UNL     1      33.367   6.649  46.923  1.00  0.00    -0.230 N 
HETATM   10  C7  UNL     1      33.241   7.694  47.855  1.00  0.00     0.280 C 
HETATM   11  O1  UNL     1      33.982   8.076  48.802  1.00  0.00    -0.265 OA
BRANCH  10  12
HETATM   12  C8  UNL     1      32.244   8.765  48.158  1.00  0.00     0.113 A 
HETATM   13  C9  UNL     1      32.493   9.996  47.530  1.00  0.00     0.135 A 
HETATM   14  F1  UNL     1      33.572  10.178  46.704  1.00  0.00    -0.205 F 
HETATM   15  C10 UNL     1      31.655  11.107  47.709  1.00  0.00     0.046 A 
HETATM   16  C11 UNL     1      30.603  10.837  48.548  1.00  0.00     0.036 A 
HETATM   17  C12 UNL     1      30.258   9.679  49.216  1.00  0.00     0.082 A 
HETATM   18  C16 UNL     1      31.158   8.627  48.973  1.00  0.00     0.162 A 
HETATM   19  F2  UNL     1      30.977   7.410  49.553  1.00  0.00    -0.203 F 
BRANCH  17  20
HETATM   20  N3  UNL     1      29.158   9.475  50.064  1.00  0.00    -0.281 N 
HETATM   21  H10 UNL     1      29.332   9.471  51.092  1.00  0.00     0.178 HD
BRANCH  20  22
HETATM   22  S1  UNL     1      27.590   9.246  49.459  1.00  0.00     0.231 S 
HETATM   23  O2  UNL     1      26.947  10.592  49.237  1.00  0.00    -0.206 OA
HETATM   24  O3  UNL     1      26.779   8.586  50.542  1.00  0.00    -0.206 OA
BRANCH  22  25
HETATM   25  C13 UNL     1      27.452   8.340  47.974  1.00  0.00     0.163 C 
BRANCH  25  26
HETATM   26  C14 UNL     1      27.028   6.913  48.372  1.00  0.00     0.012 C 
HETATM   27  C15 UNL     1      28.249   6.041  48.239  1.00  0.00     0.006 C 
ENDBRANCH  25  26
ENDBRANCH  22  25
ENDBRANCH  20  22
ENDBRANCH  17  20
ENDBRANCH  10  12
ENDBRANCH   3   4
TORSDOF 6
ENDMDL
MODEL 2
REMARK VINA RESULT:      -7.3      6.484      9.370
REMARK  6 active torsions:
REMARK  status: ('A' for Active; 'I' for Inactive)
REMARK    1  A    between atoms: C3_3  and  C4_4 
REMARK       I    between atoms: N2_8  and  C7_9 
REMARK    2  A    between atoms: C7_9  and  C8_11 
REMARK    3  A    between atoms: C12_16  and  N3_17 
REMARK    4  A    between atoms: N3_17  and  S1_18 
REMARK    5  A    between atoms: S1_18  and  C13_21 
REMARK    6  A    between atoms: C13_21  and  C14_22 
ROOT
HETATM    1  C1  UNL     1      30.166  -0.904  53.792  1.00  0.00     0.011 C 
HETATM    2  C2  UNL     1      28.786  -0.788  53.346  1.00  0.00    -0.006 C 
HETATM    3  C3  UNL     1      27.586  -0.570  52.916  1.00  0.00     0.021 C 
ENDROOT
BRANCH   3   4
HETATM    4  C4  UNL     1      26.231  -0.650  52.549  1.00  0.00    -0.011 C 
HETATM    5  C5  UNL     1      25.516   0.360  53.045  1.00  0.00    -0.022 C 
HETATM    6  C6  UNL     1      25.959   1.497  53.890  1.00  0.00     0.147 C 
HETATM    7  C17 UNL     1      24.071   0.716  52.977  1.00  0.00     0.194 C 
HETATM    8  N1  UNL     1      25.163   2.503  53.671  1.00  0.00    -0.181 NA
HETATM    9  N2  UNL     1      24.181   2.144  52.720  1.00  0.00    -0.230 N 
HETATM   10  C7  UNL     1      23.349   2.632  51.697  1.00  0.00     0.280 C 
HETATM   11  O1  UNL     1      22.498   2.066  50.957  1.00  0.00    -0.265 OA
BRANCH  10  12
HETATM   12  C8  UNL     1      23.097   3.948  51.036  1.00  0.00     0.113 A 
HETATM   13  C9  UNL     1      22.047   4.695  51.592  1.00  0.00     0.135 A 
HETATM   14  F1  UNL     1      21.322   4.233  52.662  1.00  0.00    -0.205 F 
HETATM   15  C10 UNL     1      21.677   5.951  51.090  1.00  0.00     0.046 A 
HETATM   16  C11 UNL     1      22.452   6.335  50.024  1.00  0.00     0.036 A 
HETATM   17  C12 UNL     1      23.501   5.694  49.396  1.00  0.00     0.082 A 
HETATM   18  C16 UNL     1      23.792   4.445  49.972  1.00  0.00     0.162 A 
HETATM   19  F2  UNL     1      24.795   3.670  49.478  1.00  0.00    -0.203 F 
BRANCH  17  20
HETATM   20  N3  UNL     1      24.253   6.151  48.303  1.00  0.00    -0.281 N 
HETATM   21  H10 UNL     1      23.843   6.037  47.351  1.00  0.00     0.178 HD
BRANCH  20  22
HETATM   22  S1  UNL     1      25.776   6.872  48.500  1.00  0.00     0.231 S 
HETATM   23  O2  UNL     1      25.754   7.737  49.735  1.00  0.00    -0.206 OA
HETATM   24  O3  UNL     1      25.981   7.818  47.348  1.00  0.00    -0.206 OA
BRANCH  22  25
HETATM   25  C13 UNL     1      27.139   5.790  48.634  1.00  0.00     0.163 C 
BRANCH  25  26
HETATM   26  C14 UNL     1      28.334   6.513  47.982  1.00  0.00     0.012 C 
HETATM   27  C15 UNL     1      29.504   5.567  48.046  1.00  0.00     0.006 C 
ENDBRANCH  25  26
ENDBRANCH  22  25
ENDBRANCH  20  22
ENDBRANCH  17  20
ENDBRANCH  10  12
ENDBRANCH   3   4
TORSDOF 6
ENDMDL
MODEL 3
REMARK VINA RESULT:      -6.9      9.622     12.357
REMARK  6 active torsions:
REMARK  status: ('A' for Active; 'I' for Inactive)
REMARK    1  A    between atoms: C3_3  and  C4_4 
REMARK       I    between atoms: N2_8  and  C7_9 
REMARK    2  A    between atoms: C7_9  and  C8_11 
REMARK    3  A    between atoms: C12_16  and  N3_17 
REMARK    4  A    between atoms: N3_17  and  S1_18 
REMARK    5  A    between atoms: S1_18  and  C13_21 
REMARK    6  A    between atoms: C13_21  and  C14_22 
ROOT
HETATM    1  C1  UNL     1      21.102   4.340  44.071  1.00  0.00     0.011 C 
HETATM    2  C2  UNL     1      21.019   4.468  45.518  1.00  0.00    -0.006 C 
HETATM    3  C3  UNL     1      20.958   4.459  46.811  1.00  0.00     0.021 C 
ENDROOT
BRANCH   3   4
HETATM    4  C4  UNL     1      20.860   4.783  48.175  1.00  0.00    -0.011 C 
HETATM    5  C5  UNL     1      20.507   3.732  48.917  1.00  0.00    -0.022 C 
HETATM    6  C6  UNL     1      20.225   2.338  48.493  1.00  0.00     0.147 C 
HETATM    7  C17 UNL     1      20.247   3.554  50.372  1.00  0.00     0.194 C 
HETATM    8  N1  UNL     1      20.492   1.546  49.490  1.00  0.00    -0.181 NA
HETATM    9  N2  UNL     1      20.949   2.299  50.596  1.00  0.00    -0.230 N 
HETATM   10  C7  UNL     1      21.775   2.273  51.734  1.00  0.00     0.280 C 
HETATM   11  O1  UNL     1      22.016   3.134  52.623  1.00  0.00    -0.265 OA
BRANCH  10  12
HETATM   12  C8  UNL     1      22.700   1.294  52.382  1.00  0.00     0.113 A 
HETATM   13  C9  UNL     1      22.075   0.363  53.226  1.00  0.00     0.135 A 
HETATM   14  F1  UNL     1      20.718   0.367  53.423  1.00  0.00    -0.205 F 
HETATM   15  C10 UNL     1      22.798  -0.622  53.914  1.00  0.00     0.046 A 
HETATM   16  C11 UNL     1      24.145  -0.554  53.660  1.00  0.00     0.036 A 
HETATM   17  C12 UNL     1      24.868   0.307  52.857  1.00  0.00     0.082 A 
HETATM   18  C16 UNL     1      24.054   1.256  52.214  1.00  0.00     0.162 A 
HETATM   19  F2  UNL     1      24.597   2.188  51.386  1.00  0.00    -0.203 F 
BRANCH  17  20
HETATM   20  N3  UNL     1      26.255   0.317  52.644  1.00  0.00    -0.281 N 
HETATM   21  H10 UNL     1      26.649  -0.384  51.982  1.00  0.00     0.178 HD
BRANCH  20  22
HETATM   22  S1  UNL     1      27.274   1.427  53.423  1.00  0.00     0.231 S 
HETATM   23  O2  UNL     1      26.439   2.337  54.290  1.00  0.00    -0.206 OA
HETATM   24  O3  UNL     1      27.870   2.315  52.365  1.00  0.00    -0.206 OA
BRANCH  22  25
HETATM   25  C13 UNL     1      28.538   0.757  54.422  1.00  0.00     0.163 C 
BRANCH  25  26
HETATM   26  C14 UNL     1      28.781  -0.677  53.914  1.00  0.00     0.012 C 
HETATM   27  C15 UNL     1      30.211  -0.739  53.444  1.00  0.00     0.006 C 
ENDBRANCH  25  26
ENDBRANCH  22  25
ENDBRANCH  20  22
ENDBRANCH  17  20
ENDBRANCH  10  12
ENDBRANCH   3   4
TORSDOF 6
ENDMDL
MODEL 4
REMARK VINA RESULT:      -6.9      6.953      8.398
REMARK  6 active torsions:
REMARK  status: ('A' for Active; 'I' for Inactive)
REMARK    1  A    between atoms: C3_3  and  C4_4 
REMARK       I    between atoms: N2_8  and  C7_9 
REMARK    2  A    between atoms: C7_9  and  C8_11 
REMARK    3  A    between atoms: C12_16  and  N3_17 
REMARK    4  A    between atoms: N3_17  and  S1_18 
REMARK    5  A    between atoms: S1_18  and  C13_21 
REMARK    6  A    between atoms: C13_21  and  C14_22 
ROOT
HETATM    1  C1  UNL     1      30.190  -1.552  53.843  1.00  0.00     0.011 C 
HETATM    2  C2  UNL     1      28.871  -1.289  53.289  1.00  0.00    -0.006 C 
HETATM    3  C3  UNL     1      27.654  -1.062  52.911  1.00  0.00     0.021 C 
ENDROOT
BRANCH   3   4
HETATM    4  C4  UNL     1      26.473  -0.801  52.196  1.00  0.00    -0.011 C 
HETATM    5  C5  UNL     1      25.917   0.359  52.550  1.00  0.00    -0.022 C 
HETATM    6  C6  UNL     1      26.376   1.351  53.553  1.00  0.00     0.147 C 
HETATM    7  C17 UNL     1      24.677   1.065  52.125  1.00  0.00     0.194 C 
HETATM    8  N1  UNL     1      25.938   2.524  53.198  1.00  0.00    -0.181 NA
HETATM    9  N2  UNL     1      25.196   2.420  52.000  1.00  0.00    -0.230 N 
HETATM   10  C7  UNL     1      24.818   3.097  50.827  1.00  0.00     0.280 C 
HETATM   11  O1  UNL     1      24.090   2.760  49.854  1.00  0.00    -0.265 OA
BRANCH  10  12
HETATM   12  C8  UNL     1      25.083   4.432  50.210  1.00  0.00     0.113 A 
HETATM   13  C9  UNL     1      26.256   4.506  49.444  1.00  0.00     0.135 A 
HETATM   14  F1  UNL     1      27.081   3.422  49.284  1.00  0.00    -0.205 F 
HETATM   15  C10 UNL     1      26.653   5.686  48.799  1.00  0.00     0.046 A 
HETATM   16  C11 UNL     1      25.772   6.718  49.012  1.00  0.00     0.036 A 
HETATM   17  C12 UNL     1      24.598   6.765  49.737  1.00  0.00     0.082 A 
HETATM   18  C16 UNL     1      24.290   5.535  50.344  1.00  0.00     0.162 A 
HETATM   19  F2  UNL     1      23.169   5.397  51.103  1.00  0.00    -0.203 F 
BRANCH  17  20
HETATM   20  N3  UNL     1      23.743   7.864  49.911  1.00  0.00    -0.281 N 
HETATM   21  H10 UNL     1      23.845   8.425  50.782  1.00  0.00     0.178 HD
BRANCH  20  22
HETATM   22  S1  UNL     1      22.577   8.285  48.752  1.00  0.00     0.231 S 
HETATM   23  O2  UNL     1      23.276   8.772  47.507  1.00  0.00    -0.206 OA
HETATM   24  O3  UNL     1      21.822   9.474  49.281  1.00  0.00    -0.206 OA
BRANCH  22  25
HETATM   25  C13 UNL     1      21.461   7.031  48.277  1.00  0.00     0.163 C 
BRANCH  25  26
HETATM   26  C14 UNL     1      21.997   6.447  46.955  1.00  0.00     0.012 C 
HETATM   27  C15 UNL     1      22.490   5.057  47.259  1.00  0.00     0.006 C 
ENDBRANCH  25  26
ENDBRANCH  22  25
ENDBRANCH  20  22
ENDBRANCH  17  20
ENDBRANCH  10  12
ENDBRANCH   3   4
TORSDOF 6
ENDMDL
MODEL 5
REMARK VINA RESULT:      -6.6      8.434     12.029
REMARK  6 active torsions:
REMARK  status: ('A' for Active; 'I' for Inactive)
REMARK    1  A    between atoms: C3_3  and  C4_4 
REMARK       I    between atoms: N2_8  and  C7_9 
REMARK    2  A    between atoms: C7_9  and  C8_11 
REMARK    3  A    between atoms: C12_16  and  N3_17 
REMARK    4  A    between atoms: N3_17  and  S1_18 
REMARK    5  A    between atoms: S1_18  and  C13_21 
REMARK    6  A    between atoms: C13_21  and  C14_22 
ROOT
HETATM    1  C1  UNL     1      25.316   7.974  46.774  1.00  0.00     0.011 C 
HETATM    2  C2  UNL     1      24.360   7.401  47.709  1.00  0.00    -0.006 C 
HETATM    3  C3  UNL     1      23.560   6.781  48.515  1.00  0.00     0.021 C 
ENDROOT
BRANCH   3   4
HETATM    4  C4  UNL     1      22.569   6.418  49.443  1.00  0.00    -0.011 C 
HETATM    5  C5  UNL     1      22.216   5.137  49.325  1.00  0.00    -0.022 C 
HETATM    6  C6  UNL     1      22.721   4.107  48.384  1.00  0.00     0.147 C 
HETATM    7  C17 UNL     1      21.217   4.287  50.031  1.00  0.00     0.194 C 
HETATM    8  N1  UNL     1      22.585   2.940  48.942  1.00  0.00    -0.181 NA
HETATM    9  N2  UNL     1      22.012   3.083  50.227  1.00  0.00    -0.230 N 
HETATM   10  C7  UNL     1      21.948   2.530  51.518  1.00  0.00     0.280 C 
HETATM   11  O1  UNL     1      21.310   2.869  52.552  1.00  0.00    -0.265 OA
BRANCH  10  12
HETATM   12  C8  UNL     1      22.562   1.371  52.235  1.00  0.00     0.113 A 
HETATM   13  C9  UNL     1      21.648   0.538  52.897  1.00  0.00     0.135 A 
HETATM   14  F1  UNL     1      20.299   0.784  52.873  1.00  0.00    -0.205 F 
HETATM   15  C10 UNL     1      22.058  -0.592  53.620  1.00  0.00     0.046 A 
HETATM   16  C11 UNL     1      23.420  -0.764  53.592  1.00  0.00     0.036 A 
HETATM   17  C12 UNL     1      24.409  -0.019  52.980  1.00  0.00     0.082 A 
HETATM   18  C16 UNL     1      23.896   1.090  52.284  1.00  0.00     0.162 A 
HETATM   19  F2  UNL     1      24.728   1.940  51.624  1.00  0.00    -0.203 F 
BRANCH  17  20
HETATM   20  N3  UNL     1      25.792  -0.257  52.994  1.00  0.00    -0.281 N 
HETATM   21  H10 UNL     1      26.176  -0.926  52.294  1.00  0.00     0.178 HD
BRANCH  20  22
HETATM   22  S1  UNL     1      26.822   0.512  54.101  1.00  0.00     0.231 S 
HETATM   23  O2  UNL     1      26.819  -0.263  55.395  1.00  0.00    -0.206 OA
HETATM   24  O3  UNL     1      26.217   1.849  54.430  1.00  0.00    -0.206 OA
BRANCH  22  25
HETATM   25  C13 UNL     1      28.484   0.714  53.608  1.00  0.00     0.163 C 
BRANCH  25  26
HETATM   26  C14 UNL     1      29.274  -0.441  54.254  1.00  0.00     0.012 C 
HETATM   27  C15 UNL     1      29.248  -1.588  53.278  1.00  0.00     0.006 C 
ENDBRANCH  25  26
ENDBRANCH  22  25
ENDBRANCH  20  22
ENDBRANCH  17  20
ENDBRANCH  10  12
ENDBRANCH   3   4
TORSDOF 6
ENDMDL
MODEL 6
REMARK VINA RESULT:      -6.6      3.611      7.288
REMARK  6 active torsions:
REMARK  status: ('A' for Active; 'I' for Inactive)
REMARK    1  A    between atoms: C3_3  and  C4_4 
REMARK       I    between atoms: N2_8  and  C7_9 
REMARK    2  A    between atoms: C7_9  and  C8_11 
REMARK    3  A    between atoms: C12_16  and  N3_17 
REMARK    4  A    between atoms: N3_17  and  S1_18 
REMARK    5  A    between atoms: S1_18  and  C13_21 
REMARK    6  A    between atoms: C13_21  and  C14_22 
ROOT
HETATM    1  C1  UNL     1      23.591   1.325  51.916  1.00  0.00     0.011 C 
HETATM    2  C2  UNL     1      23.628   2.358  50.892  1.00  0.00    -0.006 C 
HETATM    3  C3  UNL     1      23.578   3.338  50.049  1.00  0.00     0.021 C 
ENDROOT
BRANCH   3   4
HETATM    4  C4  UNL     1      23.751   4.218  48.967  1.00  0.00    -0.011 C 
HETATM    5  C5  UNL     1      24.168   5.422  49.360  1.00  0.00    -0.022 C 
HETATM    6  C6  UNL     1      24.458   5.912  50.731  1.00  0.00     0.147 C 
HETATM    7  C17 UNL     1      24.467   6.685  48.630  1.00  0.00     0.194 C 
HETATM    8  N1  UNL     1      25.348   6.858  50.646  1.00  0.00    -0.181 NA
HETATM    9  N2  UNL     1      25.705   7.066  49.295  1.00  0.00    -0.230 N 
HETATM   10  C7  UNL     1      26.744   7.468  48.436  1.00  0.00     0.280 C 
HETATM   11  O1  UNL     1      26.806   7.582  47.181  1.00  0.00    -0.265 OA
BRANCH  10  12
HETATM   12  C8  UNL     1      28.164   7.911  48.581  1.00  0.00     0.113 A 
HETATM   13  C9  UNL     1      28.333   9.143  49.231  1.00  0.00     0.135 A 
HETATM   14  F1  UNL     1      27.264   9.867  49.692  1.00  0.00    -0.205 F 
HETATM   15  C10 UNL     1      29.600   9.704  49.447  1.00  0.00     0.046 A 
HETATM   16  C11 UNL     1      30.611   8.915  48.955  1.00  0.00     0.036 A 
HETATM   17  C12 UNL     1      30.568   7.697  48.306  1.00  0.00     0.082 A 
HETATM   18  C16 UNL     1      29.255   7.222  48.137  1.00  0.00     0.162 A 
HETATM   19  F2  UNL     1      29.021   6.037  47.512  1.00  0.00    -0.203 F 
BRANCH  17  20
HETATM   20  N3  UNL     1      31.650   6.943  47.828  1.00  0.00    -0.281 N 
HETATM   21  H10 UNL     1      32.092   7.241  46.932  1.00  0.00     0.178 HD
BRANCH  20  22
HETATM   22  S1  UNL     1      32.240   5.591  48.666  1.00  0.00     0.231 S 
HETATM   23  O2  UNL     1      31.642   4.342  48.068  1.00  0.00    -0.206 OA
HETATM   24  O3  UNL     1      31.707   5.661  50.071  1.00  0.00    -0.206 OA
BRANCH  22  25
HETATM   25  C13 UNL     1      33.973   5.387  48.695  1.00  0.00     0.163 C 
BRANCH  25  26
HETATM   26  C14 UNL     1      34.374   4.865  47.301  1.00  0.00     0.012 C 
HETATM   27  C15 UNL     1      34.898   3.466  47.492  1.00  0.00     0.006 C 
ENDBRANCH  25  26
ENDBRANCH  22  25
ENDBRANCH  20  22
ENDBRANCH  17  20
ENDBRANCH  10  12
ENDBRANCH   3   4
TORSDOF 6
ENDMDL
MODEL 7
REMARK VINA RESULT:      -6.5      7.942     10.957
REMARK  6 active torsions:
REMARK  status: ('A' for Active; 'I' for Inactive)
REMARK    1  A    between atoms: C3_3  and  C4_4 
REMARK       I    between atoms: N2_8  and  C7_9 
REMARK    2  A    between atoms: C7_9  and  C8_11 
REMARK    3  A    between atoms: C12_16  and  N3_17 
REMARK    4  A    between atoms: N3_17  and  S1_18 
REMARK    5  A    between atoms: S1_18  and  C13_21 
REMARK    6  A    between atoms: C13_21  and  C14_22 
ROOT
HETATM    1  C1  UNL     1      25.552   8.470  44.755  1.00  0.00     0.011 C 
HETATM    2  C2  UNL     1      25.324   8.315  46.184  1.00  0.00    -0.006 C 
HETATM    3  C3  UNL     1      25.158   8.059  47.441  1.00  0.00     0.021 C 
ENDROOT
BRANCH   3   4
HETATM    4  C4  UNL     1      24.880   8.105  48.818  1.00  0.00    -0.011 C 
HETATM    5  C5  UNL     1      23.819   7.363  49.141  1.00  0.00    -0.022 C 
HETATM    6  C6  UNL     1      22.949   6.540  48.266  1.00  0.00     0.147 C 
HETATM    7  C17 UNL     1      23.113   7.102  50.426  1.00  0.00     0.194 C 
HETATM    8  N1  UNL     1      22.449   5.574  48.979  1.00  0.00    -0.181 NA
HETATM    9  N2  UNL     1      22.915   5.664  50.310  1.00  0.00    -0.230 N 
HETATM   10  C7  UNL     1      23.237   4.924  51.462  1.00  0.00     0.280 C 
HETATM   11  O1  UNL     1      23.653   5.271  52.601  1.00  0.00    -0.265 OA
BRANCH  10  12
HETATM   12  C8  UNL     1      23.249   3.484  51.859  1.00  0.00     0.113 A 
HETATM   13  C9  UNL     1      22.004   2.971  52.255  1.00  0.00     0.135 A 
HETATM   14  F1  UNL     1      20.876   3.750  52.267  1.00  0.00    -0.205 F 
HETATM   15  C10 UNL     1      21.842   1.638  52.661  1.00  0.00     0.046 A 
HETATM   16  C11 UNL     1      23.018   0.933  52.618  1.00  0.00     0.036 A 
HETATM   17  C12 UNL     1      24.290   1.324  52.249  1.00  0.00     0.082 A 
HETATM   18  C16 UNL     1      24.348   2.674  51.862  1.00  0.00     0.162 A 
HETATM   19  F2  UNL     1      25.524   3.234  51.470  1.00  0.00    -0.203 F 
BRANCH  17  20
HETATM   20  N3  UNL     1      25.455   0.541  52.231  1.00  0.00    -0.281 N 
HETATM   21  H10 UNL     1      25.676   0.020  51.356  1.00  0.00     0.178 HD
BRANCH  20  22
HETATM   22  S1  UNL     1      26.486   0.436  53.574  1.00  0.00     0.231 S 
HETATM   23  O2  UNL     1      26.172  -0.826  54.337  1.00  0.00    -0.206 OA
HETATM   24  O3  UNL     1      26.135   1.566  54.503  1.00  0.00    -0.206 OA
BRANCH  22  25
HETATM   25  C13 UNL     1      28.199   0.444  53.244  1.00  0.00     0.163 C 
BRANCH  25  26
HETATM   26  C14 UNL     1      28.682  -1.010  53.409  1.00  0.00     0.012 C 
HETATM   27  C15 UNL     1      30.154  -0.950  53.723  1.00  0.00     0.006 C 
ENDBRANCH  25  26
ENDBRANCH  22  25
ENDBRANCH  20  22
ENDBRANCH  17  20
ENDBRANCH  10  12
ENDBRANCH   3   4
TORSDOF 6
ENDMDL
MODEL 8
REMARK VINA RESULT:      -6.4      2.292      3.955
REMARK  6 active torsions:
REMARK  status: ('A' for Active; 'I' for Inactive)
REMARK    1  A    between atoms: C3_3  and  C4_4 
REMARK       I    between atoms: N2_8  and  C7_9 
REMARK    2  A    between atoms: C7_9  and  C8_11 
REMARK    3  A    between atoms: C12_16  and  N3_17 
REMARK    4  A    between atoms: N3_17  and  S1_18 
REMARK    5  A    between atoms: S1_18  and  C13_21 
REMARK    6  A    between atoms: C13_21  and  C14_22 
ROOT
HETATM    1  C1  UNL     1      33.920   4.292  41.014  1.00  0.00     0.011 C 
HETATM    2  C2  UNL     1      33.808   4.328  42.464  1.00  0.00    -0.006 C 
HETATM    3  C3  UNL     1      33.686   4.481  43.744  1.00  0.00     0.021 C 
ENDROOT
BRANCH   3   4
HETATM    4  C4  UNL     1      33.619   4.316  45.138  1.00  0.00    -0.011 C 
HETATM    5  C5  UNL     1      33.424   5.473  45.772  1.00  0.00    -0.022 C 
HETATM    6  C6  UNL     1      33.275   6.838  45.207  1.00  0.00     0.147 C 
HETATM    7  C17 UNL     1      33.311   5.840  47.211  1.00  0.00     0.194 C 
HETATM    8  N1  UNL     1      32.553   7.543  46.029  1.00  0.00    -0.181 NA
HETATM    9  N2  UNL     1      32.181   6.756  47.143  1.00  0.00    -0.230 N 
HETATM   10  C7  UNL     1      31.192   6.554  48.121  1.00  0.00     0.280 C 
HETATM   11  O1  UNL     1      31.099   5.732  49.073  1.00  0.00    -0.265 OA
BRANCH  10  12
HETATM   12  C8  UNL     1      29.872   7.162  48.472  1.00  0.00     0.113 A 
HETATM   13  C9  UNL     1      28.766   6.321  48.278  1.00  0.00     0.135 A 
HETATM   14  F1  UNL     1      28.908   5.042  47.804  1.00  0.00    -0.205 F 
HETATM   15  C10 UNL     1      27.455   6.737  48.556  1.00  0.00     0.046 A 
HETATM   16  C11 UNL     1      27.405   8.025  49.025  1.00  0.00     0.036 A 
HETATM   17  C12 UNL     1      28.414   8.940  49.257  1.00  0.00     0.082 A 
HETATM   18  C16 UNL     1      29.686   8.428  48.946  1.00  0.00     0.162 A 
HETATM   19  F2  UNL     1      30.800   9.193  49.108  1.00  0.00    -0.203 F 
BRANCH  17  20
HETATM   20  N3  UNL     1      28.287  10.250  49.741  1.00  0.00    -0.281 N 
HETATM   21  H10 UNL     1      28.456  10.411  50.757  1.00  0.00     0.178 HD
BRANCH  20  22
HETATM   22  S1  UNL     1      27.879  11.546  48.726  1.00  0.00     0.231 S 
HETATM   23  O2  UNL     1      28.329  12.835  49.367  1.00  0.00    -0.206 OA
HETATM   24  O3  UNL     1      26.377  11.625  48.674  1.00  0.00    -0.206 OA
BRANCH  22  25
HETATM   25  C13 UNL     1      28.530  11.504  47.107  1.00  0.00     0.163 C 
BRANCH  25  26
HETATM   26  C14 UNL     1      29.660  12.551  47.064  1.00  0.00     0.012 C 
HETATM   27  C15 UNL     1      30.960  11.796  47.147  1.00  0.00     0.006 C 
ENDBRANCH  25  26
ENDBRANCH  22  25
ENDBRANCH  20  22
ENDBRANCH  17  20
ENDBRANCH  10  12
ENDBRANCH   3   4
TORSDOF 6
ENDMDL
MODEL 9
REMARK VINA RESULT:      -6.4      9.830     13.471
REMARK  6 active torsions:
REMARK  status: ('A' for Active; 'I' for Inactive)
REMARK    1  A    between atoms: C3_3  and  C4_4 
REMARK       I    between atoms: N2_8  and  C7_9 
REMARK    2  A    between atoms: C7_9  and  C8_11 
REMARK    3  A    between atoms: C12_16  and  N3_17 
REMARK    4  A    between atoms: N3_17  and  S1_18 
REMARK    5  A    between atoms: S1_18  and  C13_21 
REMARK    6  A    between atoms: C13_21  and  C14_22 
ROOT
HETATM    1  C1  UNL     1      17.834   4.323  45.542  1.00  0.00     0.011 C 
HETATM    2  C2  UNL     1      17.971   4.290  46.990  1.00  0.00    -0.006 C 
HETATM    3  C3  UNL     1      18.214   4.284  48.261  1.00  0.00     0.021 C 
ENDROOT
BRANCH   3   4
HETATM    4  C4  UNL     1      18.147   4.214  49.663  1.00  0.00    -0.011 C 
HETATM    5  C5  UNL     1      18.388   2.983  50.116  1.00  0.00    -0.022 C 
HETATM    6  C6  UNL     1      18.705   1.749  49.356  1.00  0.00     0.147 C 
HETATM    7  C17 UNL     1      18.410   2.387  51.481  1.00  0.00     0.194 C 
HETATM    8  N1  UNL     1      19.413   0.969  50.119  1.00  0.00    -0.181 NA
HETATM    9  N2  UNL     1      19.617   1.580  51.378  1.00  0.00    -0.230 N 
HETATM   10  C7  UNL     1      20.499   1.683  52.468  1.00  0.00     0.280 C 
HETATM   11  O1  UNL     1      20.438   2.337  53.545  1.00  0.00    -0.265 OA
BRANCH  10  12
HETATM   12  C8  UNL     1      21.832   1.122  52.844  1.00  0.00     0.113 A 
HETATM   13  C9  UNL     1      21.808  -0.212  53.278  1.00  0.00     0.135 A 
HETATM   14  F1  UNL     1      20.641  -0.929  53.340  1.00  0.00    -0.205 F 
HETATM   15  C10 UNL     1      22.972  -0.889  53.670  1.00  0.00     0.046 A 
HETATM   16  C11 UNL     1      24.091  -0.100  53.577  1.00  0.00     0.036 A 
HETATM   17  C12 UNL     1      24.238   1.211  53.168  1.00  0.00     0.082 A 
HETATM   18  C16 UNL     1      23.016   1.799  52.798  1.00  0.00     0.162 A 
HETATM   19  F2  UNL     1      22.969   3.091  52.372  1.00  0.00    -0.203 F 
BRANCH  17  20
HETATM   20  N3  UNL     1      25.423   1.958  53.098  1.00  0.00    -0.281 N 
HETATM   21  H10 UNL     1      25.357   2.988  53.247  1.00  0.00     0.178 HD
BRANCH  20  22
HETATM   22  S1  UNL     1      26.925   1.231  52.788  1.00  0.00     0.231 S 
HETATM   23  O2  UNL     1      27.906   2.293  52.358  1.00  0.00    -0.206 OA
HETATM   24  O3  UNL     1      26.754   0.333  51.594  1.00  0.00    -0.206 OA
BRANCH  22  25
HETATM   25  C13 UNL     1      27.647   0.344  54.105  1.00  0.00     0.163 C 
BRANCH  25  26
HETATM   26  C14 UNL     1      29.173   0.442  53.912  1.00  0.00     0.012 C 
HETATM   27  C15 UNL     1      29.660  -0.940  53.564  1.00  0.00     0.006 C 
ENDBRANCH  25  26
ENDBRANCH  22  25
ENDBRANCH  20  22
ENDBRANCH  17  20
ENDBRANCH  10  12
ENDBRANCH   3   4
TORSDOF 6
ENDMDL
