MODEL 1
REMARK VINA RESULT:      -7.7      0.000      0.000
REMARK  7 active torsions:
REMARK  status: ('A' for Active; 'I' for Inactive)
REMARK    1  A    between atoms: O1_1  and  C1_2 
REMARK    2  A    between atoms: C4_5  and  C5_6 
REMARK    3  A    between atoms: C5_6  and  N1_7 
REMARK    4  A    between atoms: N1_7  and  P1_9 
REMARK    5  A    between atoms: P1_9  and  C6_10 
REMARK    6  A    between atoms: C6_10  and  C7_11 
REMARK    7  A    between atoms: C12_17  and  O2_18 
ROOT
HETATM    1  P1  UNL     1      24.397   2.482  52.099  1.00  0.00    -0.032 P 
HETATM    2  H6  UNL     1      24.327   2.531  53.536  1.00  0.00     0.075 HD
ENDROOT
BRANCH   1   3
HETATM    3  N1  UNL     1      25.966   1.936  51.470  1.00  0.00    -0.201 NA
HETATM    4 CL1  UNL     1      26.428   2.870  50.110  1.00  0.00    -0.017 Cl
BRANCH   3   5
HETATM    5  C5  UNL     1      26.993   1.795  52.469  1.00  0.00     0.151 C 
BRANCH   5   6
HETATM    6  C4  UNL     1      27.349   0.351  52.655  1.00  0.00    -0.043 A 
HETATM    7  C3  UNL     1      26.606  -0.731  52.240  1.00  0.00     0.011 A 
HETATM    8  C2  UNL     1      27.087  -1.998  52.496  1.00  0.00     0.037 A 
HETATM    9  C1  UNL     1      28.287  -2.213  53.155  1.00  0.00     0.065 A 
HETATM   10  C14 UNL     1      29.056  -1.139  53.586  1.00  0.00     0.037 A 
HETATM   11  C13 UNL     1      28.556   0.128  53.318  1.00  0.00     0.011 A 
BRANCH   9  12
HETATM   12  O1  UNL     1      28.740  -3.499  53.397  1.00  0.00    -0.361 OA
HETATM   13  H1  UNL     1      28.083  -4.268  53.247  1.00  0.00     0.217 HD
ENDBRANCH   9  12
ENDBRANCH   5   6
ENDBRANCH   3   5
ENDBRANCH   1   3
BRANCH   1  14
HETATM   14  C6  UNL     1      23.067   1.377  51.386  1.00  0.00     0.090 C 
BRANCH  14  15
HETATM   15  C7  UNL     1      22.617   0.472  52.470  1.00  0.00    -0.018 A 
HETATM   16  C8  UNL     1      23.573   0.072  53.386  1.00  0.00     0.034 A 
HETATM   17  C9  UNL     1      23.285  -0.784  54.452  1.00  0.00     0.034 A 
HETATM   18 CL2  UNL     1      24.507  -1.282  55.606  1.00  0.00    -0.084 Cl
HETATM   19  C10 UNL     1      21.959  -1.218  54.541  1.00  0.00     0.026 A 
HETATM   20  C11 UNL     1      20.976  -0.836  53.638  1.00  0.00     0.039 A 
HETATM   21  C12 UNL     1      21.331   0.011  52.609  1.00  0.00     0.072 A 
BRANCH  21  22
HETATM   22  O2  UNL     1      20.385   0.422  51.679  1.00  0.00    -0.360 OA
HETATM   23  H12 UNL     1      19.413   0.517  51.881  1.00  0.00     0.217 HD
ENDBRANCH  21  22
ENDBRANCH  14  15
ENDBRANCH   1  14
TORSDOF 7
ENDMDL
MODEL 2
REMARK VINA RESULT:      -7.3      2.398      6.708
REMARK  7 active torsions:
REMARK  status: ('A' for Active; 'I' for Inactive)
REMARK    1  A    between atoms: O1_1  and  C1_2 
REMARK    2  A    between atoms: C4_5  and  C5_6 
REMARK    3  A    between atoms: C5_6  and  N1_7 
REMARK    4  A    between atoms: N1_7  and  P1_9 
REMARK    5  A    between atoms: P1_9  and  C6_10 
REMARK    6  A    between atoms: C6_10  and  C7_11 
REMARK    7  A    between atoms: C12_17  and  O2_18 
ROOT
HETATM    1  P1  UNL     1      24.894  -0.503  53.904  1.00  0.00    -0.032 P 
HETATM    2  H6  UNL     1      25.472   0.773  54.236  1.00  0.00     0.075 HD
ENDROOT
BRANCH   1   3
HETATM    3  N1  UNL     1      23.317  -0.393  53.094  1.00  0.00    -0.201 NA
HETATM    4 CL1  UNL     1      22.196  -1.472  53.811  1.00  0.00    -0.017 Cl
BRANCH   3   5
HETATM    5  C5  UNL     1      22.824   0.948  52.927  1.00  0.00     0.151 C 
BRANCH   5   6
HETATM    6  C4  UNL     1      22.533   1.224  51.482  1.00  0.00    -0.043 A 
HETATM    7  C3  UNL     1      21.548   0.633  50.723  1.00  0.00     0.011 A 
HETATM    8  C2  UNL     1      21.420   1.008  49.402  1.00  0.00     0.037 A 
HETATM    9  C1  UNL     1      22.247   1.954  48.820  1.00  0.00     0.065 A 
HETATM   10  C14 UNL     1      23.250   2.566  49.562  1.00  0.00     0.037 A 
HETATM   11  C13 UNL     1      23.363   2.176  50.890  1.00  0.00     0.011 A 
BRANCH   9  12
HETATM   12  O1  UNL     1      22.092   2.307  47.489  1.00  0.00    -0.361 OA
HETATM   13  H1  UNL     1      22.911   2.234  46.882  1.00  0.00     0.217 HD
ENDBRANCH   9  12
ENDBRANCH   5   6
ENDBRANCH   3   5
ENDBRANCH   1   3
BRANCH   1  14
HETATM   14  C6  UNL     1      26.038  -1.511  52.820  1.00  0.00     0.090 C 
BRANCH  14  15
HETATM   15  C7  UNL     1      27.419  -1.045  53.081  1.00  0.00    -0.018 A 
HETATM   16  C8  UNL     1      27.592   0.313  53.281  1.00  0.00     0.034 A 
HETATM   17  C9  UNL     1      28.842   0.886  53.531  1.00  0.00     0.034 A 
HETATM   18 CL2  UNL     1      29.047   2.609  53.782  1.00  0.00    -0.084 Cl
HETATM   19  C10 UNL     1      29.921  -0.003  53.567  1.00  0.00     0.026 A 
HETATM   20  C11 UNL     1      29.781  -1.371  53.370  1.00  0.00     0.039 A 
HETATM   21  C12 UNL     1      28.517  -1.868  53.129  1.00  0.00     0.072 A 
BRANCH  21  22
HETATM   22  O2  UNL     1      28.324  -3.228  52.924  1.00  0.00    -0.360 OA
HETATM   23  H12 UNL     1      27.429  -3.669  52.930  1.00  0.00     0.217 HD
ENDBRANCH  21  22
ENDBRANCH  14  15
ENDBRANCH   1  14
TORSDOF 7
ENDMDL
MODEL 3
REMARK VINA RESULT:      -7.2      1.904      2.748
REMARK  7 active torsions:
REMARK  status: ('A' for Active; 'I' for Inactive)
REMARK    1  A    between atoms: O1_1  and  C1_2 
REMARK    2  A    between atoms: C4_5  and  C5_6 
REMARK    3  A    between atoms: C5_6  and  N1_7 
REMARK    4  A    between atoms: N1_7  and  P1_9 
REMARK    5  A    between atoms: P1_9  and  C6_10 
REMARK    6  A    between atoms: C6_10  and  C7_11 
REMARK    7  A    between atoms: C12_17  and  O2_18 
ROOT
HETATM    1  P1  UNL     1      24.521   2.459  52.281  1.00  0.00    -0.032 P 
HETATM    2  H6  UNL     1      24.606   3.690  53.023  1.00  0.00     0.075 HD
ENDROOT
BRANCH   1   3
HETATM    3  N1  UNL     1      26.090   1.844  51.720  1.00  0.00    -0.201 NA
HETATM    4 CL1  UNL     1      26.543   2.600  50.251  1.00  0.00    -0.017 Cl
BRANCH   3   5
HETATM    5  C5  UNL     1      27.121   1.834  52.724  1.00  0.00     0.151 C 
BRANCH   5   6
HETATM    6  C4  UNL     1      27.644   0.444  52.926  1.00  0.00    -0.043 A 
HETATM    7  C3  UNL     1      28.853   0.103  53.492  1.00  0.00     0.011 A 
HETATM    8  C2  UNL     1      29.176  -1.233  53.601  1.00  0.00     0.037 A 
HETATM    9  C1  UNL     1      28.327  -2.236  53.160  1.00  0.00     0.065 A 
HETATM   10  C14 UNL     1      27.102  -1.920  52.584  1.00  0.00     0.037 A 
HETATM   11  C13 UNL     1      26.795  -0.570  52.484  1.00  0.00     0.011 A 
BRANCH   9  12
HETATM   12  O1  UNL     1      28.683  -3.569  53.284  1.00  0.00    -0.361 OA
HETATM   13  H1  UNL     1      28.877  -4.087  52.424  1.00  0.00     0.217 HD
ENDBRANCH   9  12
ENDBRANCH   5   6
ENDBRANCH   3   5
ENDBRANCH   1   3
BRANCH   1  14
HETATM   14  C6  UNL     1      23.692   1.113  53.282  1.00  0.00     0.090 C 
BRANCH  14  15
HETATM   15  C7  UNL     1      22.394   0.817  52.633  1.00  0.00    -0.018 A 
HETATM   16  C8  UNL     1      22.314   1.033  51.269  1.00  0.00     0.034 A 
HETATM   17  C9  UNL     1      21.148   0.800  50.534  1.00  0.00     0.034 A 
HETATM   18 CL2  UNL     1      21.062   1.079  48.806  1.00  0.00    -0.084 Cl
HETATM   19  C10 UNL     1      20.053   0.331  51.267  1.00  0.00     0.026 A 
HETATM   20  C11 UNL     1      20.100   0.105  52.636  1.00  0.00     0.039 A 
HETATM   21  C12 UNL     1      21.284   0.356  53.297  1.00  0.00     0.072 A 
BRANCH  21  22
HETATM   22  O2  UNL     1      21.382   0.146  54.667  1.00  0.00    -0.360 OA
HETATM   23  H12 UNL     1      21.017  -0.657  55.133  1.00  0.00     0.217 HD
ENDBRANCH  21  22
ENDBRANCH  14  15
ENDBRANCH   1  14
TORSDOF 7
ENDMDL
MODEL 4
REMARK VINA RESULT:      -7.1      1.693      2.224
REMARK  7 active torsions:
REMARK  status: ('A' for Active; 'I' for Inactive)
REMARK    1  A    between atoms: O1_1  and  C1_2 
REMARK    2  A    between atoms: C4_5  and  C5_6 
REMARK    3  A    between atoms: C5_6  and  N1_7 
REMARK    4  A    between atoms: N1_7  and  P1_9 
REMARK    5  A    between atoms: P1_9  and  C6_10 
REMARK    6  A    between atoms: C6_10  and  C7_11 
REMARK    7  A    between atoms: C12_17  and  O2_18 
ROOT
HETATM    1  P1  UNL     1      24.709   2.861  52.892  1.00  0.00    -0.032 P 
HETATM    2  H6  UNL     1      23.662   2.855  53.879  1.00  0.00     0.075 HD
ENDROOT
BRANCH   1   3
HETATM    3  N1  UNL     1      26.253   2.201  53.472  1.00  0.00    -0.201 NA
HETATM    4 CL1  UNL     1      25.987   1.050  54.713  1.00  0.00    -0.017 Cl
BRANCH   3   5
HETATM    5  C5  UNL     1      27.140   1.754  52.430  1.00  0.00     0.151 C 
BRANCH   5   6
HETATM    6  C4  UNL     1      27.646   0.375  52.726  1.00  0.00    -0.043 A 
HETATM    7  C3  UNL     1      28.825   0.060  53.365  1.00  0.00     0.011 A 
HETATM    8  C2  UNL     1      29.136  -1.270  53.556  1.00  0.00     0.037 A 
HETATM    9  C1  UNL     1      28.304  -2.292  53.126  1.00  0.00     0.065 A 
HETATM   10  C14 UNL     1      27.109  -2.002  52.478  1.00  0.00     0.037 A 
HETATM   11  C13 UNL     1      26.813  -0.658  52.296  1.00  0.00     0.011 A 
BRANCH   9  12
HETATM   12  O1  UNL     1      28.647  -3.618  53.333  1.00  0.00    -0.361 OA
HETATM   13  H1  UNL     1      29.569  -3.810  53.732  1.00  0.00     0.217 HD
ENDBRANCH   9  12
ENDBRANCH   5   6
ENDBRANCH   3   5
ENDBRANCH   1   3
BRANCH   1  14
HETATM   14  C6  UNL     1      24.209   1.914  51.358  1.00  0.00     0.090 C 
BRANCH  14  15
HETATM   15  C7  UNL     1      22.945   1.207  51.668  1.00  0.00    -0.018 A 
HETATM   16  C8  UNL     1      22.850   0.616  52.915  1.00  0.00     0.034 A 
HETATM   17  C9  UNL     1      21.717  -0.087  53.333  1.00  0.00     0.034 A 
HETATM   18 CL2  UNL     1      21.610  -0.832  54.916  1.00  0.00    -0.084 Cl
HETATM   19  C10 UNL     1      20.672  -0.159  52.406  1.00  0.00     0.026 A 
HETATM   20  C11 UNL     1      20.735   0.424  51.147  1.00  0.00     0.039 A 
HETATM   21  C12 UNL     1      21.885   1.102  50.802  1.00  0.00     0.072 A 
BRANCH  21  22
HETATM   22  O2  UNL     1      21.999   1.702  49.554  1.00  0.00    -0.360 OA
HETATM   23  H12 UNL     1      22.642   2.435  49.347  1.00  0.00     0.217 HD
ENDBRANCH  21  22
ENDBRANCH  14  15
ENDBRANCH   1  14
TORSDOF 7
ENDMDL
MODEL 5
REMARK VINA RESULT:      -6.9      2.424      6.664
REMARK  7 active torsions:
REMARK  status: ('A' for Active; 'I' for Inactive)
REMARK    1  A    between atoms: O1_1  and  C1_2 
REMARK    2  A    between atoms: C4_5  and  C5_6 
REMARK    3  A    between atoms: C5_6  and  N1_7 
REMARK    4  A    between atoms: N1_7  and  P1_9 
REMARK    5  A    between atoms: P1_9  and  C6_10 
REMARK    6  A    between atoms: C6_10  and  C7_11 
REMARK    7  A    between atoms: C12_17  and  O2_18 
ROOT
HETATM    1  P1  UNL     1      25.692   1.959  52.220  1.00  0.00    -0.032 P 
HETATM    2  H6  UNL     1      26.034   0.871  51.342  1.00  0.00     0.075 HD
ENDROOT
BRANCH   1   3
HETATM    3  N1  UNL     1      23.945   2.174  52.459  1.00  0.00    -0.201 NA
HETATM    4 CL1  UNL     1      23.546   3.839  52.518  1.00  0.00    -0.017 Cl
BRANCH   3   5
HETATM    5  C5  UNL     1      23.121   1.398  51.570  1.00  0.00     0.151 C 
BRANCH   5   6
HETATM    6  C4  UNL     1      21.981   0.777  52.319  1.00  0.00    -0.043 A 
HETATM    7  C3  UNL     1      21.976   0.426  53.651  1.00  0.00     0.011 A 
HETATM    8  C2  UNL     1      20.834  -0.139  54.179  1.00  0.00     0.037 A 
HETATM    9  C1  UNL     1      19.700  -0.362  53.415  1.00  0.00     0.065 A 
HETATM   10  C14 UNL     1      19.678  -0.019  52.069  1.00  0.00     0.037 A 
HETATM   11  C13 UNL     1      20.836   0.548  51.556  1.00  0.00     0.011 A 
BRANCH   9  12
HETATM   12  O1  UNL     1      18.569  -0.932  53.978  1.00  0.00    -0.361 OA
HETATM   13  H1  UNL     1      18.247  -0.557  54.873  1.00  0.00     0.217 HD
ENDBRANCH   9  12
ENDBRANCH   5   6
ENDBRANCH   3   5
ENDBRANCH   1   3
BRANCH   1  14
HETATM   14  C6  UNL     1      26.490   1.759  53.900  1.00  0.00     0.090 C 
BRANCH  14  15
HETATM   15  C7  UNL     1      27.668   0.878  53.727  1.00  0.00    -0.018 A 
HETATM   16  C8  UNL     1      27.418  -0.443  53.400  1.00  0.00     0.034 A 
HETATM   17  C9  UNL     1      28.437  -1.381  53.214  1.00  0.00     0.034 A 
HETATM   18 CL2  UNL     1      28.104  -3.051  52.799  1.00  0.00    -0.084 Cl
HETATM   19  C10 UNL     1      29.740  -0.902  53.380  1.00  0.00     0.026 A 
HETATM   20  C11 UNL     1      30.026   0.417  53.708  1.00  0.00     0.039 A 
HETATM   21  C12 UNL     1      28.970   1.289  53.877  1.00  0.00     0.072 A 
BRANCH  21  22
HETATM   22  O2  UNL     1      29.202   2.618  54.207  1.00  0.00    -0.360 OA
HETATM   23  H12 UNL     1      30.078   3.077  54.076  1.00  0.00     0.217 HD
ENDBRANCH  21  22
ENDBRANCH  14  15
ENDBRANCH   1  14
TORSDOF 7
ENDMDL
MODEL 6
REMARK VINA RESULT:      -6.7      1.626      2.165
REMARK  7 active torsions:
REMARK  status: ('A' for Active; 'I' for Inactive)
REMARK    1  A    between atoms: O1_1  and  C1_2 
REMARK    2  A    between atoms: C4_5  and  C5_6 
REMARK    3  A    between atoms: C5_6  and  N1_7 
REMARK    4  A    between atoms: N1_7  and  P1_9 
REMARK    5  A    between atoms: P1_9  and  C6_10 
REMARK    6  A    between atoms: C6_10  and  C7_11 
REMARK    7  A    between atoms: C12_17  and  O2_18 
ROOT
HETATM    1  P1  UNL     1      22.451   1.713  50.675  1.00  0.00    -0.032 P 
HETATM    2  H6  UNL     1      21.688   2.216  49.562  1.00  0.00     0.075 HD
ENDROOT
BRANCH   1   3
HETATM    3  N1  UNL     1      24.134   2.280  50.712  1.00  0.00    -0.201 NA
HETATM    4 CL1  UNL     1      24.446   3.328  49.393  1.00  0.00    -0.017 Cl
BRANCH   3   5
HETATM    5  C5  UNL     1      24.564   2.789  51.988  1.00  0.00     0.151 C 
BRANCH   5   6
HETATM    6  C4  UNL     1      25.515   1.833  52.642  1.00  0.00    -0.043 A 
HETATM    7  C3  UNL     1      25.974   1.900  53.939  1.00  0.00     0.011 A 
HETATM    8  C2  UNL     1      26.850   0.930  54.379  1.00  0.00     0.037 A 
HETATM    9  C1  UNL     1      27.280  -0.102  53.560  1.00  0.00     0.065 A 
HETATM   10  C14 UNL     1      26.834  -0.193  52.247  1.00  0.00     0.037 A 
HETATM   11  C13 UNL     1      25.952   0.792  51.824  1.00  0.00     0.011 A 
BRANCH   9  12
HETATM   12  O1  UNL     1      28.162  -1.059  54.034  1.00  0.00    -0.361 OA
HETATM   13  H1  UNL     1      28.243  -1.930  53.504  1.00  0.00     0.217 HD
ENDBRANCH   9  12
ENDBRANCH   5   6
ENDBRANCH   3   5
ENDBRANCH   1   3
BRANCH   1  14
HETATM   14  C6  UNL     1      21.651   2.154  52.308  1.00  0.00     0.090 C 
BRANCH  14  15
HETATM   15  C7  UNL     1      21.377   0.885  53.021  1.00  0.00    -0.018 A 
HETATM   16  C8  UNL     1      22.400   0.370  53.797  1.00  0.00     0.034 A 
HETATM   17  C9  UNL     1      22.277  -0.822  54.516  1.00  0.00     0.034 A 
HETATM   18 CL2  UNL     1      23.582  -1.461  55.495  1.00  0.00    -0.084 Cl
HETATM   19  C10 UNL     1      21.044  -1.472  54.404  1.00  0.00     0.026 A 
HETATM   20  C11 UNL     1      19.997  -0.984  53.634  1.00  0.00     0.039 A 
HETATM   21  C12 UNL     1      20.189   0.199  52.950  1.00  0.00     0.072 A 
BRANCH  21  22
HETATM   22  O2  UNL     1      19.173   0.730  52.165  1.00  0.00    -0.360 OA
HETATM   23  H12 UNL     1      18.999   0.454  51.223  1.00  0.00     0.217 HD
ENDBRANCH  21  22
ENDBRANCH  14  15
ENDBRANCH   1  14
TORSDOF 7
ENDMDL
MODEL 7
REMARK VINA RESULT:      -6.7      3.599      4.870
REMARK  7 active torsions:
REMARK  status: ('A' for Active; 'I' for Inactive)
REMARK    1  A    between atoms: O1_1  and  C1_2 
REMARK    2  A    between atoms: C4_5  and  C5_6 
REMARK    3  A    between atoms: C5_6  and  N1_7 
REMARK    4  A    between atoms: N1_7  and  P1_9 
REMARK    5  A    between atoms: P1_9  and  C6_10 
REMARK    6  A    between atoms: C6_10  and  C7_11 
REMARK    7  A    between atoms: C12_17  and  O2_18 
ROOT
HETATM    1  P1  UNL     1      21.113   1.164  50.608  1.00  0.00    -0.032 P 
HETATM    2  H6  UNL     1      19.806   1.396  50.051  1.00  0.00     0.075 HD
ENDROOT
BRANCH   1   3
HETATM    3  N1  UNL     1      22.434   1.918  49.691  1.00  0.00    -0.201 NA
HETATM    4 CL1  UNL     1      22.228   1.654  48.011  1.00  0.00    -0.017 Cl
BRANCH   3   5
HETATM    5  C5  UNL     1      22.701   3.287  50.047  1.00  0.00     0.151 C 
BRANCH   5   6
HETATM    6  C4  UNL     1      24.160   3.595  49.890  1.00  0.00    -0.043 A 
HETATM    7  C3  UNL     1      25.208   2.808  50.314  1.00  0.00     0.011 A 
HETATM    8  C2  UNL     1      26.496   3.247  50.087  1.00  0.00     0.037 A 
HETATM    9  C1  UNL     1      26.764   4.448  49.449  1.00  0.00     0.065 A 
HETATM   10  C14 UNL     1      25.725   5.262  49.012  1.00  0.00     0.037 A 
HETATM   11  C13 UNL     1      24.437   4.802  49.250  1.00  0.00     0.011 A 
BRANCH   9  12
HETATM   12  O1  UNL     1      28.069   4.860  49.237  1.00  0.00    -0.361 OA
HETATM   13  H1  UNL     1      28.315   5.812  49.517  1.00  0.00     0.217 HD
ENDBRANCH   9  12
ENDBRANCH   5   6
ENDBRANCH   3   5
ENDBRANCH   1   3
BRANCH   1  14
HETATM   14  C6  UNL     1      21.217   1.760  52.379  1.00  0.00     0.090 C 
BRANCH  14  15
HETATM   15  C7  UNL     1      22.064   0.796  53.119  1.00  0.00    -0.018 A 
HETATM   16  C8  UNL     1      23.385   0.693  52.724  1.00  0.00     0.034 A 
HETATM   17  C9  UNL     1      24.290  -0.181  53.334  1.00  0.00     0.034 A 
HETATM   18 CL2  UNL     1      25.963  -0.300  52.823  1.00  0.00    -0.084 Cl
HETATM   19  C10 UNL     1      23.775  -0.956  54.377  1.00  0.00     0.026 A 
HETATM   20  C11 UNL     1      22.454  -0.878  54.798  1.00  0.00     0.039 A 
HETATM   21  C12 UNL     1      21.617   0.008  54.151  1.00  0.00     0.072 A 
BRANCH  21  22
HETATM   22  O2  UNL     1      20.286   0.123  54.533  1.00  0.00    -0.360 OA
HETATM   23  H12 UNL     1      19.530  -0.311  54.048  1.00  0.00     0.217 HD
ENDBRANCH  21  22
ENDBRANCH  14  15
ENDBRANCH   1  14
TORSDOF 7
ENDMDL
MODEL 8
REMARK VINA RESULT:      -6.7      4.220      5.588
REMARK  7 active torsions:
REMARK  status: ('A' for Active; 'I' for Inactive)
REMARK    1  A    between atoms: O1_1  and  C1_2 
REMARK    2  A    between atoms: C4_5  and  C5_6 
REMARK    3  A    between atoms: C5_6  and  N1_7 
REMARK    4  A    between atoms: N1_7  and  P1_9 
REMARK    5  A    between atoms: P1_9  and  C6_10 
REMARK    6  A    between atoms: C6_10  and  C7_11 
REMARK    7  A    between atoms: C12_17  and  O2_18 
ROOT
HETATM    1  P1  UNL     1      22.209   3.513  51.495  1.00  0.00    -0.032 P 
HETATM    2  H6  UNL     1      21.396   4.696  51.598  1.00  0.00     0.075 HD
ENDROOT
BRANCH   1   3
HETATM    3  N1  UNL     1      22.866   3.225  49.870  1.00  0.00    -0.201 NA
HETATM    4 CL1  UNL     1      21.953   2.026  49.056  1.00  0.00    -0.017 Cl
BRANCH   3   5
HETATM    5  C5  UNL     1      23.097   4.418  49.100  1.00  0.00     0.151 C 
BRANCH   5   6
HETATM    6  C4  UNL     1      24.563   4.726  49.036  1.00  0.00    -0.043 A 
HETATM    7  C3  UNL     1      25.129   5.907  48.609  1.00  0.00     0.011 A 
HETATM    8  C2  UNL     1      26.503   6.019  48.615  1.00  0.00     0.037 A 
HETATM    9  C1  UNL     1      27.326   4.986  49.034  1.00  0.00     0.065 A 
HETATM   10  C14 UNL     1      26.782   3.783  49.468  1.00  0.00     0.037 A 
HETATM   11  C13 UNL     1      25.397   3.690  49.455  1.00  0.00     0.011 A 
BRANCH   9  12
HETATM   12  O1  UNL     1      28.704   5.132  49.027  1.00  0.00    -0.361 OA
HETATM   13  H1  UNL     1      29.268   4.281  48.975  1.00  0.00     0.217 HD
ENDBRANCH   9  12
ENDBRANCH   5   6
ENDBRANCH   3   5
ENDBRANCH   1   3
BRANCH   1  14
HETATM   14  C6  UNL     1      23.639   3.560  52.702  1.00  0.00     0.090 C 
BRANCH  14  15
HETATM   15  C7  UNL     1      24.087   2.163  52.909  1.00  0.00    -0.018 A 
HETATM   16  C8  UNL     1      23.099   1.206  53.060  1.00  0.00     0.034 A 
HETATM   17  C9  UNL     1      23.384  -0.146  53.269  1.00  0.00     0.034 A 
HETATM   18 CL2  UNL     1      22.122  -1.348  53.459  1.00  0.00    -0.084 Cl
HETATM   19  C10 UNL     1      24.741  -0.480  53.317  1.00  0.00     0.026 A 
HETATM   20  C11 UNL     1      25.756   0.456  53.170  1.00  0.00     0.039 A 
HETATM   21  C12 UNL     1      25.402   1.773  52.967  1.00  0.00     0.072 A 
BRANCH  21  22
HETATM   22  O2  UNL     1      26.380   2.748  52.814  1.00  0.00    -0.360 OA
HETATM   23  H12 UNL     1      26.803   2.978  51.941  1.00  0.00     0.217 HD
ENDBRANCH  21  22
ENDBRANCH  14  15
ENDBRANCH   1  14
TORSDOF 7
ENDMDL
MODEL 9
REMARK VINA RESULT:      -6.4      3.268      5.258
REMARK  7 active torsions:
REMARK  status: ('A' for Active; 'I' for Inactive)
REMARK    1  A    between atoms: O1_1  and  C1_2 
REMARK    2  A    between atoms: C4_5  and  C5_6 
REMARK    3  A    between atoms: C5_6  and  N1_7 
REMARK    4  A    between atoms: N1_7  and  P1_9 
REMARK    5  A    between atoms: P1_9  and  C6_10 
REMARK    6  A    between atoms: C6_10  and  C7_11 
REMARK    7  A    between atoms: C12_17  and  O2_18 
ROOT
HETATM    1  P1  UNL     1      20.204   1.707  52.323  1.00  0.00    -0.032 P 
HETATM    2  H6  UNL     1      20.019   1.031  51.066  1.00  0.00     0.075 HD
ENDROOT
BRANCH   1   3
HETATM    3  N1  UNL     1      21.527   1.051  53.310  1.00  0.00    -0.201 NA
HETATM    4 CL1  UNL     1      20.906   0.189  54.654  1.00  0.00    -0.017 Cl
BRANCH   3   5
HETATM    5  C5  UNL     1      22.532   0.340  52.563  1.00  0.00     0.151 C 
BRANCH   5   6
HETATM    6  C4  UNL     1      23.897   0.634  53.109  1.00  0.00    -0.043 A 
HETATM    7  C3  UNL     1      24.548   1.847  53.063  1.00  0.00     0.011 A 
HETATM    8  C2  UNL     1      25.808   1.939  53.618  1.00  0.00     0.037 A 
HETATM    9  C1  UNL     1      26.433   0.856  54.214  1.00  0.00     0.065 A 
HETATM   10  C14 UNL     1      25.799  -0.380  54.272  1.00  0.00     0.037 A 
HETATM   11  C13 UNL     1      24.532  -0.452  53.710  1.00  0.00     0.011 A 
BRANCH   9  12
HETATM   12  O1  UNL     1      27.700   0.983  54.760  1.00  0.00    -0.361 OA
HETATM   13  H1  UNL     1      28.225   0.124  54.940  1.00  0.00     0.217 HD
ENDBRANCH   9  12
ENDBRANCH   5   6
ENDBRANCH   3   5
ENDBRANCH   1   3
BRANCH   1  14
HETATM   14  C6  UNL     1      20.512   3.536  52.078  1.00  0.00     0.090 C 
BRANCH  14  15
HETATM   15  C7  UNL     1      21.678   3.670  51.175  1.00  0.00    -0.018 A 
HETATM   16  C8  UNL     1      21.663   2.912  50.018  1.00  0.00     0.034 A 
HETATM   17  C9  UNL     1      22.702   2.938  49.084  1.00  0.00     0.034 A 
HETATM   18 CL2  UNL     1      22.668   1.971  47.622  1.00  0.00    -0.084 Cl
HETATM   19  C10 UNL     1      23.771   3.785  49.390  1.00  0.00     0.026 A 
HETATM   20  C11 UNL     1      23.819   4.559  50.542  1.00  0.00     0.039 A 
HETATM   21  C12 UNL     1      22.757   4.483  51.420  1.00  0.00     0.072 A 
BRANCH  21  22
HETATM   22  O2  UNL     1      22.757   5.236  52.587  1.00  0.00    -0.360 OA
HETATM   23  H12 UNL     1      22.038   5.884  52.830  1.00  0.00     0.217 HD
ENDBRANCH  21  22
ENDBRANCH  14  15
ENDBRANCH   1  14
TORSDOF 7
ENDMDL
