MODEL 1
REMARK VINA RESULT:      -7.5      0.000      0.000
REMARK  6 active torsions:
REMARK  status: ('A' for Active; 'I' for Inactive)
REMARK    1  A    between atoms: C3_3  and  C4_4 
REMARK    2  A    between atoms: C5_5  and  C6_6 
REMARK    3  A    between atoms: C6_6  and  S1_7 
REMARK    4  A    between atoms: S1_7  and  C7_8 
REMARK    5  A    between atoms: C8_11  and  C9_12 
REMARK    6  A    between atoms: C12_15  and  C13_16 
ROOT
HETATM    1  C7  UNL     1      23.733   2.208  50.921  1.00  0.00     0.231 A 
HETATM    2  N1  UNL     1      22.916   2.554  49.882  1.00  0.00    -0.114 NA
HETATM    3  N2  UNL     1      23.592   3.451  49.188  1.00  0.00    -0.120 NA
HETATM    4  C8  UNL     1      24.793   3.685  49.741  1.00  0.00     0.203 A 
HETATM    5  O1  UNL     1      24.858   2.914  50.798  1.00  0.00    -0.263 OA
ENDROOT
BRANCH   4   6
HETATM    6  C9  UNL     1      25.808   4.625  49.230  1.00  0.00     0.019 A 
HETATM    7  C10 UNL     1      27.110   4.202  49.065  1.00  0.00     0.016 A 
HETATM    8  C11 UNL     1      28.044   5.123  48.579  1.00  0.00     0.009 A 
HETATM    9  C12 UNL     1      27.672   6.436  48.269  1.00  0.00    -0.051 A 
HETATM   10  C17 UNL     1      26.348   6.811  48.454  1.00  0.00     0.009 A 
HETATM   11  C18 UNL     1      25.434   5.917  48.927  1.00  0.00     0.016 A 
BRANCH   9  12
HETATM   12  C13 UNL     1      28.815   7.241  47.771  1.00  0.00    -0.024 C 
HETATM   13  C14 UNL     1      28.459   7.829  46.413  1.00  0.00     0.019 C 
HETATM   14  C15 UNL     1      29.052   8.374  48.736  1.00  0.00     0.019 C 
HETATM   15  C16 UNL     1      30.052   6.364  47.630  1.00  0.00     0.019 C 
ENDBRANCH   9  12
ENDBRANCH   4   6
BRANCH   1  16
HETATM   16  S1  UNL     1      23.802   1.136  52.376  1.00  0.00    -0.079 SA
BRANCH  16  17
HETATM   17  C6  UNL     1      25.293   1.522  53.295  1.00  0.00     0.110 C 
BRANCH  17  18
HETATM   18  C5  UNL     1      26.164   0.343  53.370  1.00  0.00    -0.016 C 
HETATM   19  C4  UNL     1      27.117  -0.110  52.587  1.00  0.00    -0.004 C 
BRANCH  19  20
HETATM   20  C3  UNL     1      27.807  -1.337  52.950  1.00  0.00    -0.005 C 
HETATM   21  C2  UNL     1      29.054  -1.292  53.382  1.00  0.00    -0.031 C 
HETATM   22  C1  UNL     1      29.891  -0.079  53.553  1.00  0.00     0.036 C 
ENDBRANCH  19  20
ENDBRANCH  17  18
ENDBRANCH  16  17
ENDBRANCH   1  16
TORSDOF 6
ENDMDL
MODEL 2
REMARK VINA RESULT:      -7.3      2.611      7.268
REMARK  6 active torsions:
REMARK  status: ('A' for Active; 'I' for Inactive)
REMARK    1  A    between atoms: C3_3  and  C4_4 
REMARK    2  A    between atoms: C5_5  and  C6_6 
REMARK    3  A    between atoms: C6_6  and  S1_7 
REMARK    4  A    between atoms: S1_7  and  C7_8 
REMARK    5  A    between atoms: C8_11  and  C9_12 
REMARK    6  A    between atoms: C12_15  and  C13_16 
ROOT
HETATM    1  C7  UNL     1      22.099   5.728  50.761  1.00  0.00     0.231 A 
HETATM    2  N1  UNL     1      20.947   5.125  51.180  1.00  0.00    -0.114 NA
HETATM    3  N2  UNL     1      21.331   4.015  51.785  1.00  0.00    -0.120 NA
HETATM    4  C8  UNL     1      22.669   3.893  51.764  1.00  0.00     0.203 A 
HETATM    5  O1  UNL     1      23.116   4.951  51.134  1.00  0.00    -0.263 OA
ENDROOT
BRANCH   4   6
HETATM    6  C9  UNL     1      23.440   2.779  52.346  1.00  0.00     0.019 A 
HETATM    7  C10 UNL     1      24.622   3.039  53.007  1.00  0.00     0.016 A 
HETATM    8  C11 UNL     1      25.327   1.956  53.545  1.00  0.00     0.009 A 
HETATM    9  C12 UNL     1      24.848   0.647  53.418  1.00  0.00    -0.051 A 
HETATM   10  C17 UNL     1      23.653   0.440  52.743  1.00  0.00     0.009 A 
HETATM   11  C18 UNL     1      22.963   1.492  52.217  1.00  0.00     0.016 A 
BRANCH   9  12
HETATM   12  C13 UNL     1      25.748  -0.344  54.059  1.00  0.00    -0.024 C 
HETATM   13  C14 UNL     1      26.874   0.390  54.771  1.00  0.00     0.019 C 
HETATM   14  C15 UNL     1      24.952  -1.111  55.085  1.00  0.00     0.019 C 
HETATM   15  C16 UNL     1      26.339  -1.273  53.007  1.00  0.00     0.019 C 
ENDBRANCH   9  12
ENDBRANCH   4   6
BRANCH   1  16
HETATM   16  S1  UNL     1      22.696   7.195  49.888  1.00  0.00    -0.079 SA
BRANCH  16  17
HETATM   17  C6  UNL     1      24.210   7.747  50.677  1.00  0.00     0.110 C 
BRANCH  17  18
HETATM   18  C5  UNL     1      25.370   7.074  50.080  1.00  0.00    -0.016 C 
HETATM   19  C4  UNL     1      25.495   6.255  49.060  1.00  0.00    -0.004 C 
BRANCH  19  20
HETATM   20  C3  UNL     1      26.815   5.751  48.717  1.00  0.00    -0.005 C 
HETATM   21  C2  UNL     1      27.138   4.500  48.991  1.00  0.00    -0.031 C 
HETATM   22  C1  UNL     1      26.276   3.484  49.644  1.00  0.00     0.036 C 
ENDBRANCH  19  20
ENDBRANCH  17  18
ENDBRANCH  16  17
ENDBRANCH   1  16
TORSDOF 6
ENDMDL
MODEL 3
REMARK VINA RESULT:      -7.3      0.829      1.567
REMARK  6 active torsions:
REMARK  status: ('A' for Active; 'I' for Inactive)
REMARK    1  A    between atoms: C3_3  and  C4_4 
REMARK    2  A    between atoms: C5_5  and  C6_6 
REMARK    3  A    between atoms: C6_6  and  S1_7 
REMARK    4  A    between atoms: S1_7  and  C7_8 
REMARK    5  A    between atoms: C8_11  and  C9_12 
REMARK    6  A    between atoms: C12_15  and  C13_16 
ROOT
HETATM    1  C7  UNL     1      23.916   2.386  51.357  1.00  0.00     0.231 A 
HETATM    2  N1  UNL     1      23.257   2.332  50.162  1.00  0.00    -0.114 NA
HETATM    3  N2  UNL     1      23.917   3.149  49.361  1.00  0.00    -0.120 NA
HETATM    4  C8  UNL     1      24.957   3.713  49.997  1.00  0.00     0.203 A 
HETATM    5  O1  UNL     1      24.936   3.232  51.215  1.00  0.00    -0.263 OA
ENDROOT
BRANCH   4   6
HETATM    6  C9  UNL     1      25.907   4.674  49.407  1.00  0.00     0.019 A 
HETATM    7  C10 UNL     1      25.525   5.986  49.221  1.00  0.00     0.016 A 
HETATM    8  C11 UNL     1      26.454   6.868  48.658  1.00  0.00     0.009 A 
HETATM    9  C12 UNL     1      27.734   6.435  48.294  1.00  0.00    -0.051 A 
HETATM   10  C17 UNL     1      28.068   5.104  48.503  1.00  0.00     0.009 A 
HETATM   11  C18 UNL     1      27.166   4.241  49.050  1.00  0.00     0.016 A 
BRANCH   9  12
HETATM   12  C13 UNL     1      28.554   7.530  47.719  1.00  0.00    -0.024 C 
HETATM   13  C14 UNL     1      29.858   6.952  47.187  1.00  0.00     0.019 C 
HETATM   14  C15 UNL     1      27.794   8.135  46.566  1.00  0.00     0.019 C 
HETATM   15  C16 UNL     1      28.864   8.570  48.787  1.00  0.00     0.019 C 
ENDBRANCH   9  12
ENDBRANCH   4   6
BRANCH   1  16
HETATM   16  S1  UNL     1      23.870   1.709  53.034  1.00  0.00    -0.079 SA
BRANCH  16  17
HETATM   17  C6  UNL     1      24.004  -0.076  52.930  1.00  0.00     0.110 C 
BRANCH  17  18
HETATM   18  C5  UNL     1      25.382  -0.501  53.204  1.00  0.00    -0.016 C 
HETATM   19  C4  UNL     1      26.479  -0.482  52.481  1.00  0.00    -0.004 C 
BRANCH  19  20
HETATM   20  C3  UNL     1      27.714  -0.988  53.057  1.00  0.00    -0.005 C 
HETATM   21  C2  UNL     1      28.635  -0.148  53.492  1.00  0.00    -0.031 C 
HETATM   22  C1  UNL     1      28.567   1.335  53.465  1.00  0.00     0.036 C 
ENDBRANCH  19  20
ENDBRANCH  17  18
ENDBRANCH  16  17
ENDBRANCH   1  16
TORSDOF 6
ENDMDL
MODEL 4
REMARK VINA RESULT:      -7.3      6.398      9.402
REMARK  6 active torsions:
REMARK  status: ('A' for Active; 'I' for Inactive)
REMARK    1  A    between atoms: C3_3  and  C4_4 
REMARK    2  A    between atoms: C5_5  and  C6_6 
REMARK    3  A    between atoms: C6_6  and  S1_7 
REMARK    4  A    between atoms: S1_7  and  C7_8 
REMARK    5  A    between atoms: C8_11  and  C9_12 
REMARK    6  A    between atoms: C12_15  and  C13_16 
ROOT
HETATM    1  C7  UNL     1      23.265  -0.886  54.286  1.00  0.00     0.231 A 
HETATM    2  N1  UNL     1      22.623  -1.525  55.309  1.00  0.00    -0.114 NA
HETATM    3  N2  UNL     1      21.345  -1.526  54.973  1.00  0.00    -0.120 NA
HETATM    4  C8  UNL     1      21.156  -0.919  53.791  1.00  0.00     0.203 A 
HETATM    5  O1  UNL     1      22.343  -0.536  53.389  1.00  0.00    -0.263 OA
ENDROOT
BRANCH   4   6
HETATM    6  C9  UNL     1      19.858  -0.740  53.113  1.00  0.00     0.019 A 
HETATM    7  C10 UNL     1      19.748   0.164  52.078  1.00  0.00     0.016 A 
HETATM    8  C11 UNL     1      18.501   0.307  51.460  1.00  0.00     0.009 A 
HETATM    9  C12 UNL     1      17.396  -0.444  51.878  1.00  0.00    -0.051 A 
HETATM   10  C17 UNL     1      17.561  -1.341  52.925  1.00  0.00     0.009 A 
HETATM   11  C18 UNL     1      18.774  -1.483  53.530  1.00  0.00     0.016 A 
BRANCH   9  12
HETATM   12  C13 UNL     1      16.177  -0.137  51.089  1.00  0.00    -0.024 C 
HETATM   13  C14 UNL     1      14.984  -0.845  51.715  1.00  0.00     0.019 C 
HETATM   14  C15 UNL     1      15.937   1.350  51.148  1.00  0.00     0.019 C 
HETATM   15  C16 UNL     1      16.348  -0.615  49.653  1.00  0.00     0.019 C 
ENDBRANCH   9  12
ENDBRANCH   4   6
BRANCH   1  16
HETATM   16  S1  UNL     1      24.913  -0.367  53.750  1.00  0.00    -0.079 SA
BRANCH  16  17
HETATM   17  C6  UNL     1      25.906  -0.038  55.207  1.00  0.00     0.110 C 
BRANCH  17  18
HETATM   18  C5  UNL     1      27.325   0.058  54.846  1.00  0.00    -0.016 C 
HETATM   19  C4  UNL     1      27.938   0.294  53.708  1.00  0.00    -0.004 C 
BRANCH  19  20
HETATM   20  C3  UNL     1      29.392   0.324  53.682  1.00  0.00    -0.005 C 
HETATM   21  C2  UNL     1      30.074  -0.794  53.509  1.00  0.00    -0.031 C 
HETATM   22  C1  UNL     1      29.514  -2.156  53.330  1.00  0.00     0.036 C 
ENDBRANCH  19  20
ENDBRANCH  17  18
ENDBRANCH  16  17
ENDBRANCH   1  16
TORSDOF 6
ENDMDL
MODEL 5
REMARK VINA RESULT:      -7.3      5.167      8.173
REMARK  6 active torsions:
REMARK  status: ('A' for Active; 'I' for Inactive)
REMARK    1  A    between atoms: C3_3  and  C4_4 
REMARK    2  A    between atoms: C5_5  and  C6_6 
REMARK    3  A    between atoms: C6_6  and  S1_7 
REMARK    4  A    between atoms: S1_7  and  C7_8 
REMARK    5  A    between atoms: C8_11  and  C9_12 
REMARK    6  A    between atoms: C12_15  and  C13_16 
ROOT
HETATM    1  C7  UNL     1      19.183   2.255  51.123  1.00  0.00     0.231 A 
HETATM    2  N1  UNL     1      19.229   3.068  52.220  1.00  0.00    -0.114 NA
HETATM    3  N2  UNL     1      20.421   2.869  52.753  1.00  0.00    -0.120 NA
HETATM    4  C8  UNL     1      21.124   1.972  52.044  1.00  0.00     0.203 A 
HETATM    5  O1  UNL     1      20.347   1.610  51.053  1.00  0.00    -0.263 OA
ENDROOT
BRANCH   4   6
HETATM    6  C9  UNL     1      22.492   1.512  52.350  1.00  0.00     0.019 A 
HETATM    7  C10 UNL     1      22.677   0.408  53.154  1.00  0.00     0.016 A 
HETATM    8  C11 UNL     1      23.989   0.003  53.424  1.00  0.00     0.009 A 
HETATM    9  C12 UNL     1      25.083   0.697  52.894  1.00  0.00    -0.051 A 
HETATM   10  C17 UNL     1      24.842   1.803  52.090  1.00  0.00     0.009 A 
HETATM   11  C18 UNL     1      23.565   2.201  51.826  1.00  0.00     0.016 A 
BRANCH   9  12
HETATM   12  C13 UNL     1      26.379   0.099  53.304  1.00  0.00    -0.024 C 
HETATM   13  C14 UNL     1      27.516   0.974  52.796  1.00  0.00     0.019 C 
HETATM   14  C15 UNL     1      26.432   0.072  54.810  1.00  0.00     0.019 C 
HETATM   15  C16 UNL     1      26.519  -1.299  52.717  1.00  0.00     0.019 C 
ENDBRANCH   9  12
ENDBRANCH   4   6
BRANCH   1  16
HETATM   16  S1  UNL     1      18.095   1.770  49.762  1.00  0.00    -0.079 SA
BRANCH  16  17
HETATM   17  C6  UNL     1      17.016   0.458  50.338  1.00  0.00     0.110 C 
BRANCH  17  18
HETATM   18  C5  UNL     1      17.644  -0.269  51.448  1.00  0.00    -0.016 C 
HETATM   19  C4  UNL     1      17.154  -1.000  52.423  1.00  0.00    -0.004 C 
BRANCH  19  20
HETATM   20  C3  UNL     1      18.065  -1.597  53.386  1.00  0.00    -0.005 C 
HETATM   21  C2  UNL     1      17.888  -2.845  53.779  1.00  0.00    -0.031 C 
HETATM   22  C1  UNL     1      16.814  -3.771  53.338  1.00  0.00     0.036 C 
ENDBRANCH  19  20
ENDBRANCH  17  18
ENDBRANCH  16  17
ENDBRANCH   1  16
TORSDOF 6
ENDMDL
MODEL 6
REMARK VINA RESULT:      -7.0      2.212      3.614
REMARK  6 active torsions:
REMARK  status: ('A' for Active; 'I' for Inactive)
REMARK    1  A    between atoms: C3_3  and  C4_4 
REMARK    2  A    between atoms: C5_5  and  C6_6 
REMARK    3  A    between atoms: C6_6  and  S1_7 
REMARK    4  A    between atoms: S1_7  and  C7_8 
REMARK    5  A    between atoms: C8_11  and  C9_12 
REMARK    6  A    between atoms: C12_15  and  C13_16 
ROOT
HETATM    1  C7  UNL     1      23.848   3.293  50.974  1.00  0.00     0.231 A 
HETATM    2  N1  UNL     1      23.120   3.480  49.833  1.00  0.00    -0.114 NA
HETATM    3  N2  UNL     1      23.895   4.191  49.035  1.00  0.00    -0.120 NA
HETATM    4  C8  UNL     1      25.073   4.461  49.620  1.00  0.00     0.203 A 
HETATM    5  O1  UNL     1      25.022   3.902  50.805  1.00  0.00    -0.263 OA
ENDROOT
BRANCH   4   6
HETATM    6  C9  UNL     1      26.177   5.232  49.019  1.00  0.00     0.019 A 
HETATM    7  C10 UNL     1      25.957   6.527  48.602  1.00  0.00     0.016 A 
HETATM    8  C11 UNL     1      27.028   7.227  48.035  1.00  0.00     0.009 A 
HETATM    9  C12 UNL     1      28.287   6.631  47.894  1.00  0.00    -0.051 A 
HETATM   10  C17 UNL     1      28.455   5.324  48.330  1.00  0.00     0.009 A 
HETATM   11  C18 UNL     1      27.414   4.639  48.883  1.00  0.00     0.016 A 
BRANCH   9  12
HETATM   12  C13 UNL     1      29.275   7.548  47.271  1.00  0.00    -0.024 C 
HETATM   13  C14 UNL     1      29.477   8.755  48.175  1.00  0.00     0.019 C 
HETATM   14  C15 UNL     1      30.587   6.816  47.148  1.00  0.00     0.019 C 
HETATM   15  C16 UNL     1      28.771   8.016  45.913  1.00  0.00     0.019 C 
ENDBRANCH   9  12
ENDBRANCH   4   6
BRANCH   1  16
HETATM   16  S1  UNL     1      23.757   2.514  52.604  1.00  0.00    -0.079 SA
BRANCH  16  17
HETATM   17  C6  UNL     1      24.587   0.926  52.521  1.00  0.00     0.110 C 
BRANCH  17  18
HETATM   18  C5  UNL     1      23.759  -0.114  53.142  1.00  0.00    -0.016 C 
HETATM   19  C4  UNL     1      22.668  -0.064  53.872  1.00  0.00    -0.004 C 
BRANCH  19  20
HETATM   20  C3  UNL     1      22.078  -1.306  54.347  1.00  0.00    -0.005 C 
HETATM   21  C2  UNL     1      20.788  -1.532  54.178  1.00  0.00    -0.031 C 
HETATM   22  C1  UNL     1      19.805  -0.629  53.529  1.00  0.00     0.036 C 
ENDBRANCH  19  20
ENDBRANCH  17  18
ENDBRANCH  16  17
ENDBRANCH   1  16
TORSDOF 6
ENDMDL
MODEL 7
REMARK VINA RESULT:      -7.0      5.581      7.391
REMARK  6 active torsions:
REMARK  status: ('A' for Active; 'I' for Inactive)
REMARK    1  A    between atoms: C3_3  and  C4_4 
REMARK    2  A    between atoms: C5_5  and  C6_6 
REMARK    3  A    between atoms: C6_6  and  S1_7 
REMARK    4  A    between atoms: S1_7  and  C7_8 
REMARK    5  A    between atoms: C8_11  and  C9_12 
REMARK    6  A    between atoms: C12_15  and  C13_16 
ROOT
HETATM    1  C7  UNL     1      33.040   6.077  47.491  1.00  0.00     0.231 A 
HETATM    2  N1  UNL     1      32.702   6.573  46.264  1.00  0.00    -0.114 NA
HETATM    3  N2  UNL     1      31.387   6.693  46.285  1.00  0.00    -0.120 NA
HETATM    4  C8  UNL     1      30.884   6.295  47.465  1.00  0.00     0.203 A 
HETATM    5  O1  UNL     1      31.913   5.923  48.186  1.00  0.00    -0.263 OA
ENDROOT
BRANCH   4   6
HETATM    6  C9  UNL     1      29.457   6.294  47.837  1.00  0.00     0.019 A 
HETATM    7  C10 UNL     1      28.704   7.434  47.655  1.00  0.00     0.016 A 
HETATM    8  C11 UNL     1      27.353   7.395  48.020  1.00  0.00     0.009 A 
HETATM    9  C12 UNL     1      26.782   6.235  48.555  1.00  0.00    -0.051 A 
HETATM   10  C17 UNL     1      27.585   5.114  48.718  1.00  0.00     0.009 A 
HETATM   11  C18 UNL     1      28.901   5.148  48.364  1.00  0.00     0.016 A 
BRANCH   9  12
HETATM   12  C13 UNL     1      25.342   6.412  48.871  1.00  0.00    -0.024 C 
HETATM   13  C14 UNL     1      24.675   7.189  47.746  1.00  0.00     0.019 C 
HETATM   14  C15 UNL     1      24.705   5.048  48.955  1.00  0.00     0.019 C 
HETATM   15  C16 UNL     1      25.184   7.181  50.176  1.00  0.00     0.019 C 
ENDBRANCH   9  12
ENDBRANCH   4   6
BRANCH   1  16
HETATM   16  S1  UNL     1      34.474   5.569  48.469  1.00  0.00    -0.079 SA
BRANCH  16  17
HETATM   17  C6  UNL     1      34.943   3.911  47.970  1.00  0.00     0.110 C 
BRANCH  17  18
HETATM   18  C5  UNL     1      33.851   3.276  47.223  1.00  0.00    -0.016 C 
HETATM   19  C4  UNL     1      32.952   2.377  47.555  1.00  0.00    -0.004 C 
BRANCH  19  20
HETATM   20  C3  UNL     1      31.984   1.945  46.560  1.00  0.00    -0.005 C 
HETATM   21  C2  UNL     1      31.683   0.664  46.441  1.00  0.00    -0.031 C 
HETATM   22  C1  UNL     1      32.241  -0.456  47.239  1.00  0.00     0.036 C 
ENDBRANCH  19  20
ENDBRANCH  17  18
ENDBRANCH  16  17
ENDBRANCH   1  16
TORSDOF 6
ENDMDL
MODEL 8
REMARK VINA RESULT:      -7.0      6.505     10.080
REMARK  6 active torsions:
REMARK  status: ('A' for Active; 'I' for Inactive)
REMARK    1  A    between atoms: C3_3  and  C4_4 
REMARK    2  A    between atoms: C5_5  and  C6_6 
REMARK    3  A    between atoms: C6_6  and  S1_7 
REMARK    4  A    between atoms: S1_7  and  C7_8 
REMARK    5  A    between atoms: C8_11  and  C9_12 
REMARK    6  A    between atoms: C12_15  and  C13_16 
ROOT
HETATM    1  C7  UNL     1      18.183  -0.046  52.300  1.00  0.00     0.231 A 
HETATM    2  N1  UNL     1      18.349  -0.968  53.294  1.00  0.00    -0.114 NA
HETATM    3  N2  UNL     1      19.649  -1.002  53.527  1.00  0.00    -0.120 NA
HETATM    4  C8  UNL     1      20.306  -0.146  52.727  1.00  0.00     0.203 A 
HETATM    5  O1  UNL     1      19.390   0.427  51.986  1.00  0.00    -0.263 OA
ENDROOT
BRANCH   4   6
HETATM    6  C9  UNL     1      21.764   0.076  52.717  1.00  0.00     0.019 A 
HETATM    7  C10 UNL     1      22.582  -0.730  53.479  1.00  0.00     0.016 A 
HETATM    8  C11 UNL     1      23.960  -0.488  53.444  1.00  0.00     0.009 A 
HETATM    9  C12 UNL     1      24.494   0.542  52.659  1.00  0.00    -0.051 A 
HETATM   10  C17 UNL     1      23.626   1.324  51.911  1.00  0.00     0.009 A 
HETATM   11  C18 UNL     1      22.283   1.092  51.942  1.00  0.00     0.016 A 
BRANCH   9  12
HETATM   12  C13 UNL     1      25.972   0.622  52.769  1.00  0.00    -0.024 C 
HETATM   13  C14 UNL     1      26.553  -0.784  52.741  1.00  0.00     0.019 C 
HETATM   14  C15 UNL     1      26.495   1.380  51.575  1.00  0.00     0.019 C 
HETATM   15  C16 UNL     1      26.364   1.302  54.074  1.00  0.00     0.019 C 
ENDBRANCH   9  12
ENDBRANCH   4   6
BRANCH   1  16
HETATM   16  S1  UNL     1      16.904   0.732  51.286  1.00  0.00    -0.079 SA
BRANCH  16  17
HETATM   17  C6  UNL     1      15.362   0.711  52.204  1.00  0.00     0.110 C 
BRANCH  17  18
HETATM   18  C5  UNL     1      14.914   2.082  52.477  1.00  0.00    -0.016 C 
HETATM   19  C4  UNL     1      13.745   2.586  52.803  1.00  0.00    -0.004 C 
BRANCH  19  20
HETATM   20  C3  UNL     1      13.627   4.020  53.010  1.00  0.00    -0.005 C 
HETATM   21  C2  UNL     1      12.756   4.493  53.883  1.00  0.00    -0.031 C 
HETATM   22  C1  UNL     1      11.828   3.703  54.728  1.00  0.00     0.036 C 
ENDBRANCH  19  20
ENDBRANCH  17  18
ENDBRANCH  16  17
ENDBRANCH   1  16
TORSDOF 6
ENDMDL
MODEL 9
REMARK VINA RESULT:      -7.0      0.996      1.741
REMARK  6 active torsions:
REMARK  status: ('A' for Active; 'I' for Inactive)
REMARK    1  A    between atoms: C3_3  and  C4_4 
REMARK    2  A    between atoms: C5_5  and  C6_6 
REMARK    3  A    between atoms: C6_6  and  S1_7 
REMARK    4  A    between atoms: S1_7  and  C7_8 
REMARK    5  A    between atoms: C8_11  and  C9_12 
REMARK    6  A    between atoms: C12_15  and  C13_16 
ROOT
HETATM    1  C7  UNL     1      23.820   3.329  50.347  1.00  0.00     0.231 A 
HETATM    2  N1  UNL     1      23.062   4.325  49.799  1.00  0.00    -0.114 NA
HETATM    3  N2  UNL     1      23.925   5.157  49.244  1.00  0.00    -0.120 NA
HETATM    4  C8  UNL     1      25.187   4.731  49.418  1.00  0.00     0.203 A 
HETATM    5  O1  UNL     1      25.098   3.612  50.095  1.00  0.00    -0.263 OA
ENDROOT
BRANCH   4   6
HETATM    6  C9  UNL     1      26.401   5.412  48.930  1.00  0.00     0.019 A 
HETATM    7  C10 UNL     1      26.368   6.767  48.679  1.00  0.00     0.016 A 
HETATM    8  C11 UNL     1      27.539   7.378  48.217  1.00  0.00     0.009 A 
HETATM    9  C12 UNL     1      28.710   6.638  48.013  1.00  0.00    -0.051 A 
HETATM   10  C17 UNL     1      28.688   5.276  48.281  1.00  0.00     0.009 A 
HETATM   11  C18 UNL     1      27.550   4.677  48.732  1.00  0.00     0.016 A 
BRANCH   9  12
HETATM   12  C13 UNL     1      29.829   7.481  47.522  1.00  0.00    -0.024 C 
HETATM   13  C14 UNL     1      29.935   8.727  48.389  1.00  0.00     0.019 C 
HETATM   14  C15 UNL     1      31.108   6.694  47.656  1.00  0.00     0.019 C 
HETATM   15  C16 UNL     1      29.579   7.893  46.078  1.00  0.00     0.019 C 
ENDBRANCH   9  12
ENDBRANCH   4   6
BRANCH   1  16
HETATM   16  S1  UNL     1      23.675   1.787  51.280  1.00  0.00    -0.079 SA
BRANCH  16  17
HETATM   17  C6  UNL     1      24.891   1.806  52.599  1.00  0.00     0.110 C 
BRANCH  17  18
HETATM   18  C5  UNL     1      25.824   0.683  52.447  1.00  0.00    -0.016 C 
HETATM   19  C4  UNL     1      26.259  -0.230  53.286  1.00  0.00    -0.004 C 
BRANCH  19  20
HETATM   20  C3  UNL     1      27.205  -1.230  52.814  1.00  0.00    -0.005 C 
HETATM   21  C2  UNL     1      28.473  -1.163  53.174  1.00  0.00    -0.031 C 
HETATM   22  C1  UNL     1      29.094  -0.139  54.050  1.00  0.00     0.036 C 
ENDBRANCH  19  20
ENDBRANCH  17  18
ENDBRANCH  16  17
ENDBRANCH   1  16
TORSDOF 6
ENDMDL
