MODEL 1
REMARK VINA RESULT:      -9.5      0.000      0.000
REMARK  2 active torsions:
REMARK  status: ('A' for Active; 'I' for Inactive)
REMARK       I    between atoms: C10_14  and  N3_15 
REMARK    1  A    between atoms: N3_15  and  C11_16 
REMARK    2  A    between atoms: C16_22  and  O3_23 
ROOT
HETATM    1  C1  UNL     1      30.343  -0.596  53.825  1.00  0.00     0.048 C 
HETATM    2  C2  UNL     1      29.033   0.077  53.825  1.00  0.00    -0.059 A 
HETATM    3  C3  UNL     1      29.037   1.400  53.424  1.00  0.00     0.007 A 
HETATM    4  C4  UNL     1      27.818   2.046  53.416  1.00  0.00     0.012 A 
HETATM    5  C5  UNL     1      26.608   1.498  53.770  1.00  0.00    -0.007 A 
HETATM    6  C6  UNL     1      26.589   0.180  54.172  1.00  0.00     0.080 A 
HETATM    7  C7  UNL     1      27.811  -0.505  54.190  1.00  0.00     0.044 A 
HETATM    8  O1  UNL     1      25.619  -0.703  54.589  1.00  0.00    -0.323 OA
HETATM    9  C8  UNL     1      24.244  -0.628  54.415  1.00  0.00     0.377 C 
HETATM   10  O2  UNL     1      23.833  -0.591  53.081  1.00  0.00    -0.253 OA
HETATM   11  N1  UNL     1      22.490  -0.511  52.947  1.00  0.00    -0.258 N 
HETATM   12  C9  UNL     1      22.249   0.640  52.107  1.00  0.00     0.228 C 
HETATM   13  N2  UNL     1      22.405   1.887  51.721  1.00  0.00    -0.238 NA
HETATM   14  C10 UNL     1      23.337   2.631  52.551  1.00  0.00     0.311 C 
HETATM   15  N3  UNL     1      23.368   4.031  52.327  1.00  0.00    -0.349 N 
HETATM   16  N4  UNL     1      24.570   1.936  52.601  1.00  0.00    -0.375 N 
HETATM   17  C17 UNL     1      25.271   1.733  51.384  1.00  0.00     0.147 C 
HETATM   18  C18 UNL     1      25.381   2.308  53.713  1.00  0.00     0.162 C 
HETATM   19  H9  UNL     1      21.550  -0.916  53.184  1.00  0.00     0.195 HD
HETATM   20  H12 UNL     1      23.284   4.692  53.163  1.00  0.00     0.163 HD
ENDROOT
BRANCH  15  21
HETATM   21  C11 UNL     1      23.496   4.813  51.145  1.00  0.00     0.066 A 
HETATM   22  C12 UNL     1      23.062   4.323  49.918  1.00  0.00     0.032 A 
HETATM   23  C13 UNL     1      23.127   5.008  48.726  1.00  0.00     0.004 A 
HETATM   24  C14 UNL     1      23.659   6.280  48.709  1.00  0.00     0.022 A 
HETATM   25  C15 UNL     1      24.095   6.795  49.892  1.00  0.00     0.046 A 
HETATM   26 BR1  UNL     1      24.844   8.537  49.983  1.00  0.00    -0.048 Br
HETATM   27  C16 UNL     1      24.027   6.107  51.077  1.00  0.00     0.109 A 
BRANCH  27  28
HETATM   28  O3  UNL     1      24.481   6.655  52.281  1.00  0.00    -0.357 OA
HETATM   29  H16 UNL     1      24.227   6.165  53.126  1.00  0.00     0.217 HD
ENDBRANCH  27  28
ENDBRANCH  15  21
TORSDOF 2
ENDMDL
MODEL 2
REMARK VINA RESULT:      -9.4      2.087      2.533
REMARK  2 active torsions:
REMARK  status: ('A' for Active; 'I' for Inactive)
REMARK       I    between atoms: C10_14  and  N3_15 
REMARK    1  A    between atoms: N3_15  and  C11_16 
REMARK    2  A    between atoms: C16_22  and  O3_23 
ROOT
HETATM    1  C1  UNL     1      27.086  -2.049  52.384  1.00  0.00     0.048 C 
HETATM    2  C2  UNL     1      26.288  -0.832  52.604  1.00  0.00    -0.059 A 
HETATM    3  C3  UNL     1      26.916   0.363  52.305  1.00  0.00     0.007 A 
HETATM    4  C4  UNL     1      26.182   1.513  52.505  1.00  0.00     0.012 A 
HETATM    5  C5  UNL     1      24.891   1.580  52.973  1.00  0.00    -0.007 A 
HETATM    6  C6  UNL     1      24.252   0.398  53.275  1.00  0.00     0.080 A 
HETATM    7  C7  UNL     1      24.970  -0.790  53.082  1.00  0.00     0.044 A 
HETATM    8  O1  UNL     1      23.007   0.050  53.749  1.00  0.00    -0.323 OA
HETATM    9  C8  UNL     1      21.842   0.804  53.762  1.00  0.00     0.377 C 
HETATM   10  O2  UNL     1      21.402   1.208  52.500  1.00  0.00    -0.253 OA
HETATM   11  N1  UNL     1      20.270   1.945  52.549  1.00  0.00    -0.258 N 
HETATM   12  C9  UNL     1      20.568   3.165  51.835  1.00  0.00     0.228 C 
HETATM   13  N2  UNL     1      21.291   4.218  51.526  1.00  0.00    -0.238 NA
HETATM   14  C10 UNL     1      22.530   4.303  52.279  1.00  0.00     0.311 C 
HETATM   15  N3  UNL     1      23.234   5.529  52.157  1.00  0.00    -0.349 N 
HETATM   16  N4  UNL     1      23.256   3.097  52.116  1.00  0.00    -0.375 N 
HETATM   17  C17 UNL     1      23.667   2.739  50.806  1.00  0.00     0.147 C 
HETATM   18  C18 UNL     1      24.228   2.884  53.137  1.00  0.00     0.162 C 
HETATM   19  H9  UNL     1      19.274   2.019  52.876  1.00  0.00     0.195 HD
HETATM   20  H12 UNL     1      23.554   6.033  53.043  1.00  0.00     0.163 HD
ENDROOT
BRANCH  15  21
HETATM   21  C11 UNL     1      23.642   6.295  51.029  1.00  0.00     0.066 A 
HETATM   22  C12 UNL     1      22.843   7.324  50.543  1.00  0.00     0.032 A 
HETATM   23  C13 UNL     1      23.159   8.130  49.473  1.00  0.00     0.004 A 
HETATM   24  C14 UNL     1      24.350   7.930  48.807  1.00  0.00     0.022 A 
HETATM   25  C15 UNL     1      25.160   6.931  49.255  1.00  0.00     0.046 A 
HETATM   26 BR1  UNL     1      26.823   6.570  48.413  1.00  0.00    -0.048 Br
HETATM   27  C16 UNL     1      24.840   6.132  50.323  1.00  0.00     0.109 A 
BRANCH  27  28
HETATM   28  O3  UNL     1      25.688   5.110  50.766  1.00  0.00    -0.357 OA
HETATM   29  H16 UNL     1      26.353   5.355  51.484  1.00  0.00     0.217 HD
ENDBRANCH  27  28
ENDBRANCH  15  21
TORSDOF 2
ENDMDL
MODEL 3
REMARK VINA RESULT:      -9.1      3.118      6.691
REMARK  2 active torsions:
REMARK  status: ('A' for Active; 'I' for Inactive)
REMARK       I    between atoms: C10_14  and  N3_15 
REMARK    1  A    between atoms: N3_15  and  C11_16 
REMARK    2  A    between atoms: C16_22  and  O3_23 
ROOT
HETATM    1  C1  UNL     1      27.685   7.156  48.234  1.00  0.00     0.048 C 
HETATM    2  C2  UNL     1      26.658   6.156  48.572  1.00  0.00    -0.059 A 
HETATM    3  C3  UNL     1      27.131   4.927  48.991  1.00  0.00     0.007 A 
HETATM    4  C4  UNL     1      26.183   3.978  49.314  1.00  0.00     0.012 A 
HETATM    5  C5  UNL     1      24.819   4.143  49.256  1.00  0.00    -0.007 A 
HETATM    6  C6  UNL     1      24.333   5.363  48.840  1.00  0.00     0.080 A 
HETATM    7  C7  UNL     1      25.271   6.349  48.506  1.00  0.00     0.044 A 
HETATM    8  O1  UNL     1      23.083   5.908  48.653  1.00  0.00    -0.323 OA
HETATM    9  C8  UNL     1      21.865   5.479  49.161  1.00  0.00     0.377 C 
HETATM   10  O2  UNL     1      21.799   5.456  50.556  1.00  0.00    -0.253 OA
HETATM   11  N1  UNL     1      20.602   5.028  51.018  1.00  0.00    -0.258 N 
HETATM   12  C9  UNL     1      20.899   3.937  51.919  1.00  0.00     0.228 C 
HETATM   13  N2  UNL     1      21.489   2.820  52.284  1.00  0.00    -0.238 NA
HETATM   14  C10 UNL     1      22.378   2.284  51.268  1.00  0.00     0.311 C 
HETATM   15  N3  UNL     1      22.857   0.971  51.512  1.00  0.00    -0.349 N 
HETATM   16  N4  UNL     1      23.316   3.279  50.900  1.00  0.00    -0.375 N 
HETATM   17  C17 UNL     1      24.189   3.776  51.902  1.00  0.00     0.147 C 
HETATM   18  C18 UNL     1      23.922   3.039  49.632  1.00  0.00     0.162 C 
HETATM   19  H9  UNL     1      19.558   5.140  51.010  1.00  0.00     0.195 HD
HETATM   20  H12 UNL     1      22.776   0.238  50.738  1.00  0.00     0.163 HD
ENDROOT
BRANCH  15  21
HETATM   21  C11 UNL     1      23.471   0.366  52.644  1.00  0.00     0.066 A 
HETATM   22  C12 UNL     1      22.704  -0.285  53.605  1.00  0.00     0.032 A 
HETATM   23  C13 UNL     1      23.206  -0.913  54.722  1.00  0.00     0.004 A 
HETATM   24  C14 UNL     1      24.568  -0.918  54.937  1.00  0.00     0.022 A 
HETATM   25  C15 UNL     1      25.352  -0.291  54.017  1.00  0.00     0.046 A 
HETATM   26 BR1  UNL     1      27.239  -0.238  54.216  1.00  0.00    -0.048 Br
HETATM   27  C16 UNL     1      24.846   0.333  52.906  1.00  0.00     0.109 A 
BRANCH  27  28
HETATM   28  O3  UNL     1      25.671   0.972  51.973  1.00  0.00    -0.357 OA
HETATM   29  H16 UNL     1      26.359   0.396  51.509  1.00  0.00     0.217 HD
ENDBRANCH  27  28
ENDBRANCH  15  21
TORSDOF 2
ENDMDL
MODEL 4
REMARK VINA RESULT:      -8.8      3.415      7.336
REMARK  2 active torsions:
REMARK  status: ('A' for Active; 'I' for Inactive)
REMARK       I    between atoms: C10_14  and  N3_15 
REMARK    1  A    between atoms: N3_15  and  C11_16 
REMARK    2  A    between atoms: C16_22  and  O3_23 
ROOT
HETATM    1  C1  UNL     1      16.947  -0.084  50.092  1.00  0.00     0.048 C 
HETATM    2  C2  UNL     1      18.089   0.608  50.715  1.00  0.00    -0.059 A 
HETATM    3  C3  UNL     1      18.870  -0.161  51.558  1.00  0.00     0.007 A 
HETATM    4  C4  UNL     1      19.944   0.471  52.150  1.00  0.00     0.012 A 
HETATM    5  C5  UNL     1      20.306   1.786  51.978  1.00  0.00    -0.007 A 
HETATM    6  C6  UNL     1      19.536   2.564  51.141  1.00  0.00     0.080 A 
HETATM    7  C7  UNL     1      18.438   1.952  50.524  1.00  0.00     0.044 A 
HETATM    8  O1  UNL     1      19.564   3.874  50.721  1.00  0.00    -0.323 OA
HETATM    9  C8  UNL     1      20.618   4.777  50.761  1.00  0.00     0.377 C 
HETATM   10  O2  UNL     1      21.747   4.377  50.042  1.00  0.00    -0.253 OA
HETATM   11  N1  UNL     1      22.756   5.274  50.107  1.00  0.00    -0.258 N 
HETATM   12  C9  UNL     1      23.907   4.533  50.570  1.00  0.00     0.228 C 
HETATM   13  N2  UNL     1      24.547   3.692  51.352  1.00  0.00    -0.238 NA
HETATM   14  C10 UNL     1      23.703   3.113  52.383  1.00  0.00     0.311 C 
HETATM   15  N3  UNL     1      24.387   2.384  53.390  1.00  0.00    -0.349 N 
HETATM   16  N4  UNL     1      22.573   2.514  51.776  1.00  0.00    -0.375 N 
HETATM   17  C17 UNL     1      22.792   1.448  50.865  1.00  0.00     0.147 C 
HETATM   18  C18 UNL     1      21.483   2.329  52.676  1.00  0.00     0.162 C 
HETATM   19  H9  UNL     1      23.069   6.267  49.969  1.00  0.00     0.195 HD
HETATM   20  H12 UNL     1      24.181   2.600  54.416  1.00  0.00     0.163 HD
ENDROOT
BRANCH  15  21
HETATM   21  C11 UNL     1      25.359   1.347  53.334  1.00  0.00     0.066 A 
HETATM   22  C12 UNL     1      24.996   0.051  52.986  1.00  0.00     0.032 A 
HETATM   23  C13 UNL     1      25.864  -1.012  52.887  1.00  0.00     0.004 A 
HETATM   24  C14 UNL     1      27.203  -0.815  53.147  1.00  0.00     0.022 A 
HETATM   25  C15 UNL     1      27.598   0.443  53.490  1.00  0.00     0.046 A 
HETATM   26 BR1  UNL     1      29.419   0.826  53.868  1.00  0.00    -0.048 Br
HETATM   27  C16 UNL     1      26.728   1.498  53.586  1.00  0.00     0.109 A 
BRANCH  27  28
HETATM   28  O3  UNL     1      27.155   2.783  53.942  1.00  0.00    -0.357 OA
HETATM   29  H16 UNL     1      26.898   3.107  54.862  1.00  0.00     0.217 HD
ENDBRANCH  27  28
ENDBRANCH  15  21
TORSDOF 2
ENDMDL
MODEL 5
REMARK VINA RESULT:      -8.7      2.496      3.760
REMARK  2 active torsions:
REMARK  status: ('A' for Active; 'I' for Inactive)
REMARK       I    between atoms: C10_14  and  N3_15 
REMARK    1  A    between atoms: N3_15  and  C11_16 
REMARK    2  A    between atoms: C16_22  and  O3_23 
ROOT
HETATM    1  C1  UNL     1      25.965  -0.631  53.129  1.00  0.00     0.048 C 
HETATM    2  C2  UNL     1      25.070   0.532  53.013  1.00  0.00    -0.059 A 
HETATM    3  C3  UNL     1      25.689   1.768  53.000  1.00  0.00     0.007 A 
HETATM    4  C4  UNL     1      24.865   2.869  52.890  1.00  0.00     0.012 A 
HETATM    5  C5  UNL     1      23.493   2.849  52.795  1.00  0.00    -0.007 A 
HETATM    6  C6  UNL     1      22.863   1.624  52.808  1.00  0.00     0.080 A 
HETATM    7  C7  UNL     1      23.672   0.486  52.917  1.00  0.00     0.044 A 
HETATM    8  O1  UNL     1      21.558   1.193  52.735  1.00  0.00    -0.323 OA
HETATM    9  C8  UNL     1      20.441   1.879  52.280  1.00  0.00     0.377 C 
HETATM   10  O2  UNL     1      20.523   2.295  50.949  1.00  0.00    -0.253 OA
HETATM   11  N1  UNL     1      19.423   2.966  50.539  1.00  0.00    -0.258 N 
HETATM   12  C9  UNL     1      19.906   4.222  50.012  1.00  0.00     0.228 C 
HETATM   13  N2  UNL     1      20.624   5.323  50.027  1.00  0.00    -0.238 NA
HETATM   14  C10 UNL     1      21.445   5.454  51.218  1.00  0.00     0.311 C 
HETATM   15  N3  UNL     1      22.059   6.721  51.396  1.00  0.00    -0.349 N 
HETATM   16  N4  UNL     1      22.250   4.297  51.357  1.00  0.00    -0.375 N 
HETATM   17  C17 UNL     1      23.177   4.002  50.324  1.00  0.00     0.147 C 
HETATM   18  C18 UNL     1      22.739   4.108  52.683  1.00  0.00     0.162 C 
HETATM   19  H9  UNL     1      18.378   2.974  50.435  1.00  0.00     0.195 HD
HETATM   20  H12 UNL     1      21.961   7.216  52.339  1.00  0.00     0.163 HD
ENDROOT
BRANCH  15  21
HETATM   21  C11 UNL     1      22.838   7.542  50.534  1.00  0.00     0.066 A 
HETATM   22  C12 UNL     1      22.234   8.292  49.531  1.00  0.00     0.032 A 
HETATM   23  C13 UNL     1      22.898   9.127  48.661  1.00  0.00     0.004 A 
HETATM   24  C14 UNL     1      24.267   9.253  48.762  1.00  0.00     0.022 A 
HETATM   25  C15 UNL     1      24.895   8.534  49.734  1.00  0.00     0.046 A 
HETATM   26 BR1  UNL     1      26.777   8.634  49.962  1.00  0.00    -0.048 Br
HETATM   27  C16 UNL     1      24.227   7.704  50.598  1.00  0.00     0.109 A 
BRANCH  27  28
HETATM   28  O3  UNL     1      24.893   6.974  51.589  1.00  0.00    -0.357 OA
HETATM   29  H16 UNL     1      25.871   6.784  51.430  1.00  0.00     0.217 HD
ENDBRANCH  27  28
ENDBRANCH  15  21
TORSDOF 2
ENDMDL
MODEL 6
REMARK VINA RESULT:      -8.6      3.580      7.692
REMARK  2 active torsions:
REMARK  status: ('A' for Active; 'I' for Inactive)
REMARK       I    between atoms: C10_14  and  N3_15 
REMARK    1  A    between atoms: N3_15  and  C11_16 
REMARK    2  A    between atoms: C16_22  and  O3_23 
ROOT
HETATM    1  C1  UNL     1      16.818   3.465  50.038  1.00  0.00     0.048 C 
HETATM    2  C2  UNL     1      18.187   3.750  50.501  1.00  0.00    -0.059 A 
HETATM    3  C3  UNL     1      18.615   3.022  51.595  1.00  0.00     0.007 A 
HETATM    4  C4  UNL     1      19.896   3.276  52.042  1.00  0.00     0.012 A 
HETATM    5  C5  UNL     1      20.778   4.182  51.501  1.00  0.00    -0.007 A 
HETATM    6  C6  UNL     1      20.364   4.914  50.411  1.00  0.00     0.080 A 
HETATM    7  C7  UNL     1      19.069   4.679  49.932  1.00  0.00     0.044 A 
HETATM    8  O1  UNL     1      20.927   5.882  49.610  1.00  0.00    -0.323 OA
HETATM    9  C8  UNL     1      22.267   6.204  49.448  1.00  0.00     0.377 C 
HETATM   10  O2  UNL     1      23.058   5.155  48.974  1.00  0.00    -0.253 OA
HETATM   11  N1  UNL     1      24.358   5.500  48.834  1.00  0.00    -0.258 N 
HETATM   12  C9  UNL     1      25.105   4.517  49.587  1.00  0.00     0.228 C 
HETATM   13  N2  UNL     1      25.371   3.770  50.635  1.00  0.00    -0.238 NA
HETATM   14  C10 UNL     1      24.434   3.963  51.729  1.00  0.00     0.311 C 
HETATM   15  N3  UNL     1      24.804   3.361  52.959  1.00  0.00    -0.349 N 
HETATM   16  N4  UNL     1      23.117   3.756  51.253  1.00  0.00    -0.375 N 
HETATM   17  C17 UNL     1      22.788   2.477  50.734  1.00  0.00     0.147 C 
HETATM   18  C18 UNL     1      22.120   4.348  52.083  1.00  0.00     0.162 C 
HETATM   19  H9  UNL     1      25.060   6.163  48.420  1.00  0.00     0.195 HD
HETATM   20  H12 UNL     1      24.784   3.950  53.851  1.00  0.00     0.163 HD
ENDROOT
BRANCH  15  21
HETATM   21  C11 UNL     1      25.225   2.045  53.297  1.00  0.00     0.066 A 
HETATM   22  C12 UNL     1      24.363   0.963  53.150  1.00  0.00     0.032 A 
HETATM   23  C13 UNL     1      24.684  -0.345  53.433  1.00  0.00     0.004 A 
HETATM   24  C14 UNL     1      25.945  -0.643  53.900  1.00  0.00     0.022 A 
HETATM   25  C15 UNL     1      26.819   0.390  54.057  1.00  0.00     0.046 A 
HETATM   26 BR1  UNL     1      28.582   0.091  54.693  1.00  0.00    -0.048 Br
HETATM   27  C16 UNL     1      26.493   1.692  53.773  1.00  0.00     0.109 A 
BRANCH  27  28
HETATM   28  O3  UNL     1      27.407   2.739  53.942  1.00  0.00    -0.357 OA
HETATM   29  H16 UNL     1      27.387   3.217  54.831  1.00  0.00     0.217 HD
ENDBRANCH  27  28
ENDBRANCH  15  21
TORSDOF 2
ENDMDL
MODEL 7
REMARK VINA RESULT:      -8.6      2.378      4.559
REMARK  2 active torsions:
REMARK  status: ('A' for Active; 'I' for Inactive)
REMARK       I    between atoms: C10_14  and  N3_15 
REMARK    1  A    between atoms: N3_15  and  C11_16 
REMARK    2  A    between atoms: C16_22  and  O3_23 
ROOT
HETATM    1  C1  UNL     1      20.166  -0.638  54.583  1.00  0.00     0.048 C 
HETATM    2  C2  UNL     1      21.396  -0.321  53.837  1.00  0.00    -0.059 A 
HETATM    3  C3  UNL     1      21.218   0.351  52.642  1.00  0.00     0.007 A 
HETATM    4  C4  UNL     1      22.359   0.657  51.930  1.00  0.00     0.012 A 
HETATM    5  C5  UNL     1      23.649   0.356  52.298  1.00  0.00    -0.007 A 
HETATM    6  C6  UNL     1      23.842  -0.314  53.486  1.00  0.00     0.080 A 
HETATM    7  C7  UNL     1      22.702  -0.639  54.234  1.00  0.00     0.044 A 
HETATM    8  O1  UNL     1      24.934  -0.780  54.182  1.00  0.00    -0.323 OA
HETATM    9  C8  UNL     1      26.267  -0.416  54.052  1.00  0.00     0.377 C 
HETATM   10  O2  UNL     1      26.519   0.937  54.287  1.00  0.00    -0.253 OA
HETATM   11  N1  UNL     1      27.825   1.260  54.146  1.00  0.00    -0.258 N 
HETATM   12  C9  UNL     1      27.856   2.353  53.200  1.00  0.00     0.228 C 
HETATM   13  N2  UNL     1      27.537   2.974  52.086  1.00  0.00    -0.238 NA
HETATM   14  C10 UNL     1      26.636   2.208  51.242  1.00  0.00     0.311 C 
HETATM   15  N3  UNL     1      26.444   2.723  49.934  1.00  0.00    -0.349 N 
HETATM   16  N4  UNL     1      25.490   1.849  51.993  1.00  0.00    -0.375 N 
HETATM   17  C17 UNL     1      24.680   2.891  52.513  1.00  0.00     0.147 C 
HETATM   18  C18 UNL     1      24.777   0.746  51.437  1.00  0.00     0.162 C 
HETATM   19  H9  UNL     1      28.820   1.067  54.420  1.00  0.00     0.195 HD
HETATM   20  H12 UNL     1      26.556   2.067  49.097  1.00  0.00     0.163 HD
ENDROOT
BRANCH  15  21
HETATM   21  C11 UNL     1      26.107   4.018  49.450  1.00  0.00     0.066 A 
HETATM   22  C12 UNL     1      24.780   4.371  49.229  1.00  0.00     0.032 A 
HETATM   23  C13 UNL     1      24.355   5.601  48.781  1.00  0.00     0.004 A 
HETATM   24  C14 UNL     1      25.288   6.581  48.519  1.00  0.00     0.022 A 
HETATM   25  C15 UNL     1      26.598   6.273  48.724  1.00  0.00     0.046 A 
HETATM   26 BR1  UNL     1      27.965   7.549  48.396  1.00  0.00    -0.048 Br
HETATM   27  C16 UNL     1      27.016   5.046  49.171  1.00  0.00     0.109 A 
BRANCH  27  28
HETATM   28  O3  UNL     1      28.368   4.751  49.375  1.00  0.00    -0.357 OA
HETATM   29  H16 UNL     1      28.801   5.154  50.193  1.00  0.00     0.217 HD
ENDBRANCH  27  28
ENDBRANCH  15  21
TORSDOF 2
ENDMDL
MODEL 8
REMARK VINA RESULT:      -8.5      3.550      5.328
REMARK  2 active torsions:
REMARK  status: ('A' for Active; 'I' for Inactive)
REMARK       I    between atoms: C10_14  and  N3_15 
REMARK    1  A    between atoms: N3_15  and  C11_16 
REMARK    2  A    between atoms: C16_22  and  O3_23 
ROOT
HETATM    1  C1  UNL     1      27.276   4.562  48.767  1.00  0.00     0.048 C 
HETATM    2  C2  UNL     1      26.255   4.092  49.719  1.00  0.00    -0.059 A 
HETATM    3  C3  UNL     1      24.974   4.569  49.512  1.00  0.00     0.007 A 
HETATM    4  C4  UNL     1      24.005   4.139  50.395  1.00  0.00     0.012 A 
HETATM    5  C5  UNL     1      24.197   3.284  51.455  1.00  0.00    -0.007 A 
HETATM    6  C6  UNL     1      25.468   2.801  51.673  1.00  0.00     0.080 A 
HETATM    7  C7  UNL     1      26.475   3.219  50.793  1.00  0.00     0.044 A 
HETATM    8  O1  UNL     1      26.051   1.956  52.590  1.00  0.00    -0.323 OA
HETATM    9  C8  UNL     1      25.443   1.030  53.426  1.00  0.00     0.377 C 
HETATM   10  O2  UNL     1      24.725   0.035  52.759  1.00  0.00    -0.253 OA
HETATM   11  N1  UNL     1      24.140  -0.846  53.602  1.00  0.00    -0.258 N 
HETATM   12  C9  UNL     1      22.741  -0.863  53.239  1.00  0.00     0.228 C 
HETATM   13  N2  UNL     1      21.584  -0.321  52.933  1.00  0.00    -0.238 NA
HETATM   14  C10 UNL     1      21.615   1.131  52.926  1.00  0.00     0.311 C 
HETATM   15  N3  UNL     1      20.350   1.766  52.833  1.00  0.00    -0.349 N 
HETATM   16  N4  UNL     1      22.647   1.569  52.062  1.00  0.00    -0.375 N 
HETATM   17  C17 UNL     1      22.563   1.215  50.690  1.00  0.00     0.147 C 
HETATM   18  C18 UNL     1      23.066   2.908  52.318  1.00  0.00     0.162 C 
HETATM   19  H9  UNL     1      24.256  -1.520  54.399  1.00  0.00     0.195 HD
HETATM   20  H12 UNL     1      20.104   2.537  53.531  1.00  0.00     0.163 HD
ENDROOT
BRANCH  15  21
HETATM   21  C11 UNL     1      19.250   1.594  51.946  1.00  0.00     0.066 A 
HETATM   22  C12 UNL     1      18.910   0.330  51.475  1.00  0.00     0.032 A 
HETATM   23  C13 UNL     1      17.856   0.061  50.631  1.00  0.00     0.004 A 
HETATM   24  C14 UNL     1      17.058   1.098  50.198  1.00  0.00     0.022 A 
HETATM   25  C15 UNL     1      17.360   2.350  50.639  1.00  0.00     0.046 A 
HETATM   26 BR1  UNL     1      16.325   3.850  50.106  1.00  0.00    -0.048 Br
HETATM   27  C16 UNL     1      18.411   2.612  51.481  1.00  0.00     0.109 A 
BRANCH  27  28
HETATM   28  O3  UNL     1      18.703   3.908  51.921  1.00  0.00    -0.357 OA
HETATM   29  H16 UNL     1      18.486   4.662  51.285  1.00  0.00     0.217 HD
ENDBRANCH  27  28
ENDBRANCH  15  21
TORSDOF 2
ENDMDL
MODEL 9
REMARK VINA RESULT:      -8.4      2.566      3.072
REMARK  2 active torsions:
REMARK  status: ('A' for Active; 'I' for Inactive)
REMARK       I    between atoms: C10_14  and  N3_15 
REMARK    1  A    between atoms: N3_15  and  C11_16 
REMARK    2  A    between atoms: C16_22  and  O3_23 
ROOT
HETATM    1  C1  UNL     1      27.431  -1.629  52.681  1.00  0.00     0.048 C 
HETATM    2  C2  UNL     1      26.350  -0.629  52.719  1.00  0.00    -0.059 A 
HETATM    3  C3  UNL     1      26.614   0.566  52.077  1.00  0.00     0.007 A 
HETATM    4  C4  UNL     1      25.613   1.515  52.102  1.00  0.00     0.012 A 
HETATM    5  C5  UNL     1      24.384   1.380  52.704  1.00  0.00    -0.007 A 
HETATM    6  C6  UNL     1      24.107   0.194  53.348  1.00  0.00     0.080 A 
HETATM    7  C7  UNL     1      25.104  -0.790  53.340  1.00  0.00     0.044 A 
HETATM    8  O1  UNL     1      23.035  -0.315  54.045  1.00  0.00    -0.323 OA
HETATM    9  C8  UNL     1      21.713   0.109  54.037  1.00  0.00     0.377 C 
HETATM   10  O2  UNL     1      21.100   0.058  52.783  1.00  0.00    -0.253 OA
HETATM   11  N1  UNL     1      19.817   0.484  52.808  1.00  0.00    -0.258 N 
HETATM   12  C9  UNL     1      19.729   1.517  51.802  1.00  0.00     0.228 C 
HETATM   13  N2  UNL     1      20.122   2.601  51.170  1.00  0.00    -0.238 NA
HETATM   14  C10 UNL     1      21.339   3.174  51.718  1.00  0.00     0.311 C 
HETATM   15  N3  UNL     1      21.678   4.463  51.229  1.00  0.00    -0.349 N 
HETATM   16  N4  UNL     1      22.349   2.182  51.742  1.00  0.00    -0.375 N 
HETATM   17  C17 UNL     1      22.756   1.615  50.507  1.00  0.00     0.147 C 
HETATM   18  C18 UNL     1      23.407   2.479  52.651  1.00  0.00     0.162 C 
HETATM   19  H9  UNL     1      18.862   0.393  53.235  1.00  0.00     0.195 HD
HETATM   20  H12 UNL     1      21.907   5.238  51.928  1.00  0.00     0.163 HD
ENDROOT
BRANCH  15  21
HETATM   21  C11 UNL     1      21.791   4.993  49.914  1.00  0.00     0.066 A 
HETATM   22  C12 UNL     1      23.032   5.105  49.297  1.00  0.00     0.032 A 
HETATM   23  C13 UNL     1      23.241   5.587  48.025  1.00  0.00     0.004 A 
HETATM   24  C14 UNL     1      22.160   6.001  47.276  1.00  0.00     0.022 A 
HETATM   25  C15 UNL     1      20.927   5.906  47.846  1.00  0.00     0.046 A 
HETATM   26 BR1  UNL     1      19.370   6.447  46.903  1.00  0.00    -0.048 Br
HETATM   27  C16 UNL     1      20.726   5.424  49.114  1.00  0.00     0.109 A 
BRANCH  27  28
HETATM   28  O3  UNL     1      19.449   5.336  49.680  1.00  0.00    -0.357 OA
HETATM   29  H16 UNL     1      19.398   5.359  50.688  1.00  0.00     0.217 HD
ENDBRANCH  27  28
ENDBRANCH  15  21
TORSDOF 2
ENDMDL
