MODEL 1
REMARK VINA RESULT:      -6.3      0.000      0.000
REMARK  7 active torsions:
REMARK  status: ('A' for Active; 'I' for Inactive)
REMARK    1  A    between atoms: C1_2  and  O1_3 
REMARK    2  A    between atoms: O1_3  and  C2_4 
REMARK    3  A    between atoms: C2_4  and  C3_5 
REMARK    4  A    between atoms: C3_5  and  N1_6 
REMARK    5  A    between atoms: N1_6  and  C4_7 
REMARK    6  A    between atoms: C4_7  and  C5_8 
REMARK    7  A    between atoms: C5_8  and  C6_9 
ROOT
HETATM    1  C6  UNL     1      24.649   1.152  52.544  1.00  0.00    -0.006 C 
HETATM    2  C7  UNL     1      25.087   2.481  53.158  1.00  0.00     0.003 C 
HETATM    3  C8  UNL     1      26.338   2.307  53.114  1.00  0.00     0.051 A 
HETATM    4  C9  UNL     1      27.829   2.217  53.113  1.00  0.00     0.091 A 
HETATM    5  C10 UNL     1      27.256   1.125  53.873  1.00  0.00     0.244 A 
HETATM    6  C11 UNL     1      27.055  -0.039  54.655  1.00  0.00     0.122 A 
HETATM    7  N2  UNL     1      28.395  -0.328  54.758  1.00  0.00    -0.257 NA
HETATM    8  C12 UNL     1      29.309   0.502  54.148  1.00  0.00     0.202 A 
HETATM    9  N3  UNL     1      28.575   1.349  53.639  1.00  0.00    -0.351 N 
HETATM   10  N4  UNL     1      25.801  -0.601  55.093  1.00  0.00    -0.398 N 
HETATM   11  C13 UNL     1      24.716  -0.797  54.229  1.00  0.00     0.116 C 
HETATM   12  C14 UNL     1      23.978   0.234  53.499  1.00  0.00     0.024 C 
HETATM   13  H17 UNL     1      26.059  -0.738  56.091  1.00  0.00     0.155 HD
ENDROOT
BRANCH   1  14
HETATM   14  C5  UNL     1      23.550   1.699  51.556  1.00  0.00     0.035 C 
BRANCH  14  15
HETATM   15  C4  UNL     1      22.422   2.351  52.244  1.00  0.00     0.270 C 
BRANCH  15  16
HETATM   16  N1  UNL     1      21.972   3.503  51.454  1.00  0.00     0.085 N 
HETATM   17  H7  UNL     1      22.336   3.396  50.483  1.00  0.00     0.315 HD
BRANCH  16  18
HETATM   18  C3  UNL     1      22.460   4.752  51.986  1.00  0.00     0.295 C 
BRANCH  18  19
HETATM   19  C2  UNL     1      23.237   5.535  50.937  1.00  0.00     0.198 C 
BRANCH  19  20
HETATM   20  O1  UNL     1      24.564   5.094  50.839  1.00  0.00    -0.379 OA
BRANCH  20  21
HETATM   21  C1  UNL     1      24.851   4.710  49.523  1.00  0.00     0.252 C 
HETATM   22 BR1  UNL     1      26.499   3.672  49.589  1.00  0.00    -0.068 Br
ENDBRANCH  20  21
ENDBRANCH  19  20
ENDBRANCH  18  19
ENDBRANCH  16  18
ENDBRANCH  15  16
ENDBRANCH  14  15
ENDBRANCH   1  14
TORSDOF 7
ENDMDL
MODEL 2
REMARK VINA RESULT:      -6.2      2.989      4.287
REMARK  7 active torsions:
REMARK  status: ('A' for Active; 'I' for Inactive)
REMARK    1  A    between atoms: C1_2  and  O1_3 
REMARK    2  A    between atoms: O1_3  and  C2_4 
REMARK    3  A    between atoms: C2_4  and  C3_5 
REMARK    4  A    between atoms: C3_5  and  N1_6 
REMARK    5  A    between atoms: N1_6  and  C4_7 
REMARK    6  A    between atoms: C4_7  and  C5_8 
REMARK    7  A    between atoms: C5_8  and  C6_9 
ROOT
HETATM    1  C6  UNL     1      24.638   0.047  53.644  1.00  0.00    -0.006 C 
HETATM    2  C7  UNL     1      25.559  -0.825  52.792  1.00  0.00     0.003 C 
HETATM    3  C8  UNL     1      26.639  -0.631  53.420  1.00  0.00     0.051 A 
HETATM    4  C9  UNL     1      27.971  -0.479  54.077  1.00  0.00     0.091 A 
HETATM    5  C10 UNL     1      27.463   0.812  53.657  1.00  0.00     0.244 A 
HETATM    6  C11 UNL     1      27.284   2.194  53.403  1.00  0.00     0.122 A 
HETATM    7  N2  UNL     1      28.469   2.563  53.994  1.00  0.00    -0.257 NA
HETATM    8  C12 UNL     1      29.278   1.591  54.539  1.00  0.00     0.202 A 
HETATM    9  N3  UNL     1      28.630   0.570  54.308  1.00  0.00    -0.351 N 
HETATM   10  N4  UNL     1      26.168   2.832  52.750  1.00  0.00    -0.398 N 
HETATM   11  C13 UNL     1      24.836   2.555  53.081  1.00  0.00     0.116 C 
HETATM   12  C14 UNL     1      24.150   1.268  52.954  1.00  0.00     0.024 C 
HETATM   13  H17 UNL     1      26.719   3.427  52.098  1.00  0.00     0.155 HD
ENDROOT
BRANCH   1  14
HETATM   14  C5  UNL     1      23.422  -0.947  53.772  1.00  0.00     0.035 C 
BRANCH  14  15
HETATM   15  C4  UNL     1      22.813  -0.951  55.114  1.00  0.00     0.270 C 
BRANCH  15  16
HETATM   16  N1  UNL     1      21.356  -0.842  54.986  1.00  0.00     0.085 N 
HETATM   17  H7  UNL     1      20.917  -1.535  55.628  1.00  0.00     0.315 HD
BRANCH  16  18
HETATM   18  C3  UNL     1      20.905  -1.119  53.644  1.00  0.00     0.295 C 
BRANCH  18  19
HETATM   19  C2  UNL     1      19.505  -0.570  53.406  1.00  0.00     0.198 C 
BRANCH  19  20
HETATM   20  O1  UNL     1      19.430   0.155  52.208  1.00  0.00    -0.379 OA
BRANCH  20  21
HETATM   21  C1  UNL     1      20.490   1.066  52.126  1.00  0.00     0.252 C 
HETATM   22 BR1  UNL     1      21.321   0.804  50.385  1.00  0.00    -0.068 Br
ENDBRANCH  20  21
ENDBRANCH  19  20
ENDBRANCH  18  19
ENDBRANCH  16  18
ENDBRANCH  15  16
ENDBRANCH  14  15
ENDBRANCH   1  14
TORSDOF 7
ENDMDL
MODEL 3
REMARK VINA RESULT:      -6.0      2.770      3.812
REMARK  7 active torsions:
REMARK  status: ('A' for Active; 'I' for Inactive)
REMARK    1  A    between atoms: C1_2  and  O1_3 
REMARK    2  A    between atoms: O1_3  and  C2_4 
REMARK    3  A    between atoms: C2_4  and  C3_5 
REMARK    4  A    between atoms: C3_5  and  N1_6 
REMARK    5  A    between atoms: N1_6  and  C4_7 
REMARK    6  A    between atoms: C4_7  and  C5_8 
REMARK    7  A    between atoms: C5_8  and  C6_9 
ROOT
HETATM    1  C6  UNL     1      24.752   0.296  53.506  1.00  0.00    -0.006 C 
HETATM    2  C7  UNL     1      25.678  -0.845  53.087  1.00  0.00     0.003 C 
HETATM    3  C8  UNL     1      26.719  -0.480  53.705  1.00  0.00     0.051 A 
HETATM    4  C9  UNL     1      28.006  -0.154  54.388  1.00  0.00     0.091 A 
HETATM    5  C10 UNL     1      27.609   0.929  53.511  1.00  0.00     0.244 A 
HETATM    6  C11 UNL     1      27.532   2.145  52.787  1.00  0.00     0.122 A 
HETATM    7  N2  UNL     1      28.691   2.657  53.320  1.00  0.00    -0.257 NA
HETATM    8  C12 UNL     1      29.399   1.906  54.233  1.00  0.00     0.202 A 
HETATM    9  N3  UNL     1      28.709   0.889  54.306  1.00  0.00    -0.351 N 
HETATM   10  N4  UNL     1      26.508   2.555  51.859  1.00  0.00    -0.398 N 
HETATM   11  C13 UNL     1      25.141   2.450  52.145  1.00  0.00     0.116 C 
HETATM   12  C14 UNL     1      24.390   1.220  52.402  1.00  0.00     0.024 C 
HETATM   13  H17 UNL     1      27.140   2.871  51.096  1.00  0.00     0.155 HD
ENDROOT
BRANCH   1  14
HETATM   14  C5  UNL     1      23.472  -0.554  53.856  1.00  0.00     0.035 C 
BRANCH  14  15
HETATM   15  C4  UNL     1      22.397  -0.425  52.856  1.00  0.00     0.270 C 
BRANCH  15  16
HETATM   16  N1  UNL     1      21.109  -0.736  53.486  1.00  0.00     0.085 N 
HETATM   17  H7  UNL     1      20.875  -1.730  53.281  1.00  0.00     0.315 HD
BRANCH  16  18
HETATM   18  C3  UNL     1      20.042   0.095  52.983  1.00  0.00     0.295 C 
BRANCH  18  19
HETATM   19  C2  UNL     1      20.541   1.495  52.652  1.00  0.00     0.198 C 
BRANCH  19  20
HETATM   20  O1  UNL     1      19.908   2.015  51.514  1.00  0.00    -0.379 OA
BRANCH  20  21
HETATM   21  C1  UNL     1      19.776   1.021  50.537  1.00  0.00     0.252 C 
HETATM   22 BR1  UNL     1      21.401   1.072  49.463  1.00  0.00    -0.068 Br
ENDBRANCH  20  21
ENDBRANCH  19  20
ENDBRANCH  18  19
ENDBRANCH  16  18
ENDBRANCH  15  16
ENDBRANCH  14  15
ENDBRANCH   1  14
TORSDOF 7
ENDMDL
MODEL 4
REMARK VINA RESULT:      -5.9      2.094      2.484
REMARK  7 active torsions:
REMARK  status: ('A' for Active; 'I' for Inactive)
REMARK    1  A    between atoms: C1_2  and  O1_3 
REMARK    2  A    between atoms: O1_3  and  C2_4 
REMARK    3  A    between atoms: C2_4  and  C3_5 
REMARK    4  A    between atoms: C3_5  and  N1_6 
REMARK    5  A    between atoms: N1_6  and  C4_7 
REMARK    6  A    between atoms: C4_7  and  C5_8 
REMARK    7  A    between atoms: C5_8  and  C6_9 
ROOT
HETATM    1  C6  UNL     1      24.560   0.901  52.674  1.00  0.00    -0.006 C 
HETATM    2  C7  UNL     1      24.968   2.298  53.144  1.00  0.00     0.003 C 
HETATM    3  C8  UNL     1      26.222   2.173  53.043  1.00  0.00     0.051 A 
HETATM    4  C9  UNL     1      27.713   2.146  52.965  1.00  0.00     0.091 A 
HETATM    5  C10 UNL     1      27.233   1.104  53.850  1.00  0.00     0.244 A 
HETATM    6  C11 UNL     1      27.129   0.008  54.741  1.00  0.00     0.122 A 
HETATM    7  N2  UNL     1      28.484  -0.214  54.792  1.00  0.00    -0.257 NA
HETATM    8  C12 UNL     1      29.325   0.595  54.061  1.00  0.00     0.202 A 
HETATM    9  N3  UNL     1      28.525   1.360  53.521  1.00  0.00    -0.351 N 
HETATM   10  N4  UNL     1      25.928  -0.564  55.297  1.00  0.00    -0.398 N 
HETATM   11  C13 UNL     1      24.809  -0.883  54.518  1.00  0.00     0.116 C 
HETATM   12  C14 UNL     1      23.985   0.046  53.744  1.00  0.00     0.024 C 
HETATM   13  H17 UNL     1      26.244  -0.600  56.288  1.00  0.00     0.155 HD
ENDROOT
BRANCH   1  14
HETATM   14  C5  UNL     1      23.386   1.311  51.707  1.00  0.00     0.035 C 
BRANCH  14  15
HETATM   15  C4  UNL     1      22.565   2.420  52.224  1.00  0.00     0.270 C 
BRANCH  15  16
HETATM   16  N1  UNL     1      21.149   2.136  51.966  1.00  0.00     0.085 N 
HETATM   17  H7  UNL     1      20.651   2.096  52.881  1.00  0.00     0.315 HD
BRANCH  16  18
HETATM   18  C3  UNL     1      20.961   0.876  51.291  1.00  0.00     0.295 C 
BRANCH  18  19
HETATM   19  C2  UNL     1      20.194   1.056  49.988  1.00  0.00     0.198 C 
BRANCH  19  20
HETATM   20  O1  UNL     1      21.047   1.024  48.876  1.00  0.00    -0.379 OA
BRANCH  20  21
HETATM   21  C1  UNL     1      20.978   2.236  48.178  1.00  0.00     0.252 C 
HETATM   22 BR1  UNL     1      22.705   3.110  48.401  1.00  0.00    -0.068 Br
ENDBRANCH  20  21
ENDBRANCH  19  20
ENDBRANCH  18  19
ENDBRANCH  16  18
ENDBRANCH  15  16
ENDBRANCH  14  15
ENDBRANCH   1  14
TORSDOF 7
ENDMDL
MODEL 5
REMARK VINA RESULT:      -5.9      2.732      3.324
REMARK  7 active torsions:
REMARK  status: ('A' for Active; 'I' for Inactive)
REMARK    1  A    between atoms: C1_2  and  O1_3 
REMARK    2  A    between atoms: O1_3  and  C2_4 
REMARK    3  A    between atoms: C2_4  and  C3_5 
REMARK    4  A    between atoms: C3_5  and  N1_6 
REMARK    5  A    between atoms: N1_6  and  C4_7 
REMARK    6  A    between atoms: C4_7  and  C5_8 
REMARK    7  A    between atoms: C5_8  and  C6_9 
ROOT
HETATM    1  C6  UNL     1      25.403   1.721  52.578  1.00  0.00    -0.006 C 
HETATM    2  C7  UNL     1      25.985   2.537  53.732  1.00  0.00     0.003 C 
HETATM    3  C8  UNL     1      27.201   2.226  53.590  1.00  0.00     0.051 A 
HETATM    4  C9  UNL     1      28.664   1.933  53.522  1.00  0.00     0.091 A 
HETATM    5  C10 UNL     1      27.910   0.708  53.698  1.00  0.00     0.244 A 
HETATM    6  C11 UNL     1      27.513  -0.643  53.853  1.00  0.00     0.122 A 
HETATM    7  N2  UNL     1      28.795  -1.136  53.786  1.00  0.00    -0.257 NA
HETATM    8  C12 UNL     1      29.843  -0.259  53.616  1.00  0.00     0.202 A 
HETATM    9  N3  UNL     1      29.257   0.823  53.571  1.00  0.00    -0.351 N 
HETATM   10  N4  UNL     1      26.174  -1.157  54.001  1.00  0.00    -0.398 N 
HETATM   11  C13 UNL     1      25.119  -0.773  53.163  1.00  0.00     0.116 C 
HETATM   12  C14 UNL     1      24.565   0.573  53.009  1.00  0.00     0.024 C 
HETATM   13  H17 UNL     1      26.359  -1.775  54.816  1.00  0.00     0.155 HD
ENDROOT
BRANCH   1  14
HETATM   14  C5  UNL     1      24.441   2.814  51.977  1.00  0.00     0.035 C 
BRANCH  14  15
HETATM   15  C4  UNL     1      23.613   2.313  50.865  1.00  0.00     0.270 C 
BRANCH  15  16
HETATM   16  N1  UNL     1      22.312   2.990  50.885  1.00  0.00     0.085 N 
HETATM   17  H7  UNL     1      22.470   4.007  50.728  1.00  0.00     0.315 HD
BRANCH  16  18
HETATM   18  C3  UNL     1      21.633   2.825  52.147  1.00  0.00     0.295 C 
BRANCH  18  19
HETATM   19  C2  UNL     1      20.848   1.522  52.187  1.00  0.00     0.198 C 
BRANCH  19  20
HETATM   20  O1  UNL     1      20.532   1.147  53.501  1.00  0.00    -0.379 OA
BRANCH  20  21
HETATM   21  C1  UNL     1      20.167  -0.205  53.544  1.00  0.00     0.252 C 
HETATM   22 BR1  UNL     1      21.532  -1.120  54.591  1.00  0.00    -0.068 Br
ENDBRANCH  20  21
ENDBRANCH  19  20
ENDBRANCH  18  19
ENDBRANCH  16  18
ENDBRANCH  15  16
ENDBRANCH  14  15
ENDBRANCH   1  14
TORSDOF 7
ENDMDL
MODEL 6
REMARK VINA RESULT:      -5.9      2.863      3.526
REMARK  7 active torsions:
REMARK  status: ('A' for Active; 'I' for Inactive)
REMARK    1  A    between atoms: C1_2  and  O1_3 
REMARK    2  A    between atoms: O1_3  and  C2_4 
REMARK    3  A    between atoms: C2_4  and  C3_5 
REMARK    4  A    between atoms: C3_5  and  N1_6 
REMARK    5  A    between atoms: N1_6  and  C4_7 
REMARK    6  A    between atoms: C4_7  and  C5_8 
REMARK    7  A    between atoms: C5_8  and  C6_9 
ROOT
HETATM    1  C6  UNL     1      24.636   1.021  52.721  1.00  0.00    -0.006 C 
HETATM    2  C7  UNL     1      25.097   2.390  53.220  1.00  0.00     0.003 C 
HETATM    3  C8  UNL     1      26.343   2.234  53.077  1.00  0.00     0.051 A 
HETATM    4  C9  UNL     1      27.830   2.169  52.953  1.00  0.00     0.091 A 
HETATM    5  C10 UNL     1      27.347   1.113  53.821  1.00  0.00     0.244 A 
HETATM    6  C11 UNL     1      27.238  -0.007  54.682  1.00  0.00     0.122 A 
HETATM    7  N2  UNL     1      28.587  -0.267  54.685  1.00  0.00    -0.257 NA
HETATM    8  C12 UNL     1      29.429   0.541  53.953  1.00  0.00     0.202 A 
HETATM    9  N3  UNL     1      28.636   1.344  53.461  1.00  0.00    -0.351 N 
HETATM   10  N4  UNL     1      26.038  -0.562  55.256  1.00  0.00    -0.398 N 
HETATM   11  C13 UNL     1      24.888  -0.826  54.502  1.00  0.00     0.116 C 
HETATM   12  C14 UNL     1      24.068   0.149  53.781  1.00  0.00     0.024 C 
HETATM   13  H17 UNL     1      26.382  -0.637  56.235  1.00  0.00     0.155 HD
ENDROOT
BRANCH   1  14
HETATM   14  C5  UNL     1      23.446   1.492  51.802  1.00  0.00     0.035 C 
BRANCH  14  15
HETATM   15  C4  UNL     1      22.931   2.827  52.155  1.00  0.00     0.270 C 
BRANCH  15  16
HETATM   16  N1  UNL     1      21.465   2.813  52.095  1.00  0.00     0.085 N 
HETATM   17  H7  UNL     1      21.099   2.695  53.063  1.00  0.00     0.315 HD
BRANCH  16  18
HETATM   18  C3  UNL     1      20.965   1.729  51.285  1.00  0.00     0.295 C 
BRANCH  18  19
HETATM   19  C2  UNL     1      19.637   1.209  51.817  1.00  0.00     0.198 C 
BRANCH  19  20
HETATM   20  O1  UNL     1      19.664  -0.180  52.010  1.00  0.00    -0.379 OA
BRANCH  20  21
HETATM   21  C1  UNL     1      19.339  -0.491  53.336  1.00  0.00     0.252 C 
HETATM   22 BR1  UNL     1      20.906  -1.349  54.110  1.00  0.00    -0.068 Br
ENDBRANCH  20  21
ENDBRANCH  19  20
ENDBRANCH  18  19
ENDBRANCH  16  18
ENDBRANCH  15  16
ENDBRANCH  14  15
ENDBRANCH   1  14
TORSDOF 7
ENDMDL
MODEL 7
REMARK VINA RESULT:      -5.8      2.822      6.424
REMARK  7 active torsions:
REMARK  status: ('A' for Active; 'I' for Inactive)
REMARK    1  A    between atoms: C1_2  and  O1_3 
REMARK    2  A    between atoms: O1_3  and  C2_4 
REMARK    3  A    between atoms: C2_4  and  C3_5 
REMARK    4  A    between atoms: C3_5  and  N1_6 
REMARK    5  A    between atoms: N1_6  and  C4_7 
REMARK    6  A    between atoms: C4_7  and  C5_8 
REMARK    7  A    between atoms: C5_8  and  C6_9 
ROOT
HETATM    1  C6  UNL     1      23.969   2.069  52.471  1.00  0.00    -0.006 C 
HETATM    2  C7  UNL     1      23.829   2.112  50.949  1.00  0.00     0.003 C 
HETATM    3  C8  UNL     1      22.886   2.950  50.868  1.00  0.00     0.051 A 
HETATM    4  C9  UNL     1      21.780   3.927  50.646  1.00  0.00     0.091 A 
HETATM    5  C10 UNL     1      21.324   2.825  51.469  1.00  0.00     0.244 A 
HETATM    6  C11 UNL     1      20.561   1.943  52.273  1.00  0.00     0.122 A 
HETATM    7  N2  UNL     1      19.424   2.714  52.223  1.00  0.00    -0.257 NA
HETATM    8  C12 UNL     1      19.444   3.894  51.512  1.00  0.00     0.202 A 
HETATM    9  N3  UNL     1      20.599   3.907  51.085  1.00  0.00    -0.351 N 
HETATM   10  N4  UNL     1      20.990   0.705  52.874  1.00  0.00    -0.398 N 
HETATM   11  C13 UNL     1      22.185   0.586  53.595  1.00  0.00     0.116 C 
HETATM   12  C14 UNL     1      23.542   0.785  53.083  1.00  0.00     0.024 C 
HETATM   13  H17 UNL     1      20.180   0.125  52.575  1.00  0.00     0.155 HD
ENDROOT
BRANCH   1  14
HETATM   14  C5  UNL     1      25.539   2.145  52.567  1.00  0.00     0.035 C 
BRANCH  14  15
HETATM   15  C4  UNL     1      26.047   1.987  53.941  1.00  0.00     0.270 C 
BRANCH  15  16
HETATM   16  N1  UNL     1      27.398   2.551  54.028  1.00  0.00     0.085 N 
HETATM   17  H7  UNL     1      27.379   3.509  53.618  1.00  0.00     0.315 HD
BRANCH  16  18
HETATM   18  C3  UNL     1      28.364   1.765  53.299  1.00  0.00     0.295 C 
BRANCH  18  19
HETATM   19  C2  UNL     1      29.127   0.829  54.226  1.00  0.00     0.198 C 
BRANCH  19  20
HETATM   20  O1  UNL     1      28.428  -0.367  54.445  1.00  0.00    -0.379 OA
BRANCH  20  21
HETATM   21  C1  UNL     1      28.635  -1.250  53.379  1.00  0.00     0.252 C 
HETATM   22 BR1  UNL     1      26.886  -1.613  52.603  1.00  0.00    -0.068 Br
ENDBRANCH  20  21
ENDBRANCH  19  20
ENDBRANCH  18  19
ENDBRANCH  16  18
ENDBRANCH  15  16
ENDBRANCH  14  15
ENDBRANCH   1  14
TORSDOF 7
ENDMDL
MODEL 8
REMARK VINA RESULT:      -5.7      2.290      2.673
REMARK  7 active torsions:
REMARK  status: ('A' for Active; 'I' for Inactive)
REMARK    1  A    between atoms: C1_2  and  O1_3 
REMARK    2  A    between atoms: O1_3  and  C2_4 
REMARK    3  A    between atoms: C2_4  and  C3_5 
REMARK    4  A    between atoms: C3_5  and  N1_6 
REMARK    5  A    between atoms: N1_6  and  C4_7 
REMARK    6  A    between atoms: C4_7  and  C5_8 
REMARK    7  A    between atoms: C5_8  and  C6_9 
ROOT
HETATM    1  C6  UNL     1      22.817  -0.242  53.091  1.00  0.00    -0.006 C 
HETATM    2  C7  UNL     1      23.273   1.214  53.001  1.00  0.00     0.003 C 
HETATM    3  C8  UNL     1      24.440   1.020  52.556  1.00  0.00     0.051 A 
HETATM    4  C9  UNL     1      25.834   0.917  52.031  1.00  0.00     0.091 A 
HETATM    5  C10 UNL     1      25.706   0.185  53.275  1.00  0.00     0.244 A 
HETATM    6  C11 UNL     1      25.940  -0.612  54.423  1.00  0.00     0.122 A 
HETATM    7  N2  UNL     1      27.255  -0.860  54.112  1.00  0.00    -0.257 NA
HETATM    8  C12 UNL     1      27.786  -0.321  52.961  1.00  0.00     0.202 A 
HETATM    9  N3  UNL     1      26.819   0.290  52.505  1.00  0.00    -0.351 N 
HETATM   10  N4  UNL     1      25.000  -0.959  55.461  1.00  0.00    -0.398 N 
HETATM   11  C13 UNL     1      23.715  -1.443  55.187  1.00  0.00     0.116 C 
HETATM   12  C14 UNL     1      22.644  -0.740  54.479  1.00  0.00     0.024 C 
HETATM   13  H17 UNL     1      25.607  -0.726  56.272  1.00  0.00     0.155 HD
ENDROOT
BRANCH   1  14
HETATM   14  C5  UNL     1      21.382  -0.079  52.461  1.00  0.00     0.035 C 
BRANCH  14  15
HETATM   15  C4  UNL     1      20.685   1.140  52.907  1.00  0.00     0.270 C 
BRANCH  15  16
HETATM   16  N1  UNL     1      19.484   1.340  52.089  1.00  0.00     0.085 N 
HETATM   17  H7  UNL     1      19.623   0.854  51.178  1.00  0.00     0.315 HD
BRANCH  16  18
HETATM   18  C3  UNL     1      19.230   2.735  51.825  1.00  0.00     0.295 C 
BRANCH  18  19
HETATM   19  C2  UNL     1      20.505   3.559  51.939  1.00  0.00     0.198 C 
BRANCH  19  20
HETATM   20  O1  UNL     1      20.931   4.030  50.689  1.00  0.00    -0.379 OA
BRANCH  20  21
HETATM   21  C1  UNL     1      22.263   3.661  50.461  1.00  0.00     0.252 C 
HETATM   22 BR1  UNL     1      22.218   2.045  49.375  1.00  0.00    -0.068 Br
ENDBRANCH  20  21
ENDBRANCH  19  20
ENDBRANCH  18  19
ENDBRANCH  16  18
ENDBRANCH  15  16
ENDBRANCH  14  15
ENDBRANCH   1  14
TORSDOF 7
ENDMDL
MODEL 9
REMARK VINA RESULT:      -5.7      2.763      6.220
REMARK  7 active torsions:
REMARK  status: ('A' for Active; 'I' for Inactive)
REMARK    1  A    between atoms: C1_2  and  O1_3 
REMARK    2  A    between atoms: O1_3  and  C2_4 
REMARK    3  A    between atoms: C2_4  and  C3_5 
REMARK    4  A    between atoms: C3_5  and  N1_6 
REMARK    5  A    between atoms: N1_6  and  C4_7 
REMARK    6  A    between atoms: C4_7  and  C5_8 
REMARK    7  A    between atoms: C5_8  and  C6_9 
ROOT
HETATM    1  C6  UNL     1      24.797   2.414  51.512  1.00  0.00    -0.006 C 
HETATM    2  C7  UNL     1      24.541   3.069  52.869  1.00  0.00     0.003 C 
HETATM    3  C8  UNL     1      23.627   3.870  52.523  1.00  0.00     0.051 A 
HETATM    4  C9  UNL     1      22.542   4.855  52.236  1.00  0.00     0.091 A 
HETATM    5  C10 UNL     1      23.704   5.127  51.414  1.00  0.00     0.244 A 
HETATM    6  C11 UNL     1      24.621   5.664  50.477  1.00  0.00     0.122 A 
HETATM    7  N2  UNL     1      23.760   6.642  50.039  1.00  0.00    -0.257 NA
HETATM    8  C12 UNL     1      22.502   6.727  50.593  1.00  0.00     0.202 A 
HETATM    9  N3  UNL     1      22.526   5.801  51.405  1.00  0.00    -0.351 N 
HETATM   10  N4  UNL     1      25.959   5.208  50.192  1.00  0.00    -0.398 N 
HETATM   11  C13 UNL     1      26.268   3.860  49.967  1.00  0.00     0.116 C 
HETATM   12  C14 UNL     1      26.113   2.755  50.913  1.00  0.00     0.024 C 
HETATM   13  H17 UNL     1      26.426   6.136  50.234  1.00  0.00     0.155 HD
ENDROOT
BRANCH   1  14
HETATM   14  C5  UNL     1      24.862   0.912  51.983  1.00  0.00     0.035 C 
BRANCH  14  15
HETATM   15  C4  UNL     1      23.739   0.526  52.856  1.00  0.00     0.270 C 
BRANCH  15  16
HETATM   16  N1  UNL     1      24.200  -0.471  53.828  1.00  0.00     0.085 N 
HETATM   17  H7  UNL     1      23.898  -0.167  54.777  1.00  0.00     0.315 HD
BRANCH  16  18
HETATM   18  C3  UNL     1      25.636  -0.607  53.830  1.00  0.00     0.295 C 
BRANCH  18  19
HETATM   19  C2  UNL     1      26.214  -0.346  55.214  1.00  0.00     0.198 C 
BRANCH  19  20
HETATM   20  O1  UNL     1      27.577  -0.021  55.153  1.00  0.00    -0.379 OA
BRANCH  20  21
HETATM   21  C1  UNL     1      27.976   0.147  53.822  1.00  0.00     0.252 C 
HETATM   22 BR1  UNL     1      28.573   1.992  53.645  1.00  0.00    -0.068 Br
ENDBRANCH  20  21
ENDBRANCH  19  20
ENDBRANCH  18  19
ENDBRANCH  16  18
ENDBRANCH  15  16
ENDBRANCH  14  15
ENDBRANCH   1  14
TORSDOF 7
ENDMDL
