MODEL 1
REMARK VINA RESULT:      -8.3      0.000      0.000
REMARK  2 active torsions:
REMARK  status: ('A' for Active; 'I' for Inactive)
REMARK    1  A    between atoms: O1_1  and  C1_2 
REMARK    2  A    between atoms: C11_17  and  N5_18 
ROOT
HETATM    1  C1  UNL     1      24.869   6.630  50.529  1.00  0.00     0.120 C 
HETATM    2  C2  UNL     1      26.082   6.379  49.712  1.00  0.00     0.051 C 
HETATM    3  C3  UNL     1      25.996   4.927  49.140  1.00  0.00     0.117 C 
HETATM    4  N1  UNL     1      25.871   4.099  50.282  1.00  0.00    -0.411 N 
HETATM    5  C4  UNL     1      25.689   2.684  50.125  1.00  0.00     0.135 C 
HETATM    6  C5  UNL     1      26.626   2.087  51.180  1.00  0.00     0.199 C 
HETATM    7  O2  UNL     1      26.651   2.829  52.334  1.00  0.00    -0.370 OA
HETATM    8  C6  UNL     1      25.750   2.459  53.342  1.00  0.00     0.296 C 
HETATM    9  N2  UNL     1      24.443   2.501  52.723  1.00  0.00    -0.328 N 
HETATM   10  C7  UNL     1      23.787   3.696  53.201  1.00  0.00     0.210 C 
HETATM   11  N3  UNL     1      22.771   4.355  52.679  1.00  0.00    -0.229 NA
HETATM   12  C8  UNL     1      22.601   4.794  51.301  1.00  0.00     0.127 C 
HETATM   13  N4  UNL     1      22.572   4.119  50.166  1.00  0.00    -0.245 NA
HETATM   14  C9  UNL     1      23.236   2.898  49.747  1.00  0.00     0.127 C 
HETATM   15  C10 UNL     1      24.224   2.363  50.479  1.00  0.00     0.004 C 
HETATM   16  C11 UNL     1      23.942   1.531  51.729  1.00  0.00     0.228 C 
HETATM   17  C17 UNL     1      22.422   6.179  50.790  1.00  0.00     0.083 C 
HETATM   18  C18 UNL     1      23.554   6.507  49.801  1.00  0.00     0.039 C 
HETATM   19  H7  UNL     1      26.417   4.414  51.081  1.00  0.00     0.153 HD
ENDROOT
BRANCH  16  20
HETATM   20  N5  UNL     1      22.660   1.029  51.912  1.00  0.00    -0.298 N 
HETATM   21  C12 UNL     1      22.679   0.272  53.152  1.00  0.00     0.193 A 
HETATM   22  F1  UNL     1      23.719   0.075  54.031  1.00  0.00    -0.186 F 
HETATM   23  C13 UNL     1      21.626  -0.383  53.647  1.00  0.00     0.103 A 
HETATM   24  C14 UNL     1      20.322  -0.395  52.968  1.00  0.00     0.121 A 
HETATM   25  F2  UNL     1      19.224  -1.031  53.400  1.00  0.00    -0.206 F 
HETATM   26  C15 UNL     1      20.317   0.302  51.845  1.00  0.00     0.073 A 
HETATM   27  C16 UNL     1      21.402   1.073  51.189  1.00  0.00     0.302 A 
HETATM   28  F3  UNL     1      21.478   0.543  49.923  1.00  0.00    -0.222 F 
ENDBRANCH  16  20
BRANCH   1  29
HETATM   29  O1  UNL     1      24.958   7.815  51.227  1.00  0.00    -0.396 OA
HETATM   30  H1  UNL     1      25.179   8.599  50.666  1.00  0.00     0.210 HD
ENDBRANCH   1  29
TORSDOF 2
ENDMDL
MODEL 2
REMARK VINA RESULT:      -8.2      9.590     11.247
REMARK  2 active torsions:
REMARK  status: ('A' for Active; 'I' for Inactive)
REMARK    1  A    between atoms: O1_1  and  C1_2 
REMARK    2  A    between atoms: C11_17  and  N5_18 
ROOT
HETATM    1  C1  UNL     1      30.875  10.531  48.488  1.00  0.00     0.120 C 
HETATM    2  C2  UNL     1      31.430  11.536  47.548  1.00  0.00     0.051 C 
HETATM    3  C3  UNL     1      31.962  10.786  46.285  1.00  0.00     0.117 C 
HETATM    4  N1  UNL     1      32.910   9.863  46.790  1.00  0.00    -0.411 N 
HETATM    5  C4  UNL     1      33.555   8.938  45.901  1.00  0.00     0.135 C 
HETATM    6  C5  UNL     1      35.018   8.974  46.352  1.00  0.00     0.199 C 
HETATM    7  O2  UNL     1      35.141   9.087  47.714  1.00  0.00    -0.370 OA
HETATM    8  C6  UNL     1      35.248   7.892  48.439  1.00  0.00     0.296 C 
HETATM    9  N2  UNL     1      34.077   7.121  48.083  1.00  0.00    -0.328 N 
HETATM   10  C7  UNL     1      33.168   7.192  49.203  1.00  0.00     0.210 C 
HETATM   11  N3  UNL     1      31.867   6.974  49.237  1.00  0.00    -0.229 NA
HETATM   12  C8  UNL     1      30.845   7.516  48.353  1.00  0.00     0.127 C 
HETATM   13  N4  UNL     1      30.689   7.434  47.044  1.00  0.00    -0.245 NA
HETATM   14  C9  UNL     1      31.647   7.337  45.957  1.00  0.00     0.127 C 
HETATM   15  C10 UNL     1      32.955   7.545  46.169  1.00  0.00     0.004 C 
HETATM   16  C11 UNL     1      33.853   6.469  46.777  1.00  0.00     0.228 C 
HETATM   17  C17 UNL     1      29.668   8.351  48.708  1.00  0.00     0.083 C 
HETATM   18  C18 UNL     1      29.745   9.689  47.952  1.00  0.00     0.039 C 
HETATM   19  H7  UNL     1      33.459  10.220  47.570  1.00  0.00     0.153 HD
ENDROOT
BRANCH  16  20
HETATM   20  N5  UNL     1      33.400   5.156  46.785  1.00  0.00    -0.298 N 
HETATM   21  C12 UNL     1      34.288   4.410  47.660  1.00  0.00     0.193 A 
HETATM   22  F1  UNL     1      35.366   4.860  48.388  1.00  0.00    -0.186 F 
HETATM   23  C13 UNL     1      34.181   3.101  47.898  1.00  0.00     0.103 A 
HETATM   24  C14 UNL     1      33.129   2.277  47.284  1.00  0.00     0.121 A 
HETATM   25  F2  UNL     1      32.961   0.961  47.472  1.00  0.00    -0.206 F 
HETATM   26  C15 UNL     1      32.325   2.969  46.496  1.00  0.00     0.073 A 
HETATM   27  C16 UNL     1      32.327   4.413  46.151  1.00  0.00     0.302 A 
HETATM   28  F3  UNL     1      32.384   4.433  44.777  1.00  0.00    -0.222 F 
ENDBRANCH  16  20
BRANCH   1  29
HETATM   29  O1  UNL     1      30.563  11.090  49.709  1.00  0.00    -0.396 OA
HETATM   30  H1  UNL     1      30.686  12.071  49.748  1.00  0.00     0.210 HD
ENDBRANCH   1  29
TORSDOF 2
ENDMDL
MODEL 3
REMARK VINA RESULT:      -7.9      2.400      4.271
REMARK  2 active torsions:
REMARK  status: ('A' for Active; 'I' for Inactive)
REMARK    1  A    between atoms: O1_1  and  C1_2 
REMARK    2  A    between atoms: C11_17  and  N5_18 
ROOT
HETATM    1  C1  UNL     1      23.101   6.584  48.217  1.00  0.00     0.120 C 
HETATM    2  C2  UNL     1      21.942   7.424  48.608  1.00  0.00     0.051 C 
HETATM    3  C3  UNL     1      21.614   7.138  50.109  1.00  0.00     0.117 C 
HETATM    4  N1  UNL     1      21.377   5.743  50.165  1.00  0.00    -0.411 N 
HETATM    5  C4  UNL     1      21.117   5.110  51.427  1.00  0.00     0.135 C 
HETATM    6  C5  UNL     1      19.957   4.160  51.113  1.00  0.00     0.199 C 
HETATM    7  O2  UNL     1      20.071   3.589  49.871  1.00  0.00    -0.370 OA
HETATM    8  C6  UNL     1      20.723   2.350  49.804  1.00  0.00     0.296 C 
HETATM    9  N2  UNL     1      22.023   2.569  50.400  1.00  0.00    -0.328 N 
HETATM   10  C7  UNL     1      22.980   2.622  49.318  1.00  0.00     0.210 C 
HETATM   11  N3  UNL     1      24.192   3.144  49.302  1.00  0.00    -0.229 NA
HETATM   12  C8  UNL     1      24.605   4.465  49.754  1.00  0.00     0.127 C 
HETATM   13  N4  UNL     1      24.513   5.054  50.933  1.00  0.00    -0.245 NA
HETATM   14  C9  UNL     1      23.535   4.940  52.000  1.00  0.00     0.127 C 
HETATM   15  C10 UNL     1      22.372   4.301  51.806  1.00  0.00     0.004 C 
HETATM   16  C11 UNL     1      22.275   2.777  51.840  1.00  0.00     0.228 C 
HETATM   17  C17 UNL     1      25.251   5.548  48.967  1.00  0.00     0.083 C 
HETATM   18  C18 UNL     1      24.365   6.806  49.007  1.00  0.00     0.039 C 
HETATM   19  H7  UNL     1      20.894   5.374  49.348  1.00  0.00     0.153 HD
ENDROOT
BRANCH  16  20
HETATM   20  N5  UNL     1      23.314   2.060  52.420  1.00  0.00    -0.298 N 
HETATM   21  C12 UNL     1      22.858   0.686  52.545  1.00  0.00     0.193 A 
HETATM   22  F1  UNL     1      21.659   0.133  52.159  1.00  0.00    -0.186 F 
HETATM   23  C13 UNL     1      23.582  -0.297  53.085  1.00  0.00     0.103 A 
HETATM   24  C14 UNL     1      24.936  -0.073  53.612  1.00  0.00     0.121 A 
HETATM   25  F2  UNL     1      25.719  -1.007  54.171  1.00  0.00    -0.206 F 
HETATM   26  C15 UNL     1      25.340   1.179  53.487  1.00  0.00     0.073 A 
HETATM   27  C16 UNL     1      24.648   2.357  52.908  1.00  0.00     0.302 A 
HETATM   28  F3  UNL     1      24.668   3.292  53.917  1.00  0.00    -0.222 F 
ENDBRANCH  16  20
BRANCH   1  29
HETATM   29  O1  UNL     1      23.331   6.630  46.859  1.00  0.00    -0.396 OA
HETATM   30  H1  UNL     1      22.644   6.169  46.316  1.00  0.00     0.210 HD
ENDBRANCH   1  29
TORSDOF 2
ENDMDL
MODEL 4
REMARK VINA RESULT:      -7.9      3.089      4.477
REMARK  2 active torsions:
REMARK  status: ('A' for Active; 'I' for Inactive)
REMARK    1  A    between atoms: O1_1  and  C1_2 
REMARK    2  A    between atoms: C11_17  and  N5_18 
ROOT
HETATM    1  C1  UNL     1      18.465   4.711  49.320  1.00  0.00     0.120 C 
HETATM    2  C2  UNL     1      18.631   4.415  47.876  1.00  0.00     0.051 C 
HETATM    3  C3  UNL     1      19.155   2.950  47.732  1.00  0.00     0.117 C 
HETATM    4  N1  UNL     1      20.356   2.924  48.481  1.00  0.00    -0.411 N 
HETATM    5  C4  UNL     1      21.080   1.694  48.634  1.00  0.00     0.135 C 
HETATM    6  C5  UNL     1      22.538   2.112  48.422  1.00  0.00     0.199 C 
HETATM    7  O2  UNL     1      22.811   3.344  48.961  1.00  0.00    -0.370 OA
HETATM    8  C6  UNL     1      23.299   3.363  50.275  1.00  0.00     0.296 C 
HETATM    9  N2  UNL     1      22.311   2.656  51.061  1.00  0.00    -0.328 N 
HETATM   10  C7  UNL     1      21.570   3.651  51.801  1.00  0.00     0.210 C 
HETATM   11  N3  UNL     1      20.376   3.559  52.356  1.00  0.00    -0.229 NA
HETATM   12  C8  UNL     1      19.145   3.064  51.757  1.00  0.00     0.127 C 
HETATM   13  N4  UNL     1      18.840   1.894  51.226  1.00  0.00    -0.245 NA
HETATM   14  C9  UNL     1      19.640   0.915  50.511  1.00  0.00     0.127 C 
HETATM   15  C10 UNL     1      20.875   1.213  50.083  1.00  0.00     0.004 C 
HETATM   16  C11 UNL     1      22.079   1.199  51.023  1.00  0.00     0.228 C 
HETATM   17  C17 UNL     1      17.859   3.785  51.564  1.00  0.00     0.083 C 
HETATM   18  C18 UNL     1      17.511   3.813  50.066  1.00  0.00     0.039 C 
HETATM   19  H7  UNL     1      20.901   3.782  48.417  1.00  0.00     0.153 HD
ENDROOT
BRANCH  16  20
HETATM   20  N5  UNL     1      21.961   0.536  52.238  1.00  0.00    -0.298 N 
HETATM   21  C12 UNL     1      23.310   0.233  52.685  1.00  0.00     0.193 A 
HETATM   22  F1  UNL     1      24.511   0.539  52.085  1.00  0.00    -0.186 F 
HETATM   23  C13 UNL     1      23.597  -0.425  53.810  1.00  0.00     0.103 A 
HETATM   24  C14 UNL     1      22.551  -0.914  54.720  1.00  0.00     0.121 A 
HETATM   25  F2  UNL     1      22.762  -1.584  55.861  1.00  0.00    -0.206 F 
HETATM   26  C15 UNL     1      21.329  -0.627  54.305  1.00  0.00     0.073 A 
HETATM   27  C16 UNL     1      20.873   0.096  53.092  1.00  0.00     0.302 A 
HETATM   28  F3  UNL     1      20.014  -0.784  52.476  1.00  0.00    -0.222 F 
ENDBRANCH  16  20
BRANCH   1  29
HETATM   29  O1  UNL     1      18.193   6.044  49.542  1.00  0.00    -0.396 OA
HETATM   30  H1  UNL     1      18.194   6.598  48.722  1.00  0.00     0.210 HD
ENDBRANCH   1  29
TORSDOF 2
ENDMDL
MODEL 5
REMARK VINA RESULT:      -7.6      3.439      6.703
REMARK  2 active torsions:
REMARK  status: ('A' for Active; 'I' for Inactive)
REMARK    1  A    between atoms: O1_1  and  C1_2 
REMARK    2  A    between atoms: C11_17  and  N5_18 
ROOT
HETATM    1  C1  UNL     1      22.076   0.923  52.529  1.00  0.00     0.120 C 
HETATM    2  C2  UNL     1      21.319   0.172  51.497  1.00  0.00     0.051 C 
HETATM    3  C3  UNL     1      21.738   0.711  50.092  1.00  0.00     0.117 C 
HETATM    4  N1  UNL     1      21.453   2.097  50.140  1.00  0.00    -0.411 N 
HETATM    5  C4  UNL     1      21.789   2.938  49.026  1.00  0.00     0.135 C 
HETATM    6  C5  UNL     1      20.554   3.830  48.871  1.00  0.00     0.199 C 
HETATM    7  O2  UNL     1      20.009   4.181  50.080  1.00  0.00    -0.370 OA
HETATM    8  C6  UNL     1      20.450   5.385  50.646  1.00  0.00     0.296 C 
HETATM    9  N2  UNL     1      21.889   5.260  50.739  1.00  0.00    -0.328 N 
HETATM   10  C7  UNL     1      22.203   5.015  52.128  1.00  0.00     0.210 C 
HETATM   11  N3  UNL     1      23.291   4.487  52.656  1.00  0.00    -0.229 NA
HETATM   12  C8  UNL     1      23.969   3.259  52.270  1.00  0.00     0.127 C 
HETATM   13  N4  UNL     1      24.506   2.880  51.123  1.00  0.00    -0.245 NA
HETATM   14  C9  UNL     1      24.162   3.182  49.745  1.00  0.00     0.127 C 
HETATM   15  C10 UNL     1      23.006   3.788  49.439  1.00  0.00     0.004 C 
HETATM   16  C11 UNL     1      22.821   5.297  49.595  1.00  0.00     0.228 C 
HETATM   17  C17 UNL     1      24.234   2.053  53.097  1.00  0.00     0.083 C 
HETATM   18  C18 UNL     1      23.577   0.828  52.437  1.00  0.00     0.039 C 
HETATM   19  H7  UNL     1      20.608   2.327  50.660  1.00  0.00     0.153 HD
ENDROOT
BRANCH  16  20
HETATM   20  N5  UNL     1      23.954   6.093  49.715  1.00  0.00    -0.298 N 
HETATM   21  C12 UNL     1      23.492   7.465  49.839  1.00  0.00     0.193 A 
HETATM   22  F1  UNL     1      22.202   7.946  49.867  1.00  0.00    -0.186 F 
HETATM   23  C13 UNL     1      24.301   8.521  49.950  1.00  0.00     0.103 A 
HETATM   24  C14 UNL     1      25.765   8.388  49.959  1.00  0.00     0.121 A 
HETATM   25  F2  UNL     1      26.638   9.399  50.063  1.00  0.00    -0.206 F 
HETATM   26  C15 UNL     1      26.171   7.134  49.852  1.00  0.00     0.073 A 
HETATM   27  C16 UNL     1      25.389   5.879  49.729  1.00  0.00     0.302 A 
HETATM   28  F3  UNL     1      25.867   5.293  48.580  1.00  0.00    -0.222 F 
ENDBRANCH  16  20
BRANCH   1  29
HETATM   29  O1  UNL     1      21.622   0.645  53.800  1.00  0.00    -0.396 OA
HETATM   30  H1  UNL     1      21.889  -0.246  54.139  1.00  0.00     0.210 HD
ENDBRANCH   1  29
TORSDOF 2
ENDMDL
MODEL 6
REMARK VINA RESULT:      -7.5      2.652      4.552
REMARK  2 active torsions:
REMARK  status: ('A' for Active; 'I' for Inactive)
REMARK    1  A    between atoms: O1_1  and  C1_2 
REMARK    2  A    between atoms: C11_17  and  N5_18 
ROOT
HETATM    1  C1  UNL     1      19.552   4.951  49.369  1.00  0.00     0.120 C 
HETATM    2  C2  UNL     1      19.877   5.458  48.013  1.00  0.00     0.051 C 
HETATM    3  C3  UNL     1      21.248   4.848  47.576  1.00  0.00     0.117 C 
HETATM    4  N1  UNL     1      22.156   5.243  48.588  1.00  0.00    -0.411 N 
HETATM    5  C4  UNL     1      23.516   4.788  48.550  1.00  0.00     0.135 C 
HETATM    6  C5  UNL     1      24.321   6.043  48.900  1.00  0.00     0.199 C 
HETATM    7  O2  UNL     1      23.698   6.814  49.849  1.00  0.00    -0.370 OA
HETATM    8  C6  UNL     1      24.044   6.570  51.186  1.00  0.00     0.296 C 
HETATM    9  N2  UNL     1      23.780   5.164  51.400  1.00  0.00    -0.328 N 
HETATM   10  C7  UNL     1      22.562   5.074  52.170  1.00  0.00     0.210 C 
HETATM   11  N3  UNL     1      21.734   4.056  52.308  1.00  0.00    -0.229 NA
HETATM   12  C8  UNL     1      21.152   3.227  51.262  1.00  0.00     0.127 C 
HETATM   13  N4  UNL     1      21.711   2.475  50.330  1.00  0.00    -0.245 NA
HETATM   14  C9  UNL     1      22.962   2.600  49.604  1.00  0.00     0.127 C 
HETATM   15  C10 UNL     1      23.682   3.730  49.658  1.00  0.00     0.004 C 
HETATM   16  C11 UNL     1      24.584   4.055  50.847  1.00  0.00     0.228 C 
HETATM   17  C17 UNL     1      19.715   3.015  50.946  1.00  0.00     0.083 C 
HETATM   18  C18 UNL     1      19.441   3.453  49.497  1.00  0.00     0.039 C 
HETATM   19  H7  UNL     1      21.987   6.180  48.950  1.00  0.00     0.153 HD
ENDROOT
BRANCH  16  20
HETATM   20  N5  UNL     1      24.936   3.025  51.711  1.00  0.00    -0.298 N 
HETATM   21  C12 UNL     1      26.054   2.328  51.098  1.00  0.00     0.193 A 
HETATM   22  F1  UNL     1      26.701   2.599  49.914  1.00  0.00    -0.186 F 
HETATM   23  C13 UNL     1      26.650   1.258  51.629  1.00  0.00     0.103 A 
HETATM   24  C14 UNL     1      26.221   0.676  52.909  1.00  0.00     0.121 A 
HETATM   25  F2  UNL     1      26.767  -0.396  53.500  1.00  0.00    -0.206 F 
HETATM   26  C15 UNL     1      25.208   1.324  53.457  1.00  0.00     0.073 A 
HETATM   27  C16 UNL     1      24.463   2.517  52.985  1.00  0.00     0.302 A 
HETATM   28  F3  UNL     1      23.150   2.108  52.959  1.00  0.00    -0.222 F 
ENDBRANCH  16  20
BRANCH   1  29
HETATM   29  O1  UNL     1      18.458   5.593  49.907  1.00  0.00    -0.396 OA
HETATM   30  H1  UNL     1      18.630   6.021  50.783  1.00  0.00     0.210 HD
ENDBRANCH   1  29
TORSDOF 2
ENDMDL
MODEL 7
REMARK VINA RESULT:      -7.3      9.741     12.259
REMARK  2 active torsions:
REMARK  status: ('A' for Active; 'I' for Inactive)
REMARK    1  A    between atoms: O1_1  and  C1_2 
REMARK    2  A    between atoms: C11_17  and  N5_18 
ROOT
HETATM    1  C1  UNL     1      32.861   4.507  46.567  1.00  0.00     0.120 C 
HETATM    2  C2  UNL     1      34.331   4.439  46.759  1.00  0.00     0.051 C 
HETATM    3  C3  UNL     1      34.765   5.647  47.648  1.00  0.00     0.117 C 
HETATM    4  N1  UNL     1      34.314   6.791  46.946  1.00  0.00    -0.411 N 
HETATM    5  C4  UNL     1      34.478   8.096  47.519  1.00  0.00     0.135 C 
HETATM    6  C5  UNL     1      34.959   8.944  46.338  1.00  0.00     0.199 C 
HETATM    7  O2  UNL     1      34.350   8.592  45.161  1.00  0.00    -0.370 OA
HETATM    8  C6  UNL     1      33.186   9.295  44.818  1.00  0.00     0.296 C 
HETATM    9  N2  UNL     1      32.291   9.125  45.941  1.00  0.00    -0.328 N 
HETATM   10  C7  UNL     1      31.287   8.165  45.540  1.00  0.00     0.210 C 
HETATM   11  N3  UNL     1      30.494   7.425  46.291  1.00  0.00    -0.229 NA
HETATM   12  C8  UNL     1      30.857   6.593  47.429  1.00  0.00     0.127 C 
HETATM   13  N4  UNL     1      31.444   6.888  48.575  1.00  0.00    -0.245 NA
HETATM   14  C9  UNL     1      32.434   7.890  48.929  1.00  0.00     0.127 C 
HETATM   15  C10 UNL     1      33.089   8.577  47.982  1.00  0.00     0.004 C 
HETATM   16  C11 UNL     1      32.452   9.765  47.262  1.00  0.00     0.228 C 
HETATM   17  C17 UNL     1      30.668   5.129  47.598  1.00  0.00     0.083 C 
HETATM   18  C18 UNL     1      32.035   4.461  47.827  1.00  0.00     0.039 C 
HETATM   19  H7  UNL     1      34.394   6.712  45.934  1.00  0.00     0.153 HD
ENDROOT
BRANCH  16  20
HETATM   20  N5  UNL     1      31.331  10.358  47.829  1.00  0.00    -0.298 N 
HETATM   21  C12 UNL     1      31.089  11.588  47.094  1.00  0.00     0.193 A 
HETATM   22  F1  UNL     1      31.778  12.106  46.022  1.00  0.00    -0.186 F 
HETATM   23  C13 UNL     1      30.104  12.444  47.371  1.00  0.00     0.103 A 
HETATM   24  C14 UNL     1      29.152  12.215  48.468  1.00  0.00     0.121 A 
HETATM   25  F2  UNL     1      28.143  13.029  48.807  1.00  0.00    -0.206 F 
HETATM   26  C15 UNL     1      29.380  11.090  49.124  1.00  0.00     0.073 A 
HETATM   27  C16 UNL     1      30.424  10.056  48.921  1.00  0.00     0.302 A 
HETATM   28  F3  UNL     1      31.048   9.960  50.142  1.00  0.00    -0.222 F 
ENDBRANCH  16  20
BRANCH   1  29
HETATM   29  O1  UNL     1      32.423   3.590  45.635  1.00  0.00    -0.396 OA
HETATM   30  H1  UNL     1      32.161   3.989  44.768  1.00  0.00     0.210 HD
ENDBRANCH   1  29
TORSDOF 2
ENDMDL
MODEL 8
REMARK VINA RESULT:      -7.3      3.821      6.212
REMARK  2 active torsions:
REMARK  status: ('A' for Active; 'I' for Inactive)
REMARK    1  A    between atoms: O1_1  and  C1_2 
REMARK    2  A    between atoms: C11_17  and  N5_18 
ROOT
HETATM    1  C1  UNL     1      17.672   2.233  49.251  1.00  0.00     0.120 C 
HETATM    2  C2  UNL     1      16.956   2.369  50.544  1.00  0.00     0.051 C 
HETATM    3  C3  UNL     1      17.856   3.197  51.518  1.00  0.00     0.117 C 
HETATM    4  N1  UNL     1      19.070   2.472  51.589  1.00  0.00    -0.411 N 
HETATM    5  C4  UNL     1      20.172   2.991  52.347  1.00  0.00     0.135 C 
HETATM    6  C5  UNL     1      20.697   1.762  53.095  1.00  0.00     0.199 C 
HETATM    7  O2  UNL     1      20.638   0.623  52.333  1.00  0.00    -0.370 OA
HETATM    8  C6  UNL     1      21.782   0.301  51.589  1.00  0.00     0.296 C 
HETATM    9  N2  UNL     1      22.047   1.464  50.771  1.00  0.00    -0.328 N 
HETATM   10  C7  UNL     1      21.633   1.138  49.426  1.00  0.00     0.210 C 
HETATM   11  N3  UNL     1      21.337   1.945  48.425  1.00  0.00    -0.229 NA
HETATM   12  C8  UNL     1      20.447   3.097  48.437  1.00  0.00     0.127 C 
HETATM   13  N4  UNL     1      20.465   4.208  49.152  1.00  0.00    -0.245 NA
HETATM   14  C9  UNL     1      20.923   4.486  50.501  1.00  0.00     0.127 C 
HETATM   15  C10 UNL     1      21.230   3.490  51.345  1.00  0.00     0.004 C 
HETATM   16  C11 UNL     1      22.567   2.753  51.269  1.00  0.00     0.228 C 
HETATM   17  C17 UNL     1      19.225   3.326  47.623  1.00  0.00     0.083 C 
HETATM   18  C18 UNL     1      18.019   3.525  48.558  1.00  0.00     0.039 C 
HETATM   19  H7  UNL     1      18.948   1.461  51.573  1.00  0.00     0.153 HD
ENDROOT
BRANCH  16  20
HETATM   20  N5  UNL     1      23.607   3.343  50.561  1.00  0.00    -0.298 N 
HETATM   21  C12 UNL     1      24.794   2.546  50.818  1.00  0.00     0.193 A 
HETATM   22  F1  UNL     1      24.925   1.406  51.579  1.00  0.00    -0.186 F 
HETATM   23  C13 UNL     1      26.003   2.821  50.323  1.00  0.00     0.103 A 
HETATM   24  C14 UNL     1      26.247   3.981  49.453  1.00  0.00     0.121 A 
HETATM   25  F2  UNL     1      27.430   4.322  48.924  1.00  0.00    -0.206 F 
HETATM   26  C15 UNL     1      25.158   4.693  49.223  1.00  0.00     0.073 A 
HETATM   27  C16 UNL     1      23.766   4.499  49.699  1.00  0.00     0.302 A 
HETATM   28  F3  UNL     1      23.449   5.688  50.313  1.00  0.00    -0.222 F 
ENDBRANCH  16  20
BRANCH   1  29
HETATM   29  O1  UNL     1      17.035   1.352  48.404  1.00  0.00    -0.396 OA
HETATM   30  H1  UNL     1      16.843   0.470  48.808  1.00  0.00     0.210 HD
ENDBRANCH   1  29
TORSDOF 2
ENDMDL
MODEL 9
REMARK VINA RESULT:      -7.2      6.075      8.676
REMARK  2 active torsions:
REMARK  status: ('A' for Active; 'I' for Inactive)
REMARK    1  A    between atoms: O1_1  and  C1_2 
REMARK    2  A    between atoms: C11_17  and  N5_18 
ROOT
HETATM    1  C1  UNL     1      29.861  12.503  47.297  1.00  0.00     0.120 C 
HETATM    2  C2  UNL     1      30.422  12.579  45.926  1.00  0.00     0.051 C 
HETATM    3  C3  UNL     1      29.798  11.426  45.076  1.00  0.00     0.117 C 
HETATM    4  N1  UNL     1      30.125  10.243  45.783  1.00  0.00    -0.411 N 
HETATM    5  C4  UNL     1      29.638   8.974  45.322  1.00  0.00     0.135 C 
HETATM    6  C5  UNL     1      30.857   8.056  45.459  1.00  0.00     0.199 C 
HETATM    7  O2  UNL     1      31.598   8.338  46.578  1.00  0.00    -0.370 OA
HETATM    8  C6  UNL     1      31.286   7.618  47.741  1.00  0.00     0.296 C 
HETATM    9  N2  UNL     1      29.879   7.857  47.973  1.00  0.00    -0.328 N 
HETATM   10  C7  UNL     1      29.784   8.793  49.070  1.00  0.00     0.210 C 
HETATM   11  N3  UNL     1      28.781   9.578  49.412  1.00  0.00    -0.229 NA
HETATM   12  C8  UNL     1      28.015  10.476  48.560  1.00  0.00     0.127 C 
HETATM   13  N4  UNL     1      27.292  10.250  47.478  1.00  0.00    -0.245 NA
HETATM   14  C9  UNL     1      27.419   9.269  46.415  1.00  0.00     0.127 C 
HETATM   15  C10 UNL     1      28.528   8.525  46.290  1.00  0.00     0.004 C 
HETATM   16  C11 UNL     1      28.776   7.297  47.166  1.00  0.00     0.228 C 
HETATM   17  C17 UNL     1      27.853  11.949  48.683  1.00  0.00     0.083 C 
HETATM   18  C18 UNL     1      28.362  12.627  47.399  1.00  0.00     0.039 C 
HETATM   19  H7  UNL     1      31.048  10.261  46.212  1.00  0.00     0.153 HD
ENDROOT
BRANCH  16  20
HETATM   20  N5  UNL     1      27.700   6.742  47.846  1.00  0.00    -0.298 N 
HETATM   21  C12 UNL     1      28.113   5.416  48.274  1.00  0.00     0.193 A 
HETATM   22  F1  UNL     1      29.324   4.787  48.098  1.00  0.00    -0.186 F 
HETATM   23  C13 UNL     1      27.329   4.566  48.941  1.00  0.00     0.103 A 
HETATM   24  C14 UNL     1      25.947   4.902  49.312  1.00  0.00     0.121 A 
HETATM   25  F2  UNL     1      25.101   4.101  49.975  1.00  0.00    -0.206 F 
HETATM   26  C15 UNL     1      25.586   6.112  48.922  1.00  0.00     0.073 A 
HETATM   27  C16 UNL     1      26.350   7.151  48.187  1.00  0.00     0.302 A 
HETATM   28  F3  UNL     1      25.570   7.434  47.091  1.00  0.00    -0.222 F 
ENDBRANCH  16  20
BRANCH   1  29
HETATM   29  O1  UNL     1      30.505  13.363  48.162  1.00  0.00    -0.396 OA
HETATM   30  H1  UNL     1      31.122  12.915  48.792  1.00  0.00     0.210 HD
ENDBRANCH   1  29
TORSDOF 2
ENDMDL
