MODEL 1
REMARK VINA RESULT:      -8.1      0.000      0.000
REMARK  6 active torsions:
REMARK  status: ('A' for Active; 'I' for Inactive)
REMARK    1  A    between atoms: O1_2  and  C2_3 
REMARK    2  A    between atoms: C6_7  and  N1_8 
REMARK    3  A    between atoms: N1_8  and  C7_9 
REMARK    4  A    between atoms: C11_16  and  O2_17 
REMARK    5  A    between atoms: C13_19  and  O3_20 
REMARK    6  A    between atoms: C18_25  and  O4_26 
ROOT
HETATM    1  C7  UNL     1      24.686   2.691  52.113  1.00  0.00     0.144 A 
HETATM    2  N2  UNL     1      24.983   3.473  51.058  1.00  0.00    -0.200 NA
HETATM    3  C8  UNL     1      26.224   3.445  50.537  1.00  0.00     0.225 A 
HETATM    4 CL1  UNL     1      26.673   4.430  49.175  1.00  0.00    -0.041 Cl
HETATM    5  N3  UNL     1      27.132   2.626  51.098  1.00  0.00    -0.218 NA
HETATM    6  C9  UNL     1      26.859   1.831  52.157  1.00  0.00     0.077 A 
HETATM    7  C10 UNL     1      27.813   0.995  52.718  1.00  0.00     0.072 A 
HETATM    8  C11 UNL     1      27.513   0.185  53.808  1.00  0.00     0.103 A 
HETATM    9  C13 UNL     1      26.236   0.223  54.331  1.00  0.00     0.102 A 
HETATM   10  C15 UNL     1      25.260   1.049  53.793  1.00  0.00     0.057 A 
HETATM   11  C16 UNL     1      25.590   1.839  52.713  1.00  0.00     0.042 A 
ENDROOT
BRANCH   1  12
HETATM   12  N1  UNL     1      23.371   2.790  52.583  1.00  0.00    -0.340 N 
HETATM   13  H8  UNL     1      22.931   3.351  53.344  1.00  0.00     0.167 HD
BRANCH  12  14
HETATM   14  C6  UNL     1      22.312   2.038  52.010  1.00  0.00     0.033 C 
HETATM   15  C5  UNL     1      21.941   2.184  50.748  1.00  0.00     0.006 C 
HETATM   16  C4  UNL     1      20.946   1.634  49.799  1.00  0.00     0.059 C 
HETATM   17  C3  UNL     1      19.909   0.795  50.440  1.00  0.00     0.017 C 
HETATM   18  C2  UNL     1      19.654   0.224  51.605  1.00  0.00     0.098 C 
HETATM   19  C18 UNL     1      20.564   0.348  52.737  1.00  0.00     0.103 C 
HETATM   20  C17 UNL     1      21.656   1.092  52.906  1.00  0.00     0.068 C 
BRANCH  18  21
HETATM   21  O1  UNL     1      18.499  -0.495  51.724  1.00  0.00    -0.353 OA
HETATM   22  C1  UNL     1      17.220   0.056  51.757  1.00  0.00     0.210 C 
ENDBRANCH  18  21
BRANCH  19  23
HETATM   23  O4  UNL     1      20.222  -0.461  53.834  1.00  0.00    -0.353 OA
HETATM   24  C19 UNL     1      21.139  -1.375  54.398  1.00  0.00     0.210 C 
ENDBRANCH  19  23
ENDBRANCH  12  14
ENDBRANCH   1  12
BRANCH   9  25
HETATM   25  O3  UNL     1      25.928  -0.585  55.422  1.00  0.00    -0.353 OA
HETATM   26  C14 UNL     1      24.680  -1.205  55.573  1.00  0.00     0.210 C 
ENDBRANCH   9  25
BRANCH   8  27
HETATM   27  O2  UNL     1      28.433  -0.663  54.397  1.00  0.00    -0.353 OA
HETATM   28  C12 UNL     1      29.672  -0.990  53.809  1.00  0.00     0.210 C 
ENDBRANCH   8  27
TORSDOF 6
ENDMDL
MODEL 2
REMARK VINA RESULT:      -7.8      3.996      7.172
REMARK  6 active torsions:
REMARK  status: ('A' for Active; 'I' for Inactive)
REMARK    1  A    between atoms: O1_2  and  C2_3 
REMARK    2  A    between atoms: C6_7  and  N1_8 
REMARK    3  A    between atoms: N1_8  and  C7_9 
REMARK    4  A    between atoms: C11_16  and  O2_17 
REMARK    5  A    between atoms: C13_19  and  O3_20 
REMARK    6  A    between atoms: C18_25  and  O4_26 
ROOT
HETATM    1  C7  UNL     1      26.131   2.629  50.908  1.00  0.00     0.144 A 
HETATM    2  N2  UNL     1      27.294   2.692  51.582  1.00  0.00    -0.200 NA
HETATM    3  C8  UNL     1      27.366   2.206  52.835  1.00  0.00     0.225 A 
HETATM    4 CL1  UNL     1      28.838   2.258  53.760  1.00  0.00    -0.041 Cl
HETATM    5  N3  UNL     1      26.257   1.669  53.374  1.00  0.00    -0.218 NA
HETATM    6  C9  UNL     1      25.076   1.593  52.719  1.00  0.00     0.077 A 
HETATM    7  C10 UNL     1      23.946   1.034  53.297  1.00  0.00     0.072 A 
HETATM    8  C11 UNL     1      22.740   0.965  52.606  1.00  0.00     0.103 A 
HETATM    9  C13 UNL     1      22.682   1.467  51.322  1.00  0.00     0.102 A 
HETATM   10  C15 UNL     1      23.795   2.032  50.717  1.00  0.00     0.057 A 
HETATM   11  C16 UNL     1      24.974   2.085  51.428  1.00  0.00     0.042 A 
ENDROOT
BRANCH   1  12
HETATM   12  N1  UNL     1      26.156   3.159  49.612  1.00  0.00    -0.340 N 
HETATM   13  H8  UNL     1      25.997   2.738  48.672  1.00  0.00     0.167 HD
BRANCH  12  14
HETATM   14  C6  UNL     1      26.438   4.528  49.369  1.00  0.00     0.033 C 
HETATM   15  C5  UNL     1      27.472   4.920  48.641  1.00  0.00     0.006 C 
HETATM   16  C4  UNL     1      28.098   6.175  48.164  1.00  0.00     0.059 C 
HETATM   17  C3  UNL     1      27.556   7.394  48.803  1.00  0.00     0.017 C 
HETATM   18  C2  UNL     1      26.550   7.763  49.579  1.00  0.00     0.098 C 
HETATM   19  C18 UNL     1      25.560   6.808  50.059  1.00  0.00     0.103 C 
HETATM   20  C17 UNL     1      25.512   5.479  49.973  1.00  0.00     0.068 C 
BRANCH  18  21
HETATM   21  O1  UNL     1      26.462   9.081  49.926  1.00  0.00    -0.353 OA
HETATM   22  C1  UNL     1      26.723  10.148  49.067  1.00  0.00     0.210 C 
ENDBRANCH  18  21
BRANCH  19  23
HETATM   23  O4  UNL     1      24.473   7.399  50.724  1.00  0.00    -0.353 OA
HETATM   24  C19 UNL     1      23.138   7.120  50.361  1.00  0.00     0.210 C 
ENDBRANCH  19  23
ENDBRANCH  12  14
ENDBRANCH   1  12
BRANCH   9  25
HETATM   25  O3  UNL     1      21.479   1.402  50.625  1.00  0.00    -0.353 OA
HETATM   26  C14 UNL     1      21.409   1.038  49.273  1.00  0.00     0.210 C 
ENDBRANCH   9  25
BRANCH   8  27
HETATM   27  O2  UNL     1      21.590   0.417  53.144  1.00  0.00    -0.353 OA
HETATM   28  C12 UNL     1      21.555  -0.235  54.394  1.00  0.00     0.210 C 
ENDBRANCH   8  27
TORSDOF 6
ENDMDL
MODEL 3
REMARK VINA RESULT:      -7.6      1.788      2.507
REMARK  6 active torsions:
REMARK  status: ('A' for Active; 'I' for Inactive)
REMARK    1  A    between atoms: O1_2  and  C2_3 
REMARK    2  A    between atoms: C6_7  and  N1_8 
REMARK    3  A    between atoms: N1_8  and  C7_9 
REMARK    4  A    between atoms: C11_16  and  O2_17 
REMARK    5  A    between atoms: C13_19  and  O3_20 
REMARK    6  A    between atoms: C18_25  and  O4_26 
ROOT
HETATM    1  C7  UNL     1      24.714   2.743  52.131  1.00  0.00     0.144 A 
HETATM    2  N2  UNL     1      25.016   3.526  51.079  1.00  0.00    -0.200 NA
HETATM    3  C8  UNL     1      26.248   3.473  50.540  1.00  0.00     0.225 A 
HETATM    4 CL1  UNL     1      26.702   4.459  49.180  1.00  0.00    -0.041 Cl
HETATM    5  N3  UNL     1      27.144   2.628  51.081  1.00  0.00    -0.218 NA
HETATM    6  C9  UNL     1      26.867   1.831  52.138  1.00  0.00     0.077 A 
HETATM    7  C10 UNL     1      27.808   0.967  52.679  1.00  0.00     0.072 A 
HETATM    8  C11 UNL     1      27.503   0.155  53.766  1.00  0.00     0.103 A 
HETATM    9  C13 UNL     1      26.235   0.220  54.307  1.00  0.00     0.102 A 
HETATM   10  C15 UNL     1      25.272   1.074  53.790  1.00  0.00     0.057 A 
HETATM   11  C16 UNL     1      25.606   1.865  52.712  1.00  0.00     0.042 A 
ENDROOT
BRANCH   1  12
HETATM   12  N1  UNL     1      23.409   2.870  52.621  1.00  0.00    -0.340 N 
HETATM   13  H8  UNL     1      23.019   3.269  53.502  1.00  0.00     0.167 HD
BRANCH  12  14
HETATM   14  C6  UNL     1      22.285   2.411  51.886  1.00  0.00     0.033 C 
HETATM   15  C5  UNL     1      22.087   1.130  51.619  1.00  0.00     0.006 C 
HETATM   16  C4  UNL     1      21.105   0.266  50.924  1.00  0.00     0.059 C 
HETATM   17  C3  UNL     1      20.120   1.014  50.112  1.00  0.00     0.017 C 
HETATM   18  C2  UNL     1      19.714   2.257  49.915  1.00  0.00     0.098 C 
HETATM   19  C18 UNL     1      20.303   3.381  50.631  1.00  0.00     0.103 C 
HETATM   20  C17 UNL     1      21.359   3.447  51.441  1.00  0.00     0.068 C 
BRANCH  18  21
HETATM   21  O1  UNL     1      18.713   2.465  49.009  1.00  0.00    -0.353 OA
HETATM   22  C1  UNL     1      17.356   2.283  49.268  1.00  0.00     0.210 C 
ENDBRANCH  18  21
BRANCH  19  23
HETATM   23  O4  UNL     1      19.636   4.600  50.426  1.00  0.00    -0.353 OA
HETATM   24  C19 UNL     1      20.322   5.760  50.004  1.00  0.00     0.210 C 
ENDBRANCH  19  23
ENDBRANCH  12  14
ENDBRANCH   1  12
BRANCH   9  25
HETATM   25  O3  UNL     1      25.923  -0.589  55.396  1.00  0.00    -0.353 OA
HETATM   26  C14 UNL     1      24.659  -1.171  55.565  1.00  0.00     0.210 C 
ENDBRANCH   9  25
BRANCH   8  27
HETATM   27  O2  UNL     1      28.411  -0.719  54.336  1.00  0.00    -0.353 OA
HETATM   28  C12 UNL     1      29.703  -0.940  53.817  1.00  0.00     0.210 C 
ENDBRANCH   8  27
TORSDOF 6
ENDMDL
MODEL 4
REMARK VINA RESULT:      -7.4      4.055      7.574
REMARK  6 active torsions:
REMARK  status: ('A' for Active; 'I' for Inactive)
REMARK    1  A    between atoms: O1_2  and  C2_3 
REMARK    2  A    between atoms: C6_7  and  N1_8 
REMARK    3  A    between atoms: N1_8  and  C7_9 
REMARK    4  A    between atoms: C11_16  and  O2_17 
REMARK    5  A    between atoms: C13_19  and  O3_20 
REMARK    6  A    between atoms: C18_25  and  O4_26 
ROOT
HETATM    1  C7  UNL     1      25.928   2.531  51.017  1.00  0.00     0.144 A 
HETATM    2  N2  UNL     1      27.116   2.588  51.646  1.00  0.00    -0.200 NA
HETATM    3  C8  UNL     1      27.275   1.966  52.829  1.00  0.00     0.225 A 
HETATM    4 CL1  UNL     1      28.784   2.001  53.693  1.00  0.00    -0.041 Cl
HETATM    5  N3  UNL     1      26.225   1.302  53.346  1.00  0.00    -0.218 NA
HETATM    6  C9  UNL     1      25.020   1.231  52.735  1.00  0.00     0.077 A 
HETATM    7  C10 UNL     1      23.951   0.540  53.288  1.00  0.00     0.072 A 
HETATM    8  C11 UNL     1      22.720   0.478  52.643  1.00  0.00     0.103 A 
HETATM    9  C13 UNL     1      22.574   1.120  51.431  1.00  0.00     0.102 A 
HETATM   10  C15 UNL     1      23.623   1.818  50.852  1.00  0.00     0.057 A 
HETATM   11  C16 UNL     1      24.830   1.861  51.516  1.00  0.00     0.042 A 
ENDROOT
BRANCH   1  12
HETATM   12  N1  UNL     1      25.862   3.208  49.794  1.00  0.00    -0.340 N 
HETATM   13  H8  UNL     1      25.689   2.889  48.816  1.00  0.00     0.167 HD
BRANCH  12  14
HETATM   14  C6  UNL     1      26.044   4.612  49.704  1.00  0.00     0.033 C 
HETATM   15  C5  UNL     1      25.249   5.471  50.323  1.00  0.00     0.006 C 
HETATM   16  C4  UNL     1      25.090   6.935  50.490  1.00  0.00     0.059 C 
HETATM   17  C3  UNL     1      25.931   7.736  49.573  1.00  0.00     0.017 C 
HETATM   18  C2  UNL     1      26.932   7.574  48.724  1.00  0.00     0.098 C 
HETATM   19  C18 UNL     1      27.529   6.268  48.481  1.00  0.00     0.103 C 
HETATM   20  C17 UNL     1      27.167   5.050  48.882  1.00  0.00     0.068 C 
BRANCH  18  21
HETATM   21  O1  UNL     1      27.399   8.679  48.071  1.00  0.00    -0.353 OA
HETATM   22  C1  UNL     1      27.541   9.941  48.646  1.00  0.00     0.210 C 
ENDBRANCH  18  21
BRANCH  19  23
HETATM   23  O4  UNL     1      28.687   6.310  47.685  1.00  0.00    -0.353 OA
HETATM   24  C19 UNL     1      29.847   5.580  48.023  1.00  0.00     0.210 C 
ENDBRANCH  19  23
ENDBRANCH  12  14
ENDBRANCH   1  12
BRANCH   9  25
HETATM   25  O3  UNL     1      21.344   1.062  50.780  1.00  0.00    -0.353 OA
HETATM   26  C14 UNL     1      21.232   0.975  49.386  1.00  0.00     0.210 C 
ENDBRANCH   9  25
BRANCH   8  27
HETATM   27  O2  UNL     1      21.630  -0.199  53.159  1.00  0.00    -0.353 OA
HETATM   28  C12 UNL     1      20.741   0.366  54.096  1.00  0.00     0.210 C 
ENDBRANCH   8  27
TORSDOF 6
ENDMDL
MODEL 5
REMARK VINA RESULT:      -7.3      3.606      5.186
REMARK  6 active torsions:
REMARK  status: ('A' for Active; 'I' for Inactive)
REMARK    1  A    between atoms: O1_2  and  C2_3 
REMARK    2  A    between atoms: C6_7  and  N1_8 
REMARK    3  A    between atoms: N1_8  and  C7_9 
REMARK    4  A    between atoms: C11_16  and  O2_17 
REMARK    5  A    between atoms: C13_19  and  O3_20 
REMARK    6  A    between atoms: C18_25  and  O4_26 
ROOT
HETATM    1  C7  UNL     1      24.212   2.049  52.984  1.00  0.00     0.144 A 
HETATM    2  N2  UNL     1      22.949   1.586  52.953  1.00  0.00    -0.200 NA
HETATM    3  C8  UNL     1      22.718   0.269  53.107  1.00  0.00     0.225 A 
HETATM    4 CL1  UNL     1      21.110  -0.393  53.078  1.00  0.00    -0.041 Cl
HETATM    5  N3  UNL     1      23.773  -0.546  53.287  1.00  0.00    -0.218 NA
HETATM    6  C9  UNL     1      25.051  -0.107  53.321  1.00  0.00     0.077 A 
HETATM    7  C10 UNL     1      26.124  -0.967  53.508  1.00  0.00     0.072 A 
HETATM    8  C11 UNL     1      27.432  -0.495  53.540  1.00  0.00     0.103 A 
HETATM    9  C13 UNL     1      27.652   0.858  53.382  1.00  0.00     0.102 A 
HETATM   10  C15 UNL     1      26.602   1.744  53.193  1.00  0.00     0.057 A 
HETATM   11  C16 UNL     1      25.318   1.244  53.166  1.00  0.00     0.042 A 
ENDROOT
BRANCH   1  12
HETATM   12  N1  UNL     1      24.350   3.432  52.815  1.00  0.00    -0.340 N 
HETATM   13  H8  UNL     1      24.564   4.208  53.478  1.00  0.00     0.167 HD
BRANCH  12  14
HETATM   14  C6  UNL     1      24.200   4.051  51.548  1.00  0.00     0.033 C 
HETATM   15  C5  UNL     1      25.140   4.000  50.617  1.00  0.00     0.006 C 
HETATM   16  C4  UNL     1      25.381   4.479  49.237  1.00  0.00     0.059 C 
HETATM   17  C3  UNL     1      24.384   5.465  48.763  1.00  0.00     0.017 C 
HETATM   18  C2  UNL     1      23.214   5.966  49.122  1.00  0.00     0.098 C 
HETATM   19  C18 UNL     1      22.535   5.536  50.337  1.00  0.00     0.103 C 
HETATM   20  C17 UNL     1      22.937   4.750  51.335  1.00  0.00     0.068 C 
BRANCH  18  21
HETATM   21  O1  UNL     1      22.650   6.911  48.314  1.00  0.00    -0.353 OA
HETATM   22  C1  UNL     1      23.066   7.195  47.014  1.00  0.00     0.210 C 
ENDBRANCH  18  21
BRANCH  19  23
HETATM   23  O4  UNL     1      21.231   6.043  50.471  1.00  0.00    -0.353 OA
HETATM   24  C19 UNL     1      20.094   5.248  50.210  1.00  0.00     0.210 C 
ENDBRANCH  19  23
ENDBRANCH  12  14
ENDBRANCH   1  12
BRANCH   9  25
HETATM   25  O3  UNL     1      28.960   1.337  53.413  1.00  0.00    -0.353 OA
HETATM   26  C14 UNL     1      29.485   2.023  54.516  1.00  0.00     0.210 C 
ENDBRANCH   9  25
BRANCH   8  27
HETATM   27  O2  UNL     1      28.528  -1.317  53.724  1.00  0.00    -0.353 OA
HETATM   28  C12 UNL     1      28.721  -2.521  53.015  1.00  0.00     0.210 C 
ENDBRANCH   8  27
TORSDOF 6
ENDMDL
MODEL 6
REMARK VINA RESULT:      -7.3      3.221      4.648
REMARK  6 active torsions:
REMARK  status: ('A' for Active; 'I' for Inactive)
REMARK    1  A    between atoms: O1_2  and  C2_3 
REMARK    2  A    between atoms: C6_7  and  N1_8 
REMARK    3  A    between atoms: N1_8  and  C7_9 
REMARK    4  A    between atoms: C11_16  and  O2_17 
REMARK    5  A    between atoms: C13_19  and  O3_20 
REMARK    6  A    between atoms: C18_25  and  O4_26 
ROOT
HETATM    1  C7  UNL     1      24.464   2.365  52.124  1.00  0.00     0.144 A 
HETATM    2  N2  UNL     1      25.125   1.252  52.492  1.00  0.00    -0.200 NA
HETATM    3  C8  UNL     1      26.320   0.973  51.939  1.00  0.00     0.225 A 
HETATM    4 CL1  UNL     1      27.225  -0.449  52.371  1.00  0.00    -0.041 Cl
HETATM    5  N3  UNL     1      26.815   1.827  51.025  1.00  0.00    -0.218 NA
HETATM    6  C9  UNL     1      26.171   2.951  50.637  1.00  0.00     0.077 A 
HETATM    7  C10 UNL     1      26.701   3.818  49.693  1.00  0.00     0.072 A 
HETATM    8  C11 UNL     1      26.023   4.970  49.307  1.00  0.00     0.103 A 
HETATM    9  C13 UNL     1      24.799   5.243  49.884  1.00  0.00     0.102 A 
HETATM   10  C15 UNL     1      24.242   4.397  50.831  1.00  0.00     0.057 A 
HETATM   11  C16 UNL     1      24.940   3.264  51.191  1.00  0.00     0.042 A 
ENDROOT
BRANCH   1  12
HETATM   12  N1  UNL     1      23.231   2.569  52.755  1.00  0.00    -0.340 N 
HETATM   13  H8  UNL     1      22.875   3.319  53.386  1.00  0.00     0.167 HD
BRANCH  12  14
HETATM   14  C6  UNL     1      22.152   1.662  52.602  1.00  0.00     0.033 C 
HETATM   15  C5  UNL     1      21.285   1.754  51.605  1.00  0.00     0.006 C 
HETATM   16  C4  UNL     1      20.081   1.058  51.096  1.00  0.00     0.059 C 
HETATM   17  C3  UNL     1      19.525   0.059  52.037  1.00  0.00     0.017 C 
HETATM   18  C2  UNL     1      19.849  -0.552  53.165  1.00  0.00     0.098 C 
HETATM   19  C18 UNL     1      21.110  -0.291  53.845  1.00  0.00     0.103 C 
HETATM   20  C17 UNL     1      22.058   0.618  53.615  1.00  0.00     0.068 C 
BRANCH  18  21
HETATM   21  O1  UNL     1      18.958  -1.447  53.683  1.00  0.00    -0.353 OA
HETATM   22  C1  UNL     1      17.675  -1.672  53.185  1.00  0.00     0.210 C 
ENDBRANCH  18  21
BRANCH  19  23
HETATM   23  O4  UNL     1      21.363  -1.150  54.928  1.00  0.00    -0.353 OA
HETATM   24  C19 UNL     1      22.677  -1.483  55.321  1.00  0.00     0.210 C 
ENDBRANCH  19  23
ENDBRANCH  12  14
ENDBRANCH   1  12
BRANCH   9  25
HETATM   25  O3  UNL     1      24.115   6.394  49.503  1.00  0.00    -0.353 OA
HETATM   26  C14 UNL     1      24.050   7.536  50.313  1.00  0.00     0.210 C 
ENDBRANCH   9  25
BRANCH   8  27
HETATM   27  O2  UNL     1      26.515   5.860  48.370  1.00  0.00    -0.353 OA
HETATM   28  C12 UNL     1      27.760   6.509  48.498  1.00  0.00     0.210 C 
ENDBRANCH   8  27
TORSDOF 6
ENDMDL
MODEL 7
REMARK VINA RESULT:      -7.0      2.084      2.507
REMARK  6 active torsions:
REMARK  status: ('A' for Active; 'I' for Inactive)
REMARK    1  A    between atoms: O1_2  and  C2_3 
REMARK    2  A    between atoms: C6_7  and  N1_8 
REMARK    3  A    between atoms: N1_8  and  C7_9 
REMARK    4  A    between atoms: C11_16  and  O2_17 
REMARK    5  A    between atoms: C13_19  and  O3_20 
REMARK    6  A    between atoms: C18_25  and  O4_26 
ROOT
HETATM    1  C7  UNL     1      24.570   3.273  51.752  1.00  0.00     0.144 A 
HETATM    2  N2  UNL     1      25.190   4.002  50.806  1.00  0.00    -0.200 NA
HETATM    3  C8  UNL     1      26.312   3.531  50.230  1.00  0.00     0.225 A 
HETATM    4 CL1  UNL     1      27.162   4.422  49.002  1.00  0.00    -0.041 Cl
HETATM    5  N3  UNL     1      26.777   2.332  50.628  1.00  0.00    -0.218 NA
HETATM    6  C9  UNL     1      26.173   1.581  51.576  1.00  0.00     0.077 A 
HETATM    7  C10 UNL     1      26.672   0.347  51.969  1.00  0.00     0.072 A 
HETATM    8  C11 UNL     1      26.036  -0.411  52.947  1.00  0.00     0.103 A 
HETATM    9  C13 UNL     1      24.887   0.086  53.528  1.00  0.00     0.102 A 
HETATM   10  C15 UNL     1      24.363   1.315  53.156  1.00  0.00     0.057 A 
HETATM   11  C16 UNL     1      25.017   2.042  52.185  1.00  0.00     0.042 A 
ENDROOT
BRANCH   1  12
HETATM   12  N1  UNL     1      23.412   3.847  52.291  1.00  0.00    -0.340 N 
HETATM   13  H8  UNL     1      23.188   4.240  53.230  1.00  0.00     0.167 HD
BRANCH  12  14
HETATM   14  C6  UNL     1      22.224   3.994  51.529  1.00  0.00     0.033 C 
HETATM   15  C5  UNL     1      21.819   5.167  51.067  1.00  0.00     0.006 C 
HETATM   16  C4  UNL     1      20.706   5.737  50.274  1.00  0.00     0.059 C 
HETATM   17  C3  UNL     1      19.586   4.796  50.052  1.00  0.00     0.017 C 
HETATM   18  C2  UNL     1      19.304   3.512  50.202  1.00  0.00     0.098 C 
HETATM   19  C18 UNL     1      20.276   2.570  50.741  1.00  0.00     0.103 C 
HETATM   20  C17 UNL     1      21.477   2.766  51.286  1.00  0.00     0.068 C 
BRANCH  18  21
HETATM   21  O1  UNL     1      18.060   3.085  49.834  1.00  0.00    -0.353 OA
HETATM   22  C1  UNL     1      17.611   2.986  48.518  1.00  0.00     0.210 C 
ENDBRANCH  18  21
BRANCH  19  23
HETATM   23  O4  UNL     1      19.869   1.227  50.669  1.00  0.00    -0.353 OA
HETATM   24  C19 UNL     1      20.212   0.293  51.670  1.00  0.00     0.210 C 
ENDBRANCH  19  23
ENDBRANCH  12  14
ENDBRANCH   1  12
BRANCH   9  25
HETATM   25  O3  UNL     1      24.245  -0.668  54.507  1.00  0.00    -0.353 OA
HETATM   26  C14 UNL     1      22.881  -0.985  54.441  1.00  0.00     0.210 C 
ENDBRANCH   9  25
BRANCH   8  27
HETATM   27  O2  UNL     1      26.499  -1.644  53.369  1.00  0.00    -0.353 OA
HETATM   28  C12 UNL     1      27.443  -2.404  52.648  1.00  0.00     0.210 C 
ENDBRANCH   8  27
TORSDOF 6
ENDMDL
MODEL 8
REMARK VINA RESULT:      -6.9      4.903      7.455
REMARK  6 active torsions:
REMARK  status: ('A' for Active; 'I' for Inactive)
REMARK    1  A    between atoms: O1_2  and  C2_3 
REMARK    2  A    between atoms: C6_7  and  N1_8 
REMARK    3  A    between atoms: N1_8  and  C7_9 
REMARK    4  A    between atoms: C11_16  and  O2_17 
REMARK    5  A    between atoms: C13_19  and  O3_20 
REMARK    6  A    between atoms: C18_25  and  O4_26 
ROOT
HETATM    1  C7  UNL     1      26.620   5.602  49.126  1.00  0.00     0.144 A 
HETATM    2  N2  UNL     1      25.524   6.117  49.714  1.00  0.00    -0.200 NA
HETATM    3  C8  UNL     1      25.448   7.442  49.937  1.00  0.00     0.225 A 
HETATM    4 CL1  UNL     1      24.061   8.171  50.693  1.00  0.00    -0.041 Cl
HETATM    5  N3  UNL     1      26.485   8.212  49.561  1.00  0.00    -0.218 NA
HETATM    6  C9  UNL     1      27.597   7.720  48.969  1.00  0.00     0.077 A 
HETATM    7  C10 UNL     1      28.654   8.534  48.589  1.00  0.00     0.072 A 
HETATM    8  C11 UNL     1      29.790   8.008  47.982  1.00  0.00     0.103 A 
HETATM    9  C13 UNL     1      29.852   6.648  47.759  1.00  0.00     0.102 A 
HETATM   10  C15 UNL     1      28.813   5.807  48.126  1.00  0.00     0.057 A 
HETATM   11  C16 UNL     1      27.701   6.360  48.726  1.00  0.00     0.042 A 
ENDROOT
BRANCH   1  12
HETATM   12  N1  UNL     1      26.605   4.215  48.936  1.00  0.00    -0.340 N 
HETATM   13  H8  UNL     1      27.076   3.590  48.247  1.00  0.00     0.167 HD
BRANCH  12  14
HETATM   14  C6  UNL     1      25.844   3.353  49.767  1.00  0.00     0.033 C 
HETATM   15  C5  UNL     1      24.542   3.179  49.605  1.00  0.00     0.006 C 
HETATM   16  C4  UNL     1      23.426   2.417  50.212  1.00  0.00     0.059 C 
HETATM   17  C3  UNL     1      23.772   1.775  51.500  1.00  0.00     0.017 C 
HETATM   18  C2  UNL     1      24.834   1.518  52.244  1.00  0.00     0.098 C 
HETATM   19  C18 UNL     1      26.174   1.914  51.832  1.00  0.00     0.103 C 
HETATM   20  C17 UNL     1      26.592   2.668  50.815  1.00  0.00     0.068 C 
BRANCH  18  21
HETATM   21  O1  UNL     1      24.642   0.861  53.425  1.00  0.00    -0.353 OA
HETATM   22  C1  UNL     1      23.890  -0.303  53.574  1.00  0.00     0.210 C 
ENDBRANCH  18  21
BRANCH  19  23
HETATM   23  O4  UNL     1      27.196   1.411  52.655  1.00  0.00    -0.353 OA
HETATM   24  C19 UNL     1      28.142   2.260  53.269  1.00  0.00     0.210 C 
ENDBRANCH  19  23
ENDBRANCH  12  14
ENDBRANCH   1  12
BRANCH   9  25
HETATM   25  O3  UNL     1      30.986   6.115  47.151  1.00  0.00    -0.353 OA
HETATM   26  C14 UNL     1      31.945   5.378  47.860  1.00  0.00     0.210 C 
ENDBRANCH   9  25
BRANCH   8  27
HETATM   27  O2  UNL     1      30.865   8.784  47.588  1.00  0.00    -0.353 OA
HETATM   28  C12 UNL     1      31.226   9.988  48.227  1.00  0.00     0.210 C 
ENDBRANCH   8  27
TORSDOF 6
ENDMDL
MODEL 9
REMARK VINA RESULT:      -6.9      4.345      6.871
REMARK  6 active torsions:
REMARK  status: ('A' for Active; 'I' for Inactive)
REMARK    1  A    between atoms: O1_2  and  C2_3 
REMARK    2  A    between atoms: C6_7  and  N1_8 
REMARK    3  A    between atoms: N1_8  and  C7_9 
REMARK    4  A    between atoms: C11_16  and  O2_17 
REMARK    5  A    between atoms: C13_19  and  O3_20 
REMARK    6  A    between atoms: C18_25  and  O4_26 
ROOT
HETATM    1  C7  UNL     1      25.631   5.108  49.473  1.00  0.00     0.144 A 
HETATM    2  N2  UNL     1      24.509   5.666  49.963  1.00  0.00    -0.200 NA
HETATM    3  C8  UNL     1      24.417   7.005  50.062  1.00  0.00     0.225 A 
HETATM    4 CL1  UNL     1      22.995   7.788  50.686  1.00  0.00    -0.041 Cl
HETATM    5  N3  UNL     1      25.467   7.746  49.662  1.00  0.00    -0.218 NA
HETATM    6  C9  UNL     1      26.605   7.211  49.166  1.00  0.00     0.077 A 
HETATM    7  C10 UNL     1      27.675   7.996  48.760  1.00  0.00     0.072 A 
HETATM    8  C11 UNL     1      28.838   7.426  48.253  1.00  0.00     0.103 A 
HETATM    9  C13 UNL     1      28.916   6.052  48.158  1.00  0.00     0.102 A 
HETATM   10  C15 UNL     1      27.865   5.239  48.555  1.00  0.00     0.057 A 
HETATM   11  C16 UNL     1      26.726   5.835  49.053  1.00  0.00     0.042 A 
ENDROOT
BRANCH   1  12
HETATM   12  N1  UNL     1      25.630   3.709  49.410  1.00  0.00    -0.340 N 
HETATM   13  H8  UNL     1      25.628   3.037  48.613  1.00  0.00     0.167 HD
BRANCH  12  14
HETATM   14  C6  UNL     1      25.633   2.907  50.580  1.00  0.00     0.033 C 
HETATM   15  C5  UNL     1      26.748   2.586  51.217  1.00  0.00     0.006 C 
HETATM   16  C4  UNL     1      27.180   1.816  52.406  1.00  0.00     0.059 C 
HETATM   17  C3  UNL     1      26.110   0.985  53.002  1.00  0.00     0.017 C 
HETATM   18  C2  UNL     1      24.802   0.813  52.914  1.00  0.00     0.098 C 
HETATM   19  C18 UNL     1      23.984   1.595  51.996  1.00  0.00     0.103 C 
HETATM   20  C17 UNL     1      24.323   2.456  51.037  1.00  0.00     0.068 C 
BRANCH  18  21
HETATM   21  O1  UNL     1      24.228  -0.132  53.716  1.00  0.00    -0.353 OA
HETATM   22  C1  UNL     1      24.911  -0.890  54.665  1.00  0.00     0.210 C 
ENDBRANCH  18  21
BRANCH  19  23
HETATM   23  O4  UNL     1      22.602   1.402  52.158  1.00  0.00    -0.353 OA
HETATM   24  C19 UNL     1      21.827   0.730  51.188  1.00  0.00     0.210 C 
ENDBRANCH  19  23
ENDBRANCH  12  14
ENDBRANCH   1  12
BRANCH   9  25
HETATM   25  O3  UNL     1      30.078   5.474  47.651  1.00  0.00    -0.353 OA
HETATM   26  C14 UNL     1      31.222   5.272  48.435  1.00  0.00     0.210 C 
ENDBRANCH   9  25
BRANCH   8  27
HETATM   27  O2  UNL     1      29.927   8.171  47.837  1.00  0.00    -0.353 OA
HETATM   28  C12 UNL     1      30.701   8.964  48.709  1.00  0.00     0.210 C 
ENDBRANCH   8  27
TORSDOF 6
ENDMDL
