MODEL 1
REMARK VINA RESULT:      -8.6      0.000      0.000
REMARK  4 active torsions:
REMARK  status: ('A' for Active; 'I' for Inactive)
REMARK    1  A    between atoms: S1_2  and  N1_5 
REMARK    2  A    between atoms: N1_5  and  C2_6 
REMARK    3  A    between atoms: C10_15  and  N3_16 
REMARK    4  A    between atoms: N3_16  and  C11_17 
ROOT
HETATM    1  C2  UNL     1      28.564   6.370  48.158  1.00  0.00     0.043 A 
HETATM    2  C3  UNL     1      27.688   7.401  48.423  1.00  0.00     0.033 A 
HETATM    3  C4  UNL     1      26.436   7.219  48.980  1.00  0.00     0.040 A 
HETATM    4  C5  UNL     1      26.056   5.916  49.282  1.00  0.00     0.086 A 
HETATM    5  C6  UNL     1      26.867   4.824  49.050  1.00  0.00    -0.004 A 
HETATM    6  C7  UNL     1      28.118   5.086  48.485  1.00  0.00     0.041 A 
HETATM    7  C8  UNL     1      26.805   3.373  49.232  1.00  0.00     0.161 C 
HETATM    8  N2  UNL     1      25.712   2.909  50.034  1.00  0.00    -0.379 N 
HETATM    9  C9  UNL     1      24.781   3.597  50.843  1.00  0.00     0.129 A 
HETATM   10  C10 UNL     1      24.309   2.722  51.797  1.00  0.00     0.160 A 
HETATM   11  N4  UNL     1      23.404   3.191  52.668  1.00  0.00    -0.222 NA
HETATM   12  C16 UNL     1      22.972   4.464  52.614  1.00  0.00     0.238 A 
HETATM   13  N5  UNL     1      23.453   5.292  51.670  1.00  0.00    -0.215 NA
HETATM   14  C17 UNL     1      24.357   4.906  50.763  1.00  0.00     0.202 A 
HETATM   15  O3  UNL     1      24.783   5.845  49.834  1.00  0.00    -0.289 OA
HETATM   16  H10 UNL     1      25.596   1.874  50.005  1.00  0.00     0.160 HD
ENDROOT
BRANCH  10  17
HETATM   17  N3  UNL     1      24.687   1.364  51.959  1.00  0.00    -0.339 N 
HETATM   18  H11 UNL     1      24.445   0.421  51.603  1.00  0.00     0.167 HD
BRANCH  17  19
HETATM   19  C11 UNL     1      25.733   0.968  52.871  1.00  0.00     0.031 A 
HETATM   20  C12 UNL     1      26.018   1.257  54.126  1.00  0.00     0.008 A 
HETATM   21  C13 UNL     1      27.251   0.552  54.594  1.00  0.00     0.075 A 
HETATM   22  C14 UNL     1      27.666  -0.220  53.397  1.00  0.00    -0.006 A 
HETATM   23 BR1  UNL     1      29.185  -1.352  53.308  1.00  0.00    -0.055 Br
HETATM   24  C15 UNL     1      26.784   0.032  52.419  1.00  0.00     0.044 A 
ENDBRANCH  17  19
ENDBRANCH  10  17
BRANCH   1  25
HETATM   25  N1  UNL     1      29.831   6.599  47.591  1.00  0.00    -0.285 N 
HETATM   26  H4  UNL     1      29.744   6.773  46.546  1.00  0.00     0.178 HD
BRANCH  25  27
HETATM   27  S1  UNL     1      31.347   6.615  48.393  1.00  0.00     0.227 S 
HETATM   28  C1  UNL     1      31.614   8.092  49.338  1.00  0.00     0.186 C 
HETATM   29  O1  UNL     1      32.480   6.418  47.416  1.00  0.00    -0.206 OA
HETATM   30  O2  UNL     1      31.388   5.453  49.344  1.00  0.00    -0.206 OA
ENDBRANCH  25  27
ENDBRANCH   1  25
TORSDOF 4
ENDMDL
MODEL 2
REMARK VINA RESULT:      -8.4      2.466      2.821
REMARK  4 active torsions:
REMARK  status: ('A' for Active; 'I' for Inactive)
REMARK    1  A    between atoms: S1_2  and  N1_5 
REMARK    2  A    between atoms: N1_5  and  C2_6 
REMARK    3  A    between atoms: C10_15  and  N3_16 
REMARK    4  A    between atoms: N3_16  and  C11_17 
ROOT
HETATM    1  C2  UNL     1      28.922   6.211  47.912  1.00  0.00     0.043 A 
HETATM    2  C3  UNL     1      28.097   7.279  47.629  1.00  0.00     0.033 A 
HETATM    3  C4  UNL     1      26.746   7.302  47.920  1.00  0.00     0.040 A 
HETATM    4  C5  UNL     1      26.206   6.175  48.533  1.00  0.00     0.086 A 
HETATM    5  C6  UNL     1      26.956   5.062  48.851  1.00  0.00    -0.004 A 
HETATM    6  C7  UNL     1      28.314   5.111  48.527  1.00  0.00     0.041 A 
HETATM    7  C8  UNL     1      26.739   3.754  49.471  1.00  0.00     0.161 C 
HETATM    8  N2  UNL     1      25.469   3.591  50.114  1.00  0.00    -0.379 N 
HETATM    9  C9  UNL     1      24.449   4.516  50.430  1.00  0.00     0.129 A 
HETATM   10  C10 UNL     1      23.720   4.011  51.484  1.00  0.00     0.160 A 
HETATM   11  N4  UNL     1      22.695   4.750  51.932  1.00  0.00    -0.222 NA
HETATM   12  C16 UNL     1      22.389   5.936  51.377  1.00  0.00     0.238 A 
HETATM   13  N5  UNL     1      23.121   6.401  50.350  1.00  0.00    -0.215 NA
HETATM   14  C17 UNL     1      24.159   5.728  49.841  1.00  0.00     0.202 A 
HETATM   15  O3  UNL     1      24.845   6.302  48.779  1.00  0.00    -0.289 OA
HETATM   16  H10 UNL     1      25.277   2.606  50.394  1.00  0.00     0.160 HD
ENDROOT
BRANCH  10  17
HETATM   17  N3  UNL     1      23.944   2.780  52.154  1.00  0.00    -0.339 N 
HETATM   18  H11 UNL     1      24.648   2.318  52.757  1.00  0.00     0.167 HD
BRANCH  17  19
HETATM   19  C11 UNL     1      22.991   1.698  52.095  1.00  0.00     0.031 A 
HETATM   20  C12 UNL     1      22.186   1.230  51.162  1.00  0.00     0.008 A 
HETATM   21  C13 UNL     1      21.392   0.058  51.646  1.00  0.00     0.075 A 
HETATM   22  C14 UNL     1      21.861  -0.105  53.044  1.00  0.00    -0.006 A 
HETATM   23 BR1  UNL     1      21.247  -1.436  54.248  1.00  0.00    -0.055 Br
HETATM   24  C15 UNL     1      22.778   0.844  53.283  1.00  0.00     0.044 A 
ENDBRANCH  17  19
ENDBRANCH  10  17
BRANCH   1  25
HETATM   25  N1  UNL     1      30.294   6.228  47.600  1.00  0.00    -0.285 N 
HETATM   26  H4  UNL     1      30.439   6.055  46.561  1.00  0.00     0.178 HD
BRANCH  25  27
HETATM   27  S1  UNL     1      31.606   6.484  48.673  1.00  0.00     0.227 S 
HETATM   28  C1  UNL     1      31.562   8.078  49.452  1.00  0.00     0.186 C 
HETATM   29  O1  UNL     1      32.928   6.293  47.970  1.00  0.00    -0.206 OA
HETATM   30  O2  UNL     1      31.537   5.447  49.757  1.00  0.00    -0.206 OA
ENDBRANCH  25  27
ENDBRANCH   1  25
TORSDOF 4
ENDMDL
MODEL 3
REMARK VINA RESULT:      -8.4      4.355      7.053
REMARK  4 active torsions:
REMARK  status: ('A' for Active; 'I' for Inactive)
REMARK    1  A    between atoms: S1_2  and  N1_5 
REMARK    2  A    between atoms: N1_5  and  C2_6 
REMARK    3  A    between atoms: C10_15  and  N3_16 
REMARK    4  A    between atoms: N3_16  and  C11_17 
ROOT
HETATM    1  C2  UNL     1      26.149   1.035  54.000  1.00  0.00     0.043 A 
HETATM    2  C3  UNL     1      25.594  -0.171  53.628  1.00  0.00     0.033 A 
HETATM    3  C4  UNL     1      24.410  -0.285  52.924  1.00  0.00     0.040 A 
HETATM    4  C5  UNL     1      23.757   0.894  52.580  1.00  0.00     0.086 A 
HETATM    5  C6  UNL     1      24.238   2.143  52.912  1.00  0.00    -0.004 A 
HETATM    6  C7  UNL     1      25.440   2.180  53.624  1.00  0.00     0.041 A 
HETATM    7  C8  UNL     1      23.839   3.539  52.726  1.00  0.00     0.161 C 
HETATM    8  N2  UNL     1      22.768   3.745  51.797  1.00  0.00    -0.379 N 
HETATM    9  C9  UNL     1      22.138   2.876  50.880  1.00  0.00     0.129 A 
HETATM   10  C10 UNL     1      21.580   3.638  49.877  1.00  0.00     0.160 A 
HETATM   11  N4  UNL     1      20.929   2.989  48.902  1.00  0.00    -0.222 NA
HETATM   12  C16 UNL     1      20.823   1.648  48.900  1.00  0.00     0.238 A 
HETATM   13  N5  UNL     1      21.380   0.933  49.894  1.00  0.00    -0.215 NA
HETATM   14  C17 UNL     1      22.046   1.501  50.905  1.00  0.00     0.202 A 
HETATM   15  O3  UNL     1      22.580   0.666  51.877  1.00  0.00    -0.289 OA
HETATM   16  H10 UNL     1      22.395   4.718  51.815  1.00  0.00     0.160 HD
ENDROOT
BRANCH  10  17
HETATM   17  N3  UNL     1      21.625   5.051  49.765  1.00  0.00    -0.339 N 
HETATM   18  H11 UNL     1      21.122   5.894  50.100  1.00  0.00     0.167 HD
BRANCH  17  19
HETATM   19  C11 UNL     1      22.628   5.721  48.972  1.00  0.00     0.031 A 
HETATM   20  C12 UNL     1      22.592   6.483  47.897  1.00  0.00     0.008 A 
HETATM   21  C13 UNL     1      23.960   6.922  47.480  1.00  0.00     0.075 A 
HETATM   22  C14 UNL     1      24.836   6.290  48.496  1.00  0.00    -0.006 A 
HETATM   23 BR1  UNL     1      26.725   6.447  48.552  1.00  0.00    -0.055 Br
HETATM   24  C15 UNL     1      24.053   5.604  49.343  1.00  0.00     0.044 A 
ENDBRANCH  17  19
ENDBRANCH  10  17
BRANCH   1  25
HETATM   25  N1  UNL     1      27.358   1.107  54.717  1.00  0.00    -0.285 N 
HETATM   26  H4  UNL     1      27.191   0.900  55.746  1.00  0.00     0.178 HD
BRANCH  25  27
HETATM   27  S1  UNL     1      28.917   1.470  54.102  1.00  0.00     0.227 S 
HETATM   28  C1  UNL     1      29.835   0.021  53.649  1.00  0.00     0.186 C 
HETATM   29  O1  UNL     1      29.711   2.293  55.086  1.00  0.00    -0.206 OA
HETATM   30  O2  UNL     1      28.752   2.308  52.867  1.00  0.00    -0.206 OA
ENDBRANCH  25  27
ENDBRANCH   1  25
TORSDOF 4
ENDMDL
MODEL 4
REMARK VINA RESULT:      -8.2      4.375      7.364
REMARK  4 active torsions:
REMARK  status: ('A' for Active; 'I' for Inactive)
REMARK    1  A    between atoms: S1_2  and  N1_5 
REMARK    2  A    between atoms: N1_5  and  C2_6 
REMARK    3  A    between atoms: C10_15  and  N3_16 
REMARK    4  A    between atoms: N3_16  and  C11_17 
ROOT
HETATM    1  C2  UNL     1      23.979   0.378  53.122  1.00  0.00     0.043 A 
HETATM    2  C3  UNL     1      22.764   0.028  52.574  1.00  0.00     0.033 A 
HETATM    3  C4  UNL     1      21.823   0.946  52.148  1.00  0.00     0.040 A 
HETATM    4  C5  UNL     1      22.137   2.294  52.289  1.00  0.00     0.086 A 
HETATM    5  C6  UNL     1      23.329   2.734  52.828  1.00  0.00    -0.004 A 
HETATM    6  C7  UNL     1      24.231   1.749  53.236  1.00  0.00     0.041 A 
HETATM    7  C8  UNL     1      23.975   4.015  53.119  1.00  0.00     0.161 C 
HETATM    8  N2  UNL     1      23.336   5.161  52.544  1.00  0.00    -0.379 N 
HETATM    9  C9  UNL     1      22.300   5.282  51.591  1.00  0.00     0.129 A 
HETATM   10  C10 UNL     1      22.416   6.511  50.982  1.00  0.00     0.160 A 
HETATM   11  N4  UNL     1      21.513   6.818  50.039  1.00  0.00    -0.222 NA
HETATM   12  C16 UNL     1      20.534   5.961  49.701  1.00  0.00     0.238 A 
HETATM   13  N5  UNL     1      20.449   4.768  50.315  1.00  0.00    -0.215 NA
HETATM   14  C17 UNL     1      21.307   4.383  51.266  1.00  0.00     0.202 A 
HETATM   15  O3  UNL     1      21.125   3.129  51.833  1.00  0.00    -0.289 OA
HETATM   16  H10 UNL     1      23.714   6.062  52.905  1.00  0.00     0.160 HD
ENDROOT
BRANCH  10  17
HETATM   17  N3  UNL     1      23.402   7.497  51.247  1.00  0.00    -0.339 N 
HETATM   18  H11 UNL     1      23.607   8.259  51.919  1.00  0.00     0.167 HD
BRANCH  17  19
HETATM   19  C11 UNL     1      24.577   7.639  50.422  1.00  0.00     0.031 A 
HETATM   20  C12 UNL     1      25.206   8.666  49.885  1.00  0.00     0.008 A 
HETATM   21  C13 UNL     1      26.406   8.237  49.101  1.00  0.00     0.075 A 
HETATM   22  C14 UNL     1      26.395   6.762  49.259  1.00  0.00    -0.006 A 
HETATM   23 BR1  UNL     1      27.670   5.579  48.502  1.00  0.00    -0.055 Br
HETATM   24  C15 UNL     1      25.339   6.438  50.019  1.00  0.00     0.044 A 
ENDBRANCH  17  19
ENDBRANCH  10  17
BRANCH   1  25
HETATM   25  N1  UNL     1      24.911  -0.590  53.543  1.00  0.00    -0.285 N 
HETATM   26  H4  UNL     1      24.445  -1.300  54.183  1.00  0.00     0.178 HD
BRANCH  25  27
HETATM   27  S1  UNL     1      26.573  -0.687  53.133  1.00  0.00     0.227 S 
HETATM   28  C1  UNL     1      27.626   0.107  54.320  1.00  0.00     0.186 C 
HETATM   29  O1  UNL     1      26.828  -0.118  51.759  1.00  0.00    -0.206 OA
HETATM   30  O2  UNL     1      26.961  -2.138  53.081  1.00  0.00    -0.206 OA
ENDBRANCH  25  27
ENDBRANCH   1  25
TORSDOF 4
ENDMDL
MODEL 5
REMARK VINA RESULT:      -8.2      6.863      8.623
REMARK  4 active torsions:
REMARK  status: ('A' for Active; 'I' for Inactive)
REMARK    1  A    between atoms: S1_2  and  N1_5 
REMARK    2  A    between atoms: N1_5  and  C2_6 
REMARK    3  A    between atoms: C10_15  and  N3_16 
REMARK    4  A    between atoms: N3_16  and  C11_17 
ROOT
HETATM    1  C2  UNL     1      25.167   1.410  53.029  1.00  0.00     0.043 A 
HETATM    2  C3  UNL     1      24.939   2.077  51.845  1.00  0.00     0.033 A 
HETATM    3  C4  UNL     1      23.793   1.926  51.088  1.00  0.00     0.040 A 
HETATM    4  C5  UNL     1      22.826   1.046  51.564  1.00  0.00     0.086 A 
HETATM    5  C6  UNL     1      22.970   0.335  52.738  1.00  0.00    -0.004 A 
HETATM    6  C7  UNL     1      24.156   0.540  53.449  1.00  0.00     0.041 A 
HETATM    7  C8  UNL     1      22.198  -0.635  53.515  1.00  0.00     0.161 C 
HETATM    8  N2  UNL     1      20.836  -0.796  53.102  1.00  0.00    -0.379 N 
HETATM    9  C9  UNL     1      20.033  -0.062  52.202  1.00  0.00     0.129 A 
HETATM   10  C10 UNL     1      18.713  -0.252  52.548  1.00  0.00     0.160 A 
HETATM   11  N4  UNL     1      17.787   0.367  51.803  1.00  0.00    -0.222 NA
HETATM   12  C16 UNL     1      18.130   1.143  50.759  1.00  0.00     0.238 A 
HETATM   13  N5  UNL     1      19.427   1.309  50.448  1.00  0.00    -0.215 NA
HETATM   14  C17 UNL     1      20.414   0.728  51.139  1.00  0.00     0.202 A 
HETATM   15  O3  UNL     1      21.719   0.967  50.729  1.00  0.00    -0.289 OA
HETATM   16  H10 UNL     1      20.366  -1.607  53.557  1.00  0.00     0.160 HD
ENDROOT
BRANCH  10  17
HETATM   17  N3  UNL     1      18.226  -1.040  53.622  1.00  0.00    -0.339 N 
HETATM   18  H11 UNL     1      18.217  -1.057  54.659  1.00  0.00     0.167 HD
BRANCH  17  19
HETATM   19  C11 UNL     1      17.472  -2.250  53.398  1.00  0.00     0.031 A 
HETATM   20  C12 UNL     1      17.655  -3.519  53.707  1.00  0.00     0.008 A 
HETATM   21  C13 UNL     1      16.532  -4.379  53.220  1.00  0.00     0.075 A 
HETATM   22  C14 UNL     1      15.630  -3.404  52.559  1.00  0.00    -0.006 A 
HETATM   23 BR1  UNL     1      13.988  -3.840  51.716  1.00  0.00    -0.055 Br
HETATM   24  C15 UNL     1      16.186  -2.188  52.672  1.00  0.00     0.044 A 
ENDBRANCH  17  19
ENDBRANCH  10  17
BRANCH   1  25
HETATM   25  N1  UNL     1      26.349   1.593  53.771  1.00  0.00    -0.285 N 
HETATM   26  H4  UNL     1      26.542   2.629  53.911  1.00  0.00     0.178 HD
BRANCH  25  27
HETATM   27  S1  UNL     1      27.388   0.381  54.397  1.00  0.00     0.227 S 
HETATM   28  C1  UNL     1      28.043  -0.685  53.139  1.00  0.00     0.186 C 
HETATM   29  O1  UNL     1      26.690  -0.439  55.453  1.00  0.00    -0.206 OA
HETATM   30  O2  UNL     1      28.549   1.058  55.068  1.00  0.00    -0.206 OA
ENDBRANCH  25  27
ENDBRANCH   1  25
TORSDOF 4
ENDMDL
MODEL 6
REMARK VINA RESULT:      -8.1      6.551      9.032
REMARK  4 active torsions:
REMARK  status: ('A' for Active; 'I' for Inactive)
REMARK    1  A    between atoms: S1_2  and  N1_5 
REMARK    2  A    between atoms: N1_5  and  C2_6 
REMARK    3  A    between atoms: C10_15  and  N3_16 
REMARK    4  A    between atoms: N3_16  and  C11_17 
ROOT
HETATM    1  C2  UNL     1      24.179  -0.661  54.364  1.00  0.00     0.043 A 
HETATM    2  C3  UNL     1      23.165  -1.194  55.131  1.00  0.00     0.033 A 
HETATM    3  C4  UNL     1      21.823  -0.978  54.883  1.00  0.00     0.040 A 
HETATM    4  C5  UNL     1      21.496  -0.175  53.797  1.00  0.00     0.086 A 
HETATM    5  C6  UNL     1      22.444   0.401  52.976  1.00  0.00    -0.004 A 
HETATM    6  C7  UNL     1      23.780   0.138  53.288  1.00  0.00     0.041 A 
HETATM    7  C8  UNL     1      22.469   1.265  51.795  1.00  0.00     0.161 C 
HETATM    8  N2  UNL     1      21.203   1.448  51.150  1.00  0.00    -0.379 N 
HETATM    9  C9  UNL     1      19.957   0.806  51.324  1.00  0.00     0.129 A 
HETATM   10  C10 UNL     1      19.239   0.933  50.155  1.00  0.00     0.160 A 
HETATM   11  N4  UNL     1      18.016   0.385  50.122  1.00  0.00    -0.222 NA
HETATM   12  C16 UNL     1      17.509  -0.262  51.186  1.00  0.00     0.238 A 
HETATM   13  N5  UNL     1      18.236  -0.369  52.312  1.00  0.00    -0.215 NA
HETATM   14  C17 UNL     1      19.463   0.148  52.430  1.00  0.00     0.202 A 
HETATM   15  O3  UNL     1      20.124  -0.022  53.639  1.00  0.00    -0.289 OA
HETATM   16  H10 UNL     1      21.220   2.194  50.423  1.00  0.00     0.160 HD
ENDROOT
BRANCH  10  17
HETATM   17  N3  UNL     1      19.664   1.586  48.970  1.00  0.00    -0.339 N 
HETATM   18  H11 UNL     1      20.299   1.442  48.163  1.00  0.00     0.167 HD
BRANCH  17  19
HETATM   19  C11 UNL     1      19.155   2.883  48.591  1.00  0.00     0.031 A 
HETATM   20  C12 UNL     1      18.204   3.296  47.776  1.00  0.00     0.008 A 
HETATM   21  C13 UNL     1      18.094   4.787  47.759  1.00  0.00     0.075 A 
HETATM   22  C14 UNL     1      19.149   5.209  48.712  1.00  0.00    -0.006 A 
HETATM   23 BR1  UNL     1      19.551   7.007  49.164  1.00  0.00    -0.055 Br
HETATM   24  C15 UNL     1      19.747   4.102  49.179  1.00  0.00     0.044 A 
ENDBRANCH  17  19
ENDBRANCH  10  17
BRANCH   1  25
HETATM   25  N1  UNL     1      25.535  -0.906  54.649  1.00  0.00    -0.285 N 
HETATM   26  H4  UNL     1      25.650  -1.852  55.121  1.00  0.00     0.178 HD
BRANCH  25  27
HETATM   27  S1  UNL     1      26.873   0.115  54.319  1.00  0.00     0.227 S 
HETATM   28  C1  UNL     1      27.258   0.213  52.590  1.00  0.00     0.186 C 
HETATM   29  O1  UNL     1      28.093  -0.322  55.093  1.00  0.00    -0.206 OA
HETATM   30  O2  UNL     1      26.535   1.501  54.789  1.00  0.00    -0.206 OA
ENDBRANCH  25  27
ENDBRANCH   1  25
TORSDOF 4
ENDMDL
MODEL 7
REMARK VINA RESULT:      -7.8      4.108      5.952
REMARK  4 active torsions:
REMARK  status: ('A' for Active; 'I' for Inactive)
REMARK    1  A    between atoms: S1_2  and  N1_5 
REMARK    2  A    between atoms: N1_5  and  C2_6 
REMARK    3  A    between atoms: C10_15  and  N3_16 
REMARK    4  A    between atoms: N3_16  and  C11_17 
ROOT
HETATM    1  C2  UNL     1      24.490   5.097  49.779  1.00  0.00     0.043 A 
HETATM    2  C3  UNL     1      25.614   4.598  49.155  1.00  0.00     0.033 A 
HETATM    3  C4  UNL     1      26.383   3.571  49.668  1.00  0.00     0.040 A 
HETATM    4  C5  UNL     1      25.986   3.023  50.883  1.00  0.00     0.086 A 
HETATM    5  C6  UNL     1      24.876   3.460  51.578  1.00  0.00    -0.004 A 
HETATM    6  C7  UNL     1      24.148   4.502  50.997  1.00  0.00     0.041 A 
HETATM    7  C8  UNL     1      24.186   3.135  52.827  1.00  0.00     0.161 C 
HETATM    8  N2  UNL     1      24.614   1.922  53.458  1.00  0.00    -0.379 N 
HETATM    9  C9  UNL     1      25.449   0.874  53.013  1.00  0.00     0.129 A 
HETATM   10  C10 UNL     1      25.124  -0.265  53.715  1.00  0.00     0.160 A 
HETATM   11  N4  UNL     1      25.815  -1.379  53.434  1.00  0.00    -0.222 NA
HETATM   12  C16 UNL     1      26.787  -1.386  52.506  1.00  0.00     0.238 A 
HETATM   13  N5  UNL     1      27.080  -0.257  51.837  1.00  0.00    -0.215 NA
HETATM   14  C17 UNL     1      26.441   0.897  52.055  1.00  0.00     0.202 A 
HETATM   15  O3  UNL     1      26.826   2.002  51.308  1.00  0.00    -0.289 OA
HETATM   16  H10 UNL     1      24.231   1.807  54.420  1.00  0.00     0.160 HD
ENDROOT
BRANCH  10  17
HETATM   17  N3  UNL     1      24.121  -0.386  54.712  1.00  0.00    -0.339 N 
HETATM   18  H11 UNL     1      23.999  -0.283  55.736  1.00  0.00     0.167 HD
BRANCH  17  19
HETATM   19  C11 UNL     1      22.767  -0.765  54.388  1.00  0.00     0.031 A 
HETATM   20  C12 UNL     1      21.971  -1.747  54.762  1.00  0.00     0.008 A 
HETATM   21  C13 UNL     1      20.632  -1.663  54.101  1.00  0.00     0.075 A 
HETATM   22  C14 UNL     1      20.755  -0.450  53.255  1.00  0.00    -0.006 A 
HETATM   23 BR1  UNL     1      19.388   0.237  52.135  1.00  0.00    -0.055 Br
HETATM   24  C15 UNL     1      21.987   0.051  53.433  1.00  0.00     0.044 A 
ENDBRANCH  17  19
ENDBRANCH  10  17
BRANCH   1  25
HETATM   25  N1  UNL     1      23.733   6.145  49.222  1.00  0.00    -0.285 N 
HETATM   26  H4  UNL     1      23.538   5.956  48.195  1.00  0.00     0.178 HD
BRANCH  25  27
HETATM   27  S1  UNL     1      23.166   7.558  50.011  1.00  0.00     0.227 S 
HETATM   28  C1  UNL     1      22.687   8.837  48.879  1.00  0.00     0.186 C 
HETATM   29  O1  UNL     1      24.193   8.088  50.981  1.00  0.00    -0.206 OA
HETATM   30  O2  UNL     1      21.954   7.190  50.820  1.00  0.00    -0.206 OA
ENDBRANCH  25  27
ENDBRANCH   1  25
TORSDOF 4
ENDMDL
MODEL 8
REMARK VINA RESULT:      -7.7      2.555      3.020
REMARK  4 active torsions:
REMARK  status: ('A' for Active; 'I' for Inactive)
REMARK    1  A    between atoms: S1_2  and  N1_5 
REMARK    2  A    between atoms: N1_5  and  C2_6 
REMARK    3  A    between atoms: C10_15  and  N3_16 
REMARK    4  A    between atoms: N3_16  and  C11_17 
ROOT
HETATM    1  C2  UNL     1      25.764   7.715  47.519  1.00  0.00     0.043 A 
HETATM    2  C3  UNL     1      24.408   7.598  47.303  1.00  0.00     0.033 A 
HETATM    3  C4  UNL     1      23.631   6.587  47.836  1.00  0.00     0.040 A 
HETATM    4  C5  UNL     1      24.271   5.644  48.633  1.00  0.00     0.086 A 
HETATM    5  C6  UNL     1      25.624   5.682  48.902  1.00  0.00    -0.004 A 
HETATM    6  C7  UNL     1      26.345   6.733  48.328  1.00  0.00     0.041 A 
HETATM    7  C8  UNL     1      26.597   4.896  49.662  1.00  0.00     0.161 C 
HETATM    8  N2  UNL     1      26.032   3.916  50.541  1.00  0.00    -0.379 N 
HETATM    9  C9  UNL     1      24.703   3.683  50.959  1.00  0.00     0.129 A 
HETATM   10  C10 UNL     1      24.740   3.027  52.169  1.00  0.00     0.160 A 
HETATM   11  N4  UNL     1      23.567   2.712  52.735  1.00  0.00    -0.222 NA
HETATM   12  C16 UNL     1      22.398   3.023  52.145  1.00  0.00     0.238 A 
HETATM   13  N5  UNL     1      22.396   3.664  50.964  1.00  0.00    -0.215 NA
HETATM   14  C17 UNL     1      23.521   4.015  50.332  1.00  0.00     0.202 A 
HETATM   15  O3  UNL     1      23.402   4.674  49.116  1.00  0.00    -0.289 OA
HETATM   16  H10 UNL     1      26.742   3.264  50.935  1.00  0.00     0.160 HD
ENDROOT
BRANCH  10  17
HETATM   17  N3  UNL     1      25.903   2.648  52.890  1.00  0.00    -0.339 N 
HETATM   18  H11 UNL     1      26.609   3.051  53.533  1.00  0.00     0.167 HD
BRANCH  17  19
HETATM   19  C11 UNL     1      26.427   1.304  52.837  1.00  0.00     0.031 A 
HETATM   20  C12 UNL     1      25.942   0.142  52.445  1.00  0.00     0.008 A 
HETATM   21  C13 UNL     1      26.938  -0.961  52.611  1.00  0.00     0.075 A 
HETATM   22  C14 UNL     1      28.118  -0.261  53.175  1.00  0.00    -0.006 A 
HETATM   23 BR1  UNL     1      29.761  -1.093  53.629  1.00  0.00    -0.055 Br
HETATM   24  C15 UNL     1      27.806   1.037  53.298  1.00  0.00     0.044 A 
ENDBRANCH  17  19
ENDBRANCH  10  17
BRANCH   1  25
HETATM   25  N1  UNL     1      26.519   8.761  46.957  1.00  0.00    -0.285 N 
HETATM   26  H4  UNL     1      26.655   8.602  45.915  1.00  0.00     0.178 HD
BRANCH  25  27
HETATM   27  S1  UNL     1      27.165  10.132  47.761  1.00  0.00     0.227 S 
HETATM   28  C1  UNL     1      27.862  11.323  46.645  1.00  0.00     0.186 C 
HETATM   29  O1  UNL     1      28.194   9.725  48.786  1.00  0.00    -0.206 OA
HETATM   30  O2  UNL     1      26.050  10.808  48.508  1.00  0.00    -0.206 OA
ENDBRANCH  25  27
ENDBRANCH   1  25
TORSDOF 4
ENDMDL
MODEL 9
REMARK VINA RESULT:      -7.6      5.619      7.721
REMARK  4 active torsions:
REMARK  status: ('A' for Active; 'I' for Inactive)
REMARK    1  A    between atoms: S1_2  and  N1_5 
REMARK    2  A    between atoms: N1_5  and  C2_6 
REMARK    3  A    between atoms: C10_15  and  N3_16 
REMARK    4  A    between atoms: N3_16  and  C11_17 
ROOT
HETATM    1  C2  UNL     1      25.989   0.075  52.853  1.00  0.00     0.043 A 
HETATM    2  C3  UNL     1      25.083  -0.680  53.566  1.00  0.00     0.033 A 
HETATM    3  C4  UNL     1      23.747  -0.352  53.699  1.00  0.00     0.040 A 
HETATM    4  C5  UNL     1      23.310   0.809  53.070  1.00  0.00     0.086 A 
HETATM    5  C6  UNL     1      24.147   1.626  52.337  1.00  0.00    -0.004 A 
HETATM    6  C7  UNL     1      25.484   1.230  52.247  1.00  0.00     0.041 A 
HETATM    7  C8  UNL     1      24.044   2.869  51.571  1.00  0.00     0.161 C 
HETATM    8  N2  UNL     1      22.707   3.314  51.313  1.00  0.00    -0.379 N 
HETATM    9  C9  UNL     1      21.455   2.686  51.497  1.00  0.00     0.129 A 
HETATM   10  C10 UNL     1      20.552   3.262  50.631  1.00  0.00     0.160 A 
HETATM   11  N4  UNL     1      19.294   2.799  50.656  1.00  0.00    -0.222 NA
HETATM   12  C16 UNL     1      18.926   1.813  51.493  1.00  0.00     0.238 A 
HETATM   13  N5  UNL     1      19.832   1.272  52.327  1.00  0.00    -0.215 NA
HETATM   14  C17 UNL     1      21.106   1.674  52.366  1.00  0.00     0.202 A 
HETATM   15  O3  UNL     1      21.956   1.046  53.267  1.00  0.00    -0.289 OA
HETATM   16  H10 UNL     1      22.667   4.277  50.920  1.00  0.00     0.160 HD
ENDROOT
BRANCH  10  17
HETATM   17  N3  UNL     1      20.817   4.301  49.702  1.00  0.00    -0.339 N 
HETATM   18  H11 UNL     1      20.894   5.334  49.662  1.00  0.00     0.167 HD
BRANCH  17  19
HETATM   19  C11 UNL     1      21.095   4.028  48.312  1.00  0.00     0.031 A 
HETATM   20  C12 UNL     1      22.172   3.666  47.644  1.00  0.00     0.008 A 
HETATM   21  C13 UNL     1      21.896   3.518  46.181  1.00  0.00     0.075 A 
HETATM   22  C14 UNL     1      20.455   3.854  46.079  1.00  0.00    -0.006 A 
HETATM   23 BR1  UNL     1      19.451   3.861  44.470  1.00  0.00    -0.055 Br
HETATM   24  C15 UNL     1      20.013   4.145  47.312  1.00  0.00     0.044 A 
ENDBRANCH  17  19
ENDBRANCH  10  17
BRANCH   1  25
HETATM   25  N1  UNL     1      27.342  -0.295  52.742  1.00  0.00    -0.285 N 
HETATM   26  H4  UNL     1      27.481  -0.950  51.917  1.00  0.00     0.178 HD
BRANCH  25  27
HETATM   27  S1  UNL     1      28.644   0.193  53.746  1.00  0.00     0.227 S 
HETATM   28  C1  UNL     1      28.852   1.954  53.801  1.00  0.00     0.186 C 
HETATM   29  O1  UNL     1      29.934  -0.464  53.320  1.00  0.00    -0.206 OA
HETATM   30  O2  UNL     1      28.359  -0.275  55.145  1.00  0.00    -0.206 OA
ENDBRANCH  25  27
ENDBRANCH   1  25
TORSDOF 4
ENDMDL
