MODEL 1
REMARK VINA RESULT:     -10.0      0.000      0.000
REMARK  6 active torsions:
REMARK  status: ('A' for Active; 'I' for Inactive)
REMARK       I    between atoms: N1_2  and  C2_3 
REMARK    1  A    between atoms: C2_3  and  C3_5 
REMARK    2  A    between atoms: C3_5  and  O2_6 
REMARK    3  A    between atoms: O2_6  and  C4_7 
REMARK    4  A    between atoms: C8_11  and  N2_12 
REMARK    5  A    between atoms: N2_12  and  C9_13 
REMARK    6  A    between atoms: C12_18  and  C13_19 
ROOT
HETATM    1  C9  UNL     1      23.113   2.454  51.613  1.00  0.00     0.727 A 
HETATM    2  N3  UNL     1      22.290   3.267  52.318  1.00  0.00    -0.072 NA
HETATM    3  C10 UNL     1      22.510   4.613  52.260  1.00  0.00     0.181 A 
HETATM    4  C11 UNL     1      23.548   5.134  51.502  1.00  0.00     0.164 A 
HETATM    5  F1  UNL     1      23.682   6.502  51.515  1.00  0.00    -0.202 F 
HETATM    6  C12 UNL     1      24.370   4.278  50.795  1.00  0.00     0.126 A 
HETATM    7  N5  UNL     1      24.104   2.955  50.889  1.00  0.00    -0.059 NA
ENDROOT
BRANCH   1   8
HETATM    8  N2  UNL     1      22.813   1.073  51.731  1.00  0.00    -0.188 N 
HETATM    9  H10 UNL     1      22.459   0.678  50.853  1.00  0.00     0.184 HD
BRANCH   8  10
HETATM   10  C8  UNL     1      22.969   0.292  52.908  1.00  0.00     0.052 A 
HETATM   11  C7  UNL     1      21.838  -0.190  53.523  1.00  0.00     0.030 A 
HETATM   12  C6  UNL     1      21.914  -0.965  54.669  1.00  0.00     0.005 A 
HETATM   13  C5  UNL     1      23.183  -1.208  55.133  1.00  0.00     0.037 A 
HETATM   14  C4  UNL     1      24.350  -0.766  54.578  1.00  0.00     0.071 A 
HETATM   15  C21 UNL     1      24.238   0.018  53.418  1.00  0.00     0.066 A 
BRANCH  14  16
HETATM   16  O2  UNL     1      25.678  -0.922  54.918  1.00  0.00    -0.342 OA
BRANCH  16  17
HETATM   17  C3  UNL     1      26.490   0.220  55.059  1.00  0.00     0.278 C 
BRANCH  17  18
HETATM   18  C2  UNL     1      27.861  -0.041  54.586  1.00  0.00     0.241 C 
HETATM   19  N1  UNL     1      28.575  -1.031  53.861  1.00  0.00    -0.364 N 
HETATM   20  C1  UNL     1      29.991  -0.838  53.626  1.00  0.00     0.149 C 
HETATM   21  H4  UNL     1      27.906  -1.787  53.616  1.00  0.00     0.161 HD
HETATM   22  O1  UNL     1      28.534   0.972  54.995  1.00  0.00    -0.271 OA
ENDBRANCH  17  18
ENDBRANCH  16  17
ENDBRANCH  14  16
ENDBRANCH   8  10
ENDBRANCH   1   8
BRANCH   6  23
HETATM   23  C13 UNL     1      25.436   4.860  50.027  1.00  0.00    -0.001 A 
HETATM   24  C14 UNL     1      26.437   4.009  49.540  1.00  0.00     0.014 A 
HETATM   25  C15 UNL     1      27.488   4.497  48.800  1.00  0.00     0.014 A 
HETATM   26  C16 UNL     1      27.567   5.854  48.525  1.00  0.00     0.011 A 
HETATM   27  C17 UNL     1      26.555   6.668  49.026  1.00  0.00     0.045 A 
HETATM   28  C20 UNL     1      28.573   6.614  47.767  1.00  0.00     0.297 A 
HETATM   29  C18 UNL     1      25.494   6.194  49.770  1.00  0.00     0.044 A 
HETATM   30  N4  UNL     1      26.840   8.005  48.627  1.00  0.00    -0.324 N 
HETATM   31  C19 UNL     1      28.052   8.014  47.865  1.00  0.00     0.261 A 
HETATM   32  H15 UNL     1      26.308   8.871  48.818  1.00  0.00     0.169 HD
HETATM   33  O3  UNL     1      28.638   8.975  47.340  1.00  0.00    -0.270 OA
HETATM   34  F2  UNL     1      29.808   6.638  48.387  1.00  0.00    -0.234 F 
ENDBRANCH   6  23
TORSDOF 6
ENDMDL
MODEL 2
REMARK VINA RESULT:      -9.8      2.002      2.443
REMARK  6 active torsions:
REMARK  status: ('A' for Active; 'I' for Inactive)
REMARK       I    between atoms: N1_2  and  C2_3 
REMARK    1  A    between atoms: C2_3  and  C3_5 
REMARK    2  A    between atoms: C3_5  and  O2_6 
REMARK    3  A    between atoms: O2_6  and  C4_7 
REMARK    4  A    between atoms: C8_11  and  N2_12 
REMARK    5  A    between atoms: N2_12  and  C9_13 
REMARK    6  A    between atoms: C12_18  and  C13_19 
ROOT
HETATM    1  C9  UNL     1      21.763   1.671  51.013  1.00  0.00     0.727 A 
HETATM    2  N3  UNL     1      21.223   0.950  50.002  1.00  0.00    -0.072 NA
HETATM    3  C10 UNL     1      21.604   1.247  48.725  1.00  0.00     0.181 A 
HETATM    4  C11 UNL     1      22.518   2.258  48.470  1.00  0.00     0.164 A 
HETATM    5  F1  UNL     1      22.832   2.474  47.149  1.00  0.00    -0.202 F 
HETATM    6  C12 UNL     1      23.051   2.975  49.525  1.00  0.00     0.126 A 
HETATM    7  N5  UNL     1      22.636   2.637  50.767  1.00  0.00    -0.059 NA
ENDROOT
BRANCH   1   8
HETATM    8  N2  UNL     1      21.310   1.297  52.304  1.00  0.00    -0.188 N 
HETATM    9  H10 UNL     1      20.405   1.723  52.535  1.00  0.00     0.184 HD
BRANCH   8  10
HETATM   10  C8  UNL     1      21.997   0.438  53.204  1.00  0.00     0.052 A 
HETATM   11  C7  UNL     1      21.258  -0.261  54.128  1.00  0.00     0.030 A 
HETATM   12  C6  UNL     1      21.861  -1.123  55.030  1.00  0.00     0.005 A 
HETATM   13  C5  UNL     1      23.227  -1.222  54.930  1.00  0.00     0.037 A 
HETATM   14  C4  UNL     1      24.026  -0.562  54.040  1.00  0.00     0.071 A 
HETATM   15  C21 UNL     1      23.385   0.305  53.141  1.00  0.00     0.066 A 
BRANCH  14  16
HETATM   16  O2  UNL     1      25.387  -0.554  53.817  1.00  0.00    -0.342 OA
BRANCH  16  17
HETATM   17  C3  UNL     1      26.221   0.175  54.686  1.00  0.00     0.278 C 
BRANCH  17  18
HETATM   18  C2  UNL     1      27.644  -0.086  54.399  1.00  0.00     0.241 C 
HETATM   19  N1  UNL     1      28.444  -1.050  53.733  1.00  0.00    -0.364 N 
HETATM   20  C1  UNL     1      29.881  -0.871  53.713  1.00  0.00     0.149 C 
HETATM   21  H4  UNL     1      27.809  -1.781  53.354  1.00  0.00     0.161 HD
HETATM   22  O1  UNL     1      28.261   0.892  54.954  1.00  0.00    -0.271 OA
ENDBRANCH  17  18
ENDBRANCH  16  17
ENDBRANCH  14  16
ENDBRANCH   8  10
ENDBRANCH   1   8
BRANCH   6  23
HETATM   23  C13 UNL     1      23.991   4.017  49.214  1.00  0.00    -0.001 A 
HETATM   24  C14 UNL     1      23.485   5.270  48.844  1.00  0.00     0.014 A 
HETATM   25  C15 UNL     1      24.324   6.312  48.531  1.00  0.00     0.014 A 
HETATM   26  C16 UNL     1      25.698   6.130  48.580  1.00  0.00     0.011 A 
HETATM   27  C17 UNL     1      26.164   4.872  48.951  1.00  0.00     0.045 A 
HETATM   28  C20 UNL     1      26.794   7.070  48.297  1.00  0.00     0.297 A 
HETATM   29  C18 UNL     1      25.334   3.816  49.268  1.00  0.00     0.044 A 
HETATM   30  N4  UNL     1      27.587   4.915  48.932  1.00  0.00    -0.324 N 
HETATM   31  C19 UNL     1      28.007   6.227  48.541  1.00  0.00     0.261 A 
HETATM   32  H15 UNL     1      28.267   4.167  49.150  1.00  0.00     0.169 HD
HETATM   33  O3  UNL     1      29.158   6.671  48.403  1.00  0.00    -0.270 OA
HETATM   34  F2  UNL     1      26.860   7.434  46.965  1.00  0.00    -0.234 F 
ENDBRANCH   6  23
TORSDOF 6
ENDMDL
MODEL 3
REMARK VINA RESULT:      -9.5      3.601      6.448
REMARK  6 active torsions:
REMARK  status: ('A' for Active; 'I' for Inactive)
REMARK       I    between atoms: N1_2  and  C2_3 
REMARK    1  A    between atoms: C2_3  and  C3_5 
REMARK    2  A    between atoms: C3_5  and  O2_6 
REMARK    3  A    between atoms: O2_6  and  C4_7 
REMARK    4  A    between atoms: C8_11  and  N2_12 
REMARK    5  A    between atoms: N2_12  and  C9_13 
REMARK    6  A    between atoms: C12_18  and  C13_19 
ROOT
HETATM    1  C9  UNL     1      23.476   4.018  51.504  1.00  0.00     0.727 A 
HETATM    2  N3  UNL     1      23.810   4.664  50.361  1.00  0.00    -0.072 NA
HETATM    3  C10 UNL     1      25.026   4.395  49.802  1.00  0.00     0.181 A 
HETATM    4  C11 UNL     1      25.895   3.487  50.387  1.00  0.00     0.164 A 
HETATM    5  F1  UNL     1      27.093   3.292  49.741  1.00  0.00    -0.202 F 
HETATM    6  C12 UNL     1      25.524   2.845  51.553  1.00  0.00     0.126 A 
HETATM    7  N5  UNL     1      24.308   3.150  52.061  1.00  0.00    -0.059 NA
ENDROOT
BRANCH   1   8
HETATM    8  N2  UNL     1      22.197   4.358  52.016  1.00  0.00    -0.188 N 
HETATM    9  H10 UNL     1      22.191   5.286  52.455  1.00  0.00     0.184 HD
BRANCH   8  10
HETATM   10  C8  UNL     1      21.038   3.540  51.951  1.00  0.00     0.052 A 
HETATM   11  C7  UNL     1      19.893   4.077  51.411  1.00  0.00     0.030 A 
HETATM   12  C6  UNL     1      18.728   3.334  51.307  1.00  0.00     0.005 A 
HETATM   13  C5  UNL     1      18.805   2.046  51.777  1.00  0.00     0.037 A 
HETATM   14  C4  UNL     1      19.902   1.445  52.323  1.00  0.00     0.071 A 
HETATM   15  C21 UNL     1      21.066   2.225  52.415  1.00  0.00     0.066 A 
BRANCH  14  16
HETATM   16  O2  UNL     1      20.135   0.184  52.831  1.00  0.00    -0.342 OA
BRANCH  16  17
HETATM   17  C3  UNL     1      20.412   0.037  54.204  1.00  0.00     0.278 C 
BRANCH  17  18
HETATM   18  C2  UNL     1      21.761  -0.518  54.418  1.00  0.00     0.241 C 
HETATM   19  N1  UNL     1      23.109  -0.214  54.094  1.00  0.00    -0.364 N 
HETATM   20  C1  UNL     1      24.155  -1.106  54.552  1.00  0.00     0.149 C 
HETATM   21  H4  UNL     1      23.110   0.659  53.531  1.00  0.00     0.161 HD
HETATM   22  O1  UNL     1      21.558  -1.585  55.100  1.00  0.00    -0.271 OA
ENDBRANCH  17  18
ENDBRANCH  16  17
ENDBRANCH  14  16
ENDBRANCH   8  10
ENDBRANCH   1   8
BRANCH   6  23
HETATM   23  C13 UNL     1      26.458   1.915  52.127  1.00  0.00    -0.001 A 
HETATM   24  C14 UNL     1      27.546   2.433  52.841  1.00  0.00     0.014 A 
HETATM   25  C15 UNL     1      28.480   1.604  53.415  1.00  0.00     0.014 A 
HETATM   26  C16 UNL     1      28.351   0.228  53.290  1.00  0.00     0.011 A 
HETATM   27  C17 UNL     1      27.258  -0.249  52.573  1.00  0.00     0.045 A 
HETATM   28  C20 UNL     1      29.200  -0.858  53.803  1.00  0.00     0.297 A 
HETATM   29  C18 UNL     1      26.312   0.570  51.992  1.00  0.00     0.044 A 
HETATM   30  N4  UNL     1      27.328  -1.671  52.575  1.00  0.00    -0.324 N 
HETATM   31  C19 UNL     1      28.489  -2.078  53.308  1.00  0.00     0.261 A 
HETATM   32  H15 UNL     1      26.687  -2.358  52.142  1.00  0.00     0.169 HD
HETATM   33  O3  UNL     1      28.905  -3.225  53.538  1.00  0.00    -0.270 OA
HETATM   34  F2  UNL     1      30.447  -0.892  53.208  1.00  0.00    -0.234 F 
ENDBRANCH   6  23
TORSDOF 6
ENDMDL
MODEL 4
REMARK VINA RESULT:      -9.5      3.912      7.080
REMARK  6 active torsions:
REMARK  status: ('A' for Active; 'I' for Inactive)
REMARK       I    between atoms: N1_2  and  C2_3 
REMARK    1  A    between atoms: C2_3  and  C3_5 
REMARK    2  A    between atoms: C3_5  and  O2_6 
REMARK    3  A    between atoms: O2_6  and  C4_7 
REMARK    4  A    between atoms: C8_11  and  N2_12 
REMARK    5  A    between atoms: N2_12  and  C9_13 
REMARK    6  A    between atoms: C12_18  and  C13_19 
ROOT
HETATM    1  C9  UNL     1      20.986  -0.136  52.567  1.00  0.00     0.727 A 
HETATM    2  N3  UNL     1      20.451  -0.789  53.626  1.00  0.00    -0.072 NA
HETATM    3  C10 UNL     1      21.289  -1.186  54.628  1.00  0.00     0.181 A 
HETATM    4  C11 UNL     1      22.650  -0.927  54.564  1.00  0.00     0.164 A 
HETATM    5  F1  UNL     1      23.402  -1.371  55.626  1.00  0.00    -0.202 F 
HETATM    6  C12 UNL     1      23.164  -0.259  53.470  1.00  0.00     0.126 A 
HETATM    7  N5  UNL     1      22.287   0.110  52.509  1.00  0.00    -0.059 NA
ENDROOT
BRANCH   1   8
HETATM    8  N2  UNL     1      20.045   0.237  51.573  1.00  0.00    -0.188 N 
HETATM    9  H10 UNL     1      19.824  -0.540  50.940  1.00  0.00     0.184 HD
BRANCH   8  10
HETATM   10  C8  UNL     1      19.455   1.522  51.436  1.00  0.00     0.052 A 
HETATM   11  C7  UNL     1      18.086   1.602  51.342  1.00  0.00     0.030 A 
HETATM   12  C6  UNL     1      17.442   2.823  51.215  1.00  0.00     0.005 A 
HETATM   13  C5  UNL     1      18.262   3.923  51.192  1.00  0.00     0.037 A 
HETATM   14  C4  UNL     1      19.625   3.922  51.281  1.00  0.00     0.071 A 
HETATM   15  C21 UNL     1      20.247   2.670  51.407  1.00  0.00     0.066 A 
BRANCH  14  16
HETATM   16  O2  UNL     1      20.574   4.924  51.273  1.00  0.00    -0.342 OA
BRANCH  16  17
HETATM   17  C3  UNL     1      21.789   4.724  51.955  1.00  0.00     0.278 C 
BRANCH  17  18
HETATM   18  C2  UNL     1      22.862   5.559  51.385  1.00  0.00     0.241 C 
HETATM   19  N1  UNL     1      24.044   6.223  51.808  1.00  0.00    -0.364 N 
HETATM   20  C1  UNL     1      24.818   6.959  50.830  1.00  0.00     0.149 C 
HETATM   21  H4  UNL     1      24.149   6.061  52.829  1.00  0.00     0.161 HD
HETATM   22  O1  UNL     1      22.553   5.666  50.145  1.00  0.00    -0.271 OA
ENDBRANCH  17  18
ENDBRANCH  16  17
ENDBRANCH  14  16
ENDBRANCH   8  10
ENDBRANCH   1   8
BRANCH   6  23
HETATM   23  C13 UNL     1      24.581  -0.016  53.443  1.00  0.00    -0.001 A 
HETATM   24  C14 UNL     1      25.423  -1.081  53.099  1.00  0.00     0.014 A 
HETATM   25  C15 UNL     1      26.788  -0.923  53.055  1.00  0.00     0.014 A 
HETATM   26  C16 UNL     1      27.350   0.308  53.356  1.00  0.00     0.011 A 
HETATM   27  C17 UNL     1      26.481   1.342  53.694  1.00  0.00     0.045 A 
HETATM   28  C20 UNL     1      28.759   0.731  53.381  1.00  0.00     0.297 A 
HETATM   29  C18 UNL     1      25.110   1.200  53.742  1.00  0.00     0.044 A 
HETATM   30  N4  UNL     1      27.270   2.498  53.960  1.00  0.00    -0.324 N 
HETATM   31  C19 UNL     1      28.652   2.169  53.782  1.00  0.00     0.261 A 
HETATM   32  H15 UNL     1      26.965   3.447  54.239  1.00  0.00     0.169 HD
HETATM   33  O3  UNL     1      29.651   2.893  53.918  1.00  0.00    -0.270 OA
HETATM   34  F2  UNL     1      29.485   0.122  54.387  1.00  0.00    -0.234 F 
ENDBRANCH   6  23
TORSDOF 6
ENDMDL
MODEL 5
REMARK VINA RESULT:      -9.4      3.488      6.976
REMARK  6 active torsions:
REMARK  status: ('A' for Active; 'I' for Inactive)
REMARK       I    between atoms: N1_2  and  C2_3 
REMARK    1  A    between atoms: C2_3  and  C3_5 
REMARK    2  A    between atoms: C3_5  and  O2_6 
REMARK    3  A    between atoms: O2_6  and  C4_7 
REMARK    4  A    between atoms: C8_11  and  N2_12 
REMARK    5  A    between atoms: N2_12  and  C9_13 
REMARK    6  A    between atoms: C12_18  and  C13_19 
ROOT
HETATM    1  C9  UNL     1      21.339   0.938  51.386  1.00  0.00     0.727 A 
HETATM    2  N3  UNL     1      20.474   0.350  52.246  1.00  0.00    -0.072 NA
HETATM    3  C10 UNL     1      20.978  -0.211  53.384  1.00  0.00     0.181 A 
HETATM    4  C11 UNL     1      22.339  -0.179  53.652  1.00  0.00     0.164 A 
HETATM    5  F1  UNL     1      22.740  -0.774  54.825  1.00  0.00    -0.202 F 
HETATM    6  C12 UNL     1      23.195   0.428  52.754  1.00  0.00     0.126 A 
HETATM    7  N5  UNL     1      22.638   0.966  51.645  1.00  0.00    -0.059 NA
ENDROOT
BRANCH   1   8
HETATM    8  N2  UNL     1      20.730   1.491  50.231  1.00  0.00    -0.188 N 
HETATM    9  H10 UNL     1      19.779   1.132  50.086  1.00  0.00     0.184 HD
BRANCH   8  10
HETATM   10  C8  UNL     1      21.330   2.433  49.352  1.00  0.00     0.052 A 
HETATM   11  C7  UNL     1      21.351   2.146  48.008  1.00  0.00     0.030 A 
HETATM   12  C6  UNL     1      21.912   3.022  47.092  1.00  0.00     0.005 A 
HETATM   13  C5  UNL     1      22.434   4.175  47.622  1.00  0.00     0.037 A 
HETATM   14  C4  UNL     1      22.449   4.529  48.941  1.00  0.00     0.071 A 
HETATM   15  C21 UNL     1      21.874   3.620  49.843  1.00  0.00     0.066 A 
BRANCH  14  16
HETATM   16  O2  UNL     1      22.926   5.632  49.619  1.00  0.00    -0.342 OA
BRANCH  16  17
HETATM   17  C3  UNL     1      23.906   5.455  50.615  1.00  0.00     0.278 C 
BRANCH  17  18
HETATM   18  C2  UNL     1      25.202   5.076  50.023  1.00  0.00     0.241 C 
HETATM   19  N1  UNL     1      26.123   5.562  49.058  1.00  0.00    -0.364 N 
HETATM   20  C1  UNL     1      27.331   4.804  48.804  1.00  0.00     0.149 C 
HETATM   21  H4  UNL     1      25.735   6.442  48.665  1.00  0.00     0.161 HD
HETATM   22  O1  UNL     1      25.505   3.975  50.607  1.00  0.00    -0.271 OA
ENDBRANCH  17  18
ENDBRANCH  16  17
ENDBRANCH  14  16
ENDBRANCH   8  10
ENDBRANCH   1   8
BRANCH   6  23
HETATM   23  C13 UNL     1      24.597   0.433  53.069  1.00  0.00    -0.001 A 
HETATM   24  C14 UNL     1      25.294  -0.779  52.986  1.00  0.00     0.014 A 
HETATM   25  C15 UNL     1      26.636  -0.850  53.276  1.00  0.00     0.014 A 
HETATM   26  C16 UNL     1      27.321   0.294  53.658  1.00  0.00     0.011 A 
HETATM   27  C17 UNL     1      26.595   1.479  53.730  1.00  0.00     0.045 A 
HETATM   28  C20 UNL     1      28.735   0.482  54.015  1.00  0.00     0.297 A 
HETATM   29  C18 UNL     1      25.248   1.567  53.443  1.00  0.00     0.044 A 
HETATM   30  N4  UNL     1      27.490   2.509  54.138  1.00  0.00    -0.324 N 
HETATM   31  C19 UNL     1      28.794   1.946  54.321  1.00  0.00     0.261 A 
HETATM   32  H15 UNL     1      27.302   3.514  54.295  1.00  0.00     0.169 HD
HETATM   33  O3  UNL     1      29.845   2.506  54.672  1.00  0.00    -0.270 OA
HETATM   34  F2  UNL     1      29.082  -0.154  55.192  1.00  0.00    -0.234 F 
ENDBRANCH   6  23
TORSDOF 6
ENDMDL
MODEL 6
REMARK VINA RESULT:      -9.4      3.276      8.357
REMARK  6 active torsions:
REMARK  status: ('A' for Active; 'I' for Inactive)
REMARK       I    between atoms: N1_2  and  C2_3 
REMARK    1  A    between atoms: C2_3  and  C3_5 
REMARK    2  A    between atoms: C3_5  and  O2_6 
REMARK    3  A    between atoms: O2_6  and  C4_7 
REMARK    4  A    between atoms: C8_11  and  N2_12 
REMARK    5  A    between atoms: N2_12  and  C9_13 
REMARK    6  A    between atoms: C12_18  and  C13_19 
ROOT
HETATM    1  C9  UNL     1      24.981   4.529  50.066  1.00  0.00     0.727 A 
HETATM    2  N3  UNL     1      23.804   4.758  50.696  1.00  0.00    -0.072 NA
HETATM    3  C10 UNL     1      23.534   4.051  51.833  1.00  0.00     0.181 A 
HETATM    4  C11 UNL     1      24.438   3.123  52.327  1.00  0.00     0.164 A 
HETATM    5  F1  UNL     1      24.067   2.467  53.477  1.00  0.00    -0.202 F 
HETATM    6  C12 UNL     1      25.630   2.913  51.660  1.00  0.00     0.126 A 
HETATM    7  N5  UNL     1      25.843   3.642  50.541  1.00  0.00    -0.059 NA
ENDROOT
BRANCH   1   8
HETATM    8  N2  UNL     1      25.177   5.305  48.895  1.00  0.00    -0.188 N 
HETATM    9  H10 UNL     1      24.329   5.357  48.319  1.00  0.00     0.184 HD
BRANCH   8  10
HETATM   10  C8  UNL     1      26.389   5.949  48.525  1.00  0.00     0.052 A 
HETATM   11  C7  UNL     1      26.333   7.269  48.148  1.00  0.00     0.030 A 
HETATM   12  C6  UNL     1      27.476   7.964  47.783  1.00  0.00     0.005 A 
HETATM   13  C5  UNL     1      28.644   7.244  47.829  1.00  0.00     0.037 A 
HETATM   14  C4  UNL     1      28.777   5.934  48.193  1.00  0.00     0.071 A 
HETATM   15  C21 UNL     1      27.601   5.259  48.555  1.00  0.00     0.066 A 
BRANCH  14  16
HETATM   16  O2  UNL     1      29.860   5.085  48.289  1.00  0.00    -0.342 OA
BRANCH  16  17
HETATM   17  C3  UNL     1      31.061   5.563  48.846  1.00  0.00     0.278 C 
BRANCH  17  18
HETATM   18  C2  UNL     1      32.091   5.750  47.807  1.00  0.00     0.241 C 
HETATM   19  N1  UNL     1      32.176   6.069  46.426  1.00  0.00    -0.364 N 
HETATM   20  C1  UNL     1      33.483   6.146  45.807  1.00  0.00     0.149 C 
HETATM   21  H4  UNL     1      31.207   6.191  46.070  1.00  0.00     0.161 HD
HETATM   22  O1  UNL     1      33.198   5.541  48.420  1.00  0.00    -0.271 OA
ENDBRANCH  17  18
ENDBRANCH  16  17
ENDBRANCH  14  16
ENDBRANCH   8  10
ENDBRANCH   1   8
BRANCH   6  23
HETATM   23  C13 UNL     1      26.536   1.939  52.205  1.00  0.00    -0.001 A 
HETATM   24  C14 UNL     1      27.649   2.404  52.917  1.00  0.00     0.014 A 
HETATM   25  C15 UNL     1      28.559   1.531  53.465  1.00  0.00     0.014 A 
HETATM   26  C16 UNL     1      28.380   0.164  53.315  1.00  0.00     0.011 A 
HETATM   27  C17 UNL     1      27.263  -0.260  52.601  1.00  0.00     0.045 A 
HETATM   28  C20 UNL     1      29.195  -0.962  53.797  1.00  0.00     0.297 A 
HETATM   29  C18 UNL     1      26.341   0.603  52.045  1.00  0.00     0.044 A 
HETATM   30  N4  UNL     1      27.283  -1.684  52.574  1.00  0.00    -0.324 N 
HETATM   31  C19 UNL     1      28.436  -2.146  53.286  1.00  0.00     0.261 A 
HETATM   32  H15 UNL     1      26.613  -2.339  52.135  1.00  0.00     0.169 HD
HETATM   33  O3  UNL     1      28.813  -3.311  53.489  1.00  0.00    -0.270 OA
HETATM   34  F2  UNL     1      30.434  -1.028  53.187  1.00  0.00    -0.234 F 
ENDBRANCH   6  23
TORSDOF 6
ENDMDL
MODEL 7
REMARK VINA RESULT:      -9.2      1.851      2.241
REMARK  6 active torsions:
REMARK  status: ('A' for Active; 'I' for Inactive)
REMARK       I    between atoms: N1_2  and  C2_3 
REMARK    1  A    between atoms: C2_3  and  C3_5 
REMARK    2  A    between atoms: C3_5  and  O2_6 
REMARK    3  A    between atoms: O2_6  and  C4_7 
REMARK    4  A    between atoms: C8_11  and  N2_12 
REMARK    5  A    between atoms: N2_12  and  C9_13 
REMARK    6  A    between atoms: C12_18  and  C13_19 
ROOT
HETATM    1  C9  UNL     1      22.967   3.751  51.108  1.00  0.00     0.727 A 
HETATM    2  N3  UNL     1      21.881   3.663  50.303  1.00  0.00    -0.072 NA
HETATM    3  C10 UNL     1      21.967   4.192  49.047  1.00  0.00     0.181 A 
HETATM    4  C11 UNL     1      23.133   4.802  48.608  1.00  0.00     0.164 A 
HETATM    5  F1  UNL     1      23.111   5.302  47.327  1.00  0.00    -0.202 F 
HETATM    6  C12 UNL     1      24.223   4.875  49.455  1.00  0.00     0.126 A 
HETATM    7  N5  UNL     1      24.079   4.334  50.686  1.00  0.00    -0.059 NA
ENDROOT
BRANCH   1   8
HETATM    8  N2  UNL     1      22.789   3.178  52.394  1.00  0.00    -0.188 N 
HETATM    9  H10 UNL     1      22.634   3.891  53.116  1.00  0.00     0.184 HD
BRANCH   8  10
HETATM   10  C8  UNL     1      22.817   1.789  52.689  1.00  0.00     0.052 A 
HETATM   11  C7  UNL     1      21.630   1.096  52.665  1.00  0.00     0.030 A 
HETATM   12  C6  UNL     1      21.582  -0.263  52.934  1.00  0.00     0.005 A 
HETATM   13  C5  UNL     1      22.790  -0.850  53.220  1.00  0.00     0.037 A 
HETATM   14  C4  UNL     1      24.006  -0.230  53.261  1.00  0.00     0.071 A 
HETATM   15  C21 UNL     1      24.019   1.147  52.985  1.00  0.00     0.066 A 
BRANCH  14  16
HETATM   16  O2  UNL     1      25.285  -0.672  53.527  1.00  0.00    -0.342 OA
BRANCH  16  17
HETATM   17  C3  UNL     1      26.204   0.206  54.133  1.00  0.00     0.278 C 
BRANCH  17  18
HETATM   18  C2  UNL     1      27.592  -0.218  53.877  1.00  0.00     0.241 C 
HETATM   19  N1  UNL     1      28.898   0.337  53.864  1.00  0.00    -0.364 N 
HETATM   20  C1  UNL     1      30.019  -0.521  53.540  1.00  0.00     0.149 C 
HETATM   21  H4  UNL     1      28.815   1.346  54.098  1.00  0.00     0.161 HD
HETATM   22  O1  UNL     1      27.493  -1.465  53.589  1.00  0.00    -0.271 OA
ENDBRANCH  17  18
ENDBRANCH  16  17
ENDBRANCH  14  16
ENDBRANCH   8  10
ENDBRANCH   1   8
BRANCH   6  23
HETATM   23  C13 UNL     1      25.408   5.520  48.960  1.00  0.00    -0.001 A 
HETATM   24  C14 UNL     1      25.291   6.829  48.477  1.00  0.00     0.014 A 
HETATM   25  C15 UNL     1      26.381   7.507  47.986  1.00  0.00     0.014 A 
HETATM   26  C16 UNL     1      27.624   6.892  47.964  1.00  0.00     0.011 A 
HETATM   27  C17 UNL     1      27.701   5.590  48.452  1.00  0.00     0.045 A 
HETATM   28  C20 UNL     1      28.927   7.392  47.499  1.00  0.00     0.297 A 
HETATM   29  C18 UNL     1      26.616   4.897  48.948  1.00  0.00     0.044 A 
HETATM   30  N4  UNL     1      29.055   5.165  48.333  1.00  0.00    -0.324 N 
HETATM   31  C19 UNL     1      29.827   6.226  47.761  1.00  0.00     0.261 A 
HETATM   32  H15 UNL     1      29.481   4.259  48.595  1.00  0.00     0.169 HD
HETATM   33  O3  UNL     1      31.040   6.254  47.495  1.00  0.00    -0.270 OA
HETATM   34  F2  UNL     1      28.969   7.590  46.131  1.00  0.00    -0.234 F 
ENDBRANCH   6  23
TORSDOF 6
ENDMDL
MODEL 8
REMARK VINA RESULT:      -9.2      1.985      2.676
REMARK  6 active torsions:
REMARK  status: ('A' for Active; 'I' for Inactive)
REMARK       I    between atoms: N1_2  and  C2_3 
REMARK    1  A    between atoms: C2_3  and  C3_5 
REMARK    2  A    between atoms: C3_5  and  O2_6 
REMARK    3  A    between atoms: O2_6  and  C4_7 
REMARK    4  A    between atoms: C8_11  and  N2_12 
REMARK    5  A    between atoms: N2_12  and  C9_13 
REMARK    6  A    between atoms: C12_18  and  C13_19 
ROOT
HETATM    1  C9  UNL     1      23.423   4.981  50.795  1.00  0.00     0.727 A 
HETATM    2  N3  UNL     1      22.460   5.060  49.845  1.00  0.00    -0.072 NA
HETATM    3  C10 UNL     1      22.757   5.711  48.682  1.00  0.00     0.181 A 
HETATM    4  C11 UNL     1      24.008   6.276  48.480  1.00  0.00     0.164 A 
HETATM    5  F1  UNL     1      24.200   6.909  47.274  1.00  0.00    -0.202 F 
HETATM    6  C12 UNL     1      24.967   6.178  49.470  1.00  0.00     0.126 A 
HETATM    7  N5  UNL     1      24.616   5.521  50.599  1.00  0.00    -0.059 NA
ENDROOT
BRANCH   1   8
HETATM    8  N2  UNL     1      23.028   4.290  51.970  1.00  0.00    -0.188 N 
HETATM    9  H10 UNL     1      22.315   4.804  52.499  1.00  0.00     0.184 HD
BRANCH   8  10
HETATM   10  C8  UNL     1      23.536   3.034  52.398  1.00  0.00     0.052 A 
HETATM   11  C7  UNL     1      22.844   1.899  52.047  1.00  0.00     0.030 A 
HETATM   12  C6  UNL     1      23.285   0.640  52.422  1.00  0.00     0.005 A 
HETATM   13  C5  UNL     1      24.444   0.616  53.157  1.00  0.00     0.037 A 
HETATM   14  C4  UNL     1      25.185   1.697  53.542  1.00  0.00     0.071 A 
HETATM   15  C21 UNL     1      24.710   2.958  53.147  1.00  0.00     0.066 A 
BRANCH  14  16
HETATM   16  O2  UNL     1      26.350   1.836  54.267  1.00  0.00    -0.342 OA
BRANCH  16  17
HETATM   17  C3  UNL     1      27.567   2.024  53.583  1.00  0.00     0.278 C 
BRANCH  17  18
HETATM   18  C2  UNL     1      28.388   0.800  53.613  1.00  0.00     0.241 C 
HETATM   19  N1  UNL     1      28.317  -0.550  53.179  1.00  0.00    -0.364 N 
HETATM   20  C1  UNL     1      29.436  -1.429  53.448  1.00  0.00     0.149 C 
HETATM   21  H4  UNL     1      27.396  -0.685  52.716  1.00  0.00     0.161 HD
HETATM   22  O1  UNL     1      29.456   1.152  54.231  1.00  0.00    -0.271 OA
ENDBRANCH  17  18
ENDBRANCH  16  17
ENDBRANCH  14  16
ENDBRANCH   8  10
ENDBRANCH   1   8
BRANCH   6  23
HETATM   23  C13 UNL     1      26.247   6.781  49.219  1.00  0.00    -0.001 A 
HETATM   24  C14 UNL     1      27.162   6.075  48.428  1.00  0.00     0.014 A 
HETATM   25  C15 UNL     1      28.406   6.588  48.149  1.00  0.00     0.014 A 
HETATM   26  C16 UNL     1      28.771   7.827  48.655  1.00  0.00     0.011 A 
HETATM   27  C17 UNL     1      27.835   8.499  49.437  1.00  0.00     0.045 A 
HETATM   28  C20 UNL     1      30.022   8.587  48.504  1.00  0.00     0.297 A 
HETATM   29  C18 UNL     1      26.583   7.997  49.726  1.00  0.00     0.044 A 
HETATM   30  N4  UNL     1      28.419   9.732  49.843  1.00  0.00    -0.324 N 
HETATM   31  C19 UNL     1      29.741   9.823  49.300  1.00  0.00     0.261 A 
HETATM   32  H15 UNL     1      28.017  10.484  50.430  1.00  0.00     0.169 HD
HETATM   33  O3  UNL     1      30.575  10.735  49.421  1.00  0.00    -0.270 OA
HETATM   34  F2  UNL     1      31.096   7.983  49.131  1.00  0.00    -0.234 F 
ENDBRANCH   6  23
TORSDOF 6
ENDMDL
MODEL 9
REMARK VINA RESULT:      -9.2      3.095      9.025
REMARK  6 active torsions:
REMARK  status: ('A' for Active; 'I' for Inactive)
REMARK       I    between atoms: N1_2  and  C2_3 
REMARK    1  A    between atoms: C2_3  and  C3_5 
REMARK    2  A    between atoms: C3_5  and  O2_6 
REMARK    3  A    between atoms: O2_6  and  C4_7 
REMARK    4  A    between atoms: C8_11  and  N2_12 
REMARK    5  A    between atoms: N2_12  and  C9_13 
REMARK    6  A    between atoms: C12_18  and  C13_19 
ROOT
HETATM    1  C9  UNL     1      24.839   4.454  50.038  1.00  0.00     0.727 A 
HETATM    2  N3  UNL     1      23.516   4.253  50.249  1.00  0.00    -0.072 NA
HETATM    3  C10 UNL     1      23.144   3.218  51.059  1.00  0.00     0.181 A 
HETATM    4  C11 UNL     1      24.093   2.397  51.648  1.00  0.00     0.164 A 
HETATM    5  F1  UNL     1      23.610   1.385  52.444  1.00  0.00    -0.202 F 
HETATM    6  C12 UNL     1      25.435   2.629  51.412  1.00  0.00     0.126 A 
HETATM    7  N5  UNL     1      25.743   3.668  50.603  1.00  0.00    -0.059 NA
ENDROOT
BRANCH   1   8
HETATM    8  N2  UNL     1      25.134   5.548  49.184  1.00  0.00    -0.188 N 
HETATM    9  H10 UNL     1      24.287   6.042  48.882  1.00  0.00     0.184 HD
BRANCH   8  10
HETATM   10  C8  UNL     1      26.435   5.945  48.772  1.00  0.00     0.052 A 
HETATM   11  C7  UNL     1      27.403   4.977  48.655  1.00  0.00     0.030 A 
HETATM   12  C6  UNL     1      28.691   5.291  48.250  1.00  0.00     0.005 A 
HETATM   13  C5  UNL     1      28.918   6.617  47.980  1.00  0.00     0.037 A 
HETATM   14  C4  UNL     1      28.009   7.632  48.072  1.00  0.00     0.071 A 
HETATM   15  C21 UNL     1      26.714   7.282  48.486  1.00  0.00     0.066 A 
BRANCH  14  16
HETATM   16  O2  UNL     1      28.080   8.990  47.839  1.00  0.00    -0.342 OA
BRANCH  16  17
HETATM   17  C3  UNL     1      27.778   9.883  48.885  1.00  0.00     0.278 C 
BRANCH  17  18
HETATM   18  C2  UNL     1      28.734  11.005  48.918  1.00  0.00     0.241 C 
HETATM   19  N1  UNL     1      30.064  11.269  49.340  1.00  0.00    -0.364 N 
HETATM   20  C1  UNL     1      30.604  12.600  49.153  1.00  0.00     0.149 C 
HETATM   21  H4  UNL     1      30.444  10.394  49.752  1.00  0.00     0.161 HD
HETATM   22  O1  UNL     1      28.089  11.984  48.397  1.00  0.00    -0.271 OA
ENDBRANCH  17  18
ENDBRANCH  16  17
ENDBRANCH  14  16
ENDBRANCH   8  10
ENDBRANCH   1   8
BRANCH   6  23
HETATM   23  C13 UNL     1      26.384   1.751  52.040  1.00  0.00    -0.001 A 
HETATM   24  C14 UNL     1      27.406   2.327  52.805  1.00  0.00     0.014 A 
HETATM   25  C15 UNL     1      28.350   1.549  53.432  1.00  0.00     0.014 A 
HETATM   26  C16 UNL     1      28.298   0.169  53.310  1.00  0.00     0.011 A 
HETATM   27  C17 UNL     1      27.269  -0.367  52.542  1.00  0.00     0.045 A 
HETATM   28  C20 UNL     1      29.174  -0.871  53.874  1.00  0.00     0.297 A 
HETATM   29  C18 UNL     1      26.314   0.400  51.906  1.00  0.00     0.044 A 
HETATM   30  N4  UNL     1      27.411  -1.784  52.557  1.00  0.00    -0.324 N 
HETATM   31  C19 UNL     1      28.552  -2.128  53.351  1.00  0.00     0.261 A 
HETATM   32  H15 UNL     1      26.829  -2.504  52.097  1.00  0.00     0.169 HD
HETATM   33  O3  UNL     1      29.014  -3.251  53.610  1.00  0.00    -0.270 OA
HETATM   34  F2  UNL     1      30.450  -0.843  53.343  1.00  0.00    -0.234 F 
ENDBRANCH   6  23
TORSDOF 6
ENDMDL
