MODEL 1
REMARK VINA RESULT:      -9.4      0.000      0.000
REMARK  3 active torsions:
REMARK  status: ('A' for Active; 'I' for Inactive)
REMARK    1  A    between atoms: C10_11  and  O1_12 
REMARK    2  A    between atoms: O1_12  and  C11_13 
REMARK    3  A    between atoms: C11_13  and  C12_14 
ROOT
HETATM    1  F1  UNL     1      23.125  -2.017  55.851  1.00  0.00    -0.206 F 
HETATM    2  C1  UNL     1      22.821  -1.251  54.786  1.00  0.00     0.117 A 
HETATM    3  C2  UNL     1      21.500  -1.269  54.334  1.00  0.00     0.044 A 
HETATM    4  C3  UNL     1      21.026  -0.544  53.260  1.00  0.00     0.035 A 
HETATM    5  C4  UNL     1      21.961   0.253  52.603  1.00  0.00     0.059 A 
HETATM    6  C5  UNL     1      23.268   0.292  53.026  1.00  0.00     0.010 A 
HETATM    7  C6  UNL     1      23.698  -0.442  54.096  1.00  0.00     0.057 A 
HETATM    8  C7  UNL     1      24.168   1.147  52.286  1.00  0.00     0.041 A 
HETATM    9  C8  UNL     1      23.677   1.861  51.220  1.00  0.00     0.065 A 
HETATM   10  C9  UNL     1      24.506   2.696  50.479  1.00  0.00     0.071 A 
HETATM   11  C10 UNL     1      25.825   2.763  50.870  1.00  0.00     0.107 A 
HETATM   12  C16 UNL     1      26.350   2.052  51.944  1.00  0.00     0.136 A 
HETATM   13  C17 UNL     1      25.485   1.239  52.645  1.00  0.00     0.118 A 
HETATM   14  O3  UNL     1      26.107   0.586  53.681  1.00  0.00    -0.345 OA
HETATM   15  C18 UNL     1      27.482   0.450  53.881  1.00  0.00     0.202 C 
HETATM   16  C19 UNL     1      28.077   1.839  53.648  1.00  0.00     0.202 C 
HETATM   17  O4  UNL     1      27.709   2.161  52.298  1.00  0.00    -0.344 OA
HETATM   18  N1  UNL     1      22.328   1.816  50.790  1.00  0.00    -0.299 N 
HETATM   19  N2  UNL     1      21.454   0.993  51.500  1.00  0.00    -0.300 N 
HETATM   20  H18 UNL     1      21.975   2.359  49.987  1.00  0.00     0.187 HD
HETATM   21  H19 UNL     1      20.464   0.948  51.200  1.00  0.00     0.187 HD
ENDROOT
BRANCH  11  22
HETATM   22  O1  UNL     1      26.670   3.597  50.138  1.00  0.00    -0.346 OA
BRANCH  22  23
HETATM   23  C11 UNL     1      26.296   4.878  49.724  1.00  0.00     0.207 C 
BRANCH  23  24
HETATM   24  C12 UNL     1      27.105   5.301  48.516  1.00  0.00     0.145 C 
HETATM   25  C13 UNL     1      27.275   6.796  48.478  1.00  0.00     0.036 C 
HETATM   26  C14 UNL     1      28.605   6.929  47.746  1.00  0.00     0.029 C 
HETATM   27  C15 UNL     1      29.298   5.673  48.180  1.00  0.00     0.168 C 
HETATM   28  O2  UNL     1      28.372   4.745  48.561  1.00  0.00    -0.384 OA
ENDBRANCH  23  24
ENDBRANCH  22  23
ENDBRANCH  11  22
TORSDOF 3
ENDMDL
MODEL 2
REMARK VINA RESULT:      -9.1      3.703      5.678
REMARK  3 active torsions:
REMARK  status: ('A' for Active; 'I' for Inactive)
REMARK    1  A    between atoms: C10_11  and  O1_12 
REMARK    2  A    between atoms: O1_12  and  C11_13 
REMARK    3  A    between atoms: C11_13  and  C12_14 
ROOT
HETATM    1  F1  UNL     1      16.997   0.918  50.508  1.00  0.00    -0.206 F 
HETATM    2  C1  UNL     1      17.859   0.366  51.382  1.00  0.00     0.117 A 
HETATM    3  C2  UNL     1      17.347  -0.556  52.299  1.00  0.00     0.044 A 
HETATM    4  C3  UNL     1      18.094  -1.209  53.257  1.00  0.00     0.035 A 
HETATM    5  C4  UNL     1      19.453  -0.905  53.283  1.00  0.00     0.059 A 
HETATM    6  C5  UNL     1      19.986  -0.003  52.393  1.00  0.00     0.010 A 
HETATM    7  C6  UNL     1      19.211   0.625  51.457  1.00  0.00     0.057 A 
HETATM    8  C7  UNL     1      21.404   0.252  52.492  1.00  0.00     0.041 A 
HETATM    9  C8  UNL     1      22.130  -0.410  53.452  1.00  0.00     0.065 A 
HETATM   10  C9  UNL     1      23.498  -0.196  53.585  1.00  0.00     0.071 A 
HETATM   11  C10 UNL     1      24.071   0.701  52.712  1.00  0.00     0.107 A 
HETATM   12  C16 UNL     1      23.362   1.385  51.730  1.00  0.00     0.136 A 
HETATM   13  C17 UNL     1      22.009   1.137  51.642  1.00  0.00     0.118 A 
HETATM   14  O3  UNL     1      21.409   1.863  50.642  1.00  0.00    -0.345 OA
HETATM   15  C18 UNL     1      21.945   2.961  49.967  1.00  0.00     0.202 C 
HETATM   16  C19 UNL     1      23.377   2.568  49.601  1.00  0.00     0.202 C 
HETATM   17  O4  UNL     1      24.002   2.292  50.864  1.00  0.00    -0.344 OA
HETATM   18  N1  UNL     1      21.575  -1.338  54.367  1.00  0.00    -0.299 N 
HETATM   19  N2  UNL     1      20.206  -1.589  54.276  1.00  0.00    -0.300 N 
HETATM   20  H18 UNL     1      22.134  -1.827  55.082  1.00  0.00     0.187 HD
HETATM   21  H19 UNL     1      19.782  -2.265  54.936  1.00  0.00     0.187 HD
ENDROOT
BRANCH  11  22
HETATM   22  O1  UNL     1      25.443   0.927  52.830  1.00  0.00    -0.346 OA
BRANCH  22  23
HETATM   23  C11 UNL     1      26.051   1.269  54.041  1.00  0.00     0.207 C 
BRANCH  23  24
HETATM   24  C12 UNL     1      27.155   0.288  54.374  1.00  0.00     0.145 C 
HETATM   25  C13 UNL     1      27.493  -0.569  53.183  1.00  0.00     0.036 C 
HETATM   26  C14 UNL     1      28.960  -0.883  53.446  1.00  0.00     0.029 C 
HETATM   27  C15 UNL     1      29.395   0.356  54.170  1.00  0.00     0.168 C 
HETATM   28  O2  UNL     1      28.310   0.961  54.736  1.00  0.00    -0.384 OA
ENDBRANCH  23  24
ENDBRANCH  22  23
ENDBRANCH  11  22
TORSDOF 3
ENDMDL
MODEL 3
REMARK VINA RESULT:      -8.8      3.422      7.412
REMARK  3 active torsions:
REMARK  status: ('A' for Active; 'I' for Inactive)
REMARK    1  A    between atoms: C10_11  and  O1_12 
REMARK    2  A    between atoms: O1_12  and  C11_13 
REMARK    3  A    between atoms: C11_13  and  C12_14 
ROOT
HETATM    1  F1  UNL     1      29.370   2.976  53.415  1.00  0.00    -0.206 F 
HETATM    2  C1  UNL     1      28.396   2.087  53.686  1.00  0.00     0.117 A 
HETATM    3  C2  UNL     1      28.694   1.053  54.576  1.00  0.00     0.044 A 
HETATM    4  C3  UNL     1      27.811   0.064  54.958  1.00  0.00     0.035 A 
HETATM    5  C4  UNL     1      26.538   0.134  54.396  1.00  0.00     0.059 A 
HETATM    6  C5  UNL     1      26.215   1.141  53.518  1.00  0.00     0.010 A 
HETATM    7  C6  UNL     1      27.120   2.102  53.164  1.00  0.00     0.057 A 
HETATM    8  C7  UNL     1      24.872   1.135  52.985  1.00  0.00     0.041 A 
HETATM    9  C8  UNL     1      24.007   0.143  53.378  1.00  0.00     0.065 A 
HETATM   10  C9  UNL     1      22.705   0.097  52.891  1.00  0.00     0.071 A 
HETATM   11  C10 UNL     1      22.341   1.089  52.007  1.00  0.00     0.107 A 
HETATM   12  C16 UNL     1      23.194   2.105  51.591  1.00  0.00     0.136 A 
HETATM   13  C17 UNL     1      24.474   2.104  52.104  1.00  0.00     0.118 A 
HETATM   14  O3  UNL     1      25.228   3.148  51.628  1.00  0.00    -0.345 OA
HETATM   15  C18 UNL     1      24.935   3.963  50.533  1.00  0.00     0.202 C 
HETATM   16  C19 UNL     1      23.463   4.349  50.683  1.00  0.00     0.202 C 
HETATM   17  O4  UNL     1      22.766   3.093  50.684  1.00  0.00    -0.344 OA
HETATM   18  N1  UNL     1      24.347  -0.892  54.284  1.00  0.00    -0.299 N 
HETATM   19  N2  UNL     1      25.642  -0.893  54.802  1.00  0.00    -0.300 N 
HETATM   20  H18 UNL     1      23.686  -1.630  54.569  1.00  0.00     0.187 HD
HETATM   21  H19 UNL     1      25.909  -1.641  55.466  1.00  0.00     0.187 HD
ENDROOT
BRANCH  11  22
HETATM   22  O1  UNL     1      21.039   1.058  51.509  1.00  0.00    -0.346 OA
BRANCH  22  23
HETATM   23  C11 UNL     1      19.912   1.112  52.335  1.00  0.00     0.207 C 
BRANCH  23  24
HETATM   24  C12 UNL     1      19.094  -0.154  52.196  1.00  0.00     0.145 C 
HETATM   25  C13 UNL     1      19.151  -0.974  53.457  1.00  0.00     0.036 C 
HETATM   26  C14 UNL     1      17.809  -1.693  53.410  1.00  0.00     0.029 C 
HETATM   27  C15 UNL     1      16.965  -0.679  52.699  1.00  0.00     0.168 C 
HETATM   28  O2  UNL     1      17.763   0.151  51.965  1.00  0.00    -0.384 OA
ENDBRANCH  23  24
ENDBRANCH  22  23
ENDBRANCH  11  22
TORSDOF 3
ENDMDL
MODEL 4
REMARK VINA RESULT:      -8.7      2.141      3.238
REMARK  3 active torsions:
REMARK  status: ('A' for Active; 'I' for Inactive)
REMARK    1  A    between atoms: C10_11  and  O1_12 
REMARK    2  A    between atoms: O1_12  and  C11_13 
REMARK    3  A    between atoms: C11_13  and  C12_14 
ROOT
HETATM    1  F1  UNL     1      20.668  -1.200  54.664  1.00  0.00    -0.206 F 
HETATM    2  C1  UNL     1      21.988  -0.963  54.540  1.00  0.00     0.117 A 
HETATM    3  C2  UNL     1      22.841  -1.558  55.472  1.00  0.00     0.044 A 
HETATM    4  C3  UNL     1      24.213  -1.416  55.484  1.00  0.00     0.035 A 
HETATM    5  C4  UNL     1      24.752  -0.616  54.480  1.00  0.00     0.059 A 
HETATM    6  C5  UNL     1      23.937  -0.018  53.548  1.00  0.00     0.010 A 
HETATM    7  C6  UNL     1      22.580  -0.183  53.570  1.00  0.00     0.057 A 
HETATM    8  C7  UNL     1      24.583   0.794  52.542  1.00  0.00     0.041 A 
HETATM    9  C8  UNL     1      25.950   0.922  52.571  1.00  0.00     0.065 A 
HETATM   10  C9  UNL     1      26.614   1.694  51.623  1.00  0.00     0.071 A 
HETATM   11  C10 UNL     1      25.833   2.311  50.672  1.00  0.00     0.107 A 
HETATM   12  C16 UNL     1      24.448   2.199  50.617  1.00  0.00     0.136 A 
HETATM   13  C17 UNL     1      23.839   1.423  51.580  1.00  0.00     0.118 A 
HETATM   14  O3  UNL     1      22.475   1.382  51.433  1.00  0.00    -0.345 OA
HETATM   15  C18 UNL     1      21.692   2.230  50.647  1.00  0.00     0.202 C 
HETATM   16  C19 UNL     1      22.405   2.325  49.298  1.00  0.00     0.202 C 
HETATM   17  O4  UNL     1      23.701   2.854  49.619  1.00  0.00    -0.344 OA
HETATM   18  N1  UNL     1      26.784   0.304  53.534  1.00  0.00    -0.299 N 
HETATM   19  N2  UNL     1      26.168  -0.482  54.508  1.00  0.00    -0.300 N 
HETATM   20  H18 UNL     1      27.810   0.410  53.542  1.00  0.00     0.187 HD
HETATM   21  H19 UNL     1      26.761  -0.943  55.221  1.00  0.00     0.187 HD
ENDROOT
BRANCH  11  22
HETATM   22  O1  UNL     1      26.483   3.088  49.713  1.00  0.00    -0.346 OA
BRANCH  22  23
HETATM   23  C11 UNL     1      26.648   4.469  49.844  1.00  0.00     0.207 C 
BRANCH  23  24
HETATM   24  C12 UNL     1      27.296   5.045  48.603  1.00  0.00     0.145 C 
HETATM   25  C13 UNL     1      27.014   6.519  48.482  1.00  0.00     0.036 C 
HETATM   26  C14 UNL     1      28.245   6.999  47.724  1.00  0.00     0.029 C 
HETATM   27  C15 UNL     1      29.280   6.033  48.214  1.00  0.00     0.168 C 
HETATM   28  O2  UNL     1      28.672   4.895  48.659  1.00  0.00    -0.384 OA
ENDBRANCH  23  24
ENDBRANCH  22  23
ENDBRANCH  11  22
TORSDOF 3
ENDMDL
MODEL 5
REMARK VINA RESULT:      -8.6      3.769      5.358
REMARK  3 active torsions:
REMARK  status: ('A' for Active; 'I' for Inactive)
REMARK    1  A    between atoms: C10_11  and  O1_12 
REMARK    2  A    between atoms: O1_12  and  C11_13 
REMARK    3  A    between atoms: C11_13  and  C12_14 
ROOT
HETATM    1  F1  UNL     1      17.044  -1.240  52.560  1.00  0.00    -0.206 F 
HETATM    2  C1  UNL     1      17.975  -0.508  51.919  1.00  0.00     0.117 A 
HETATM    3  C2  UNL     1      17.565   0.225  50.803  1.00  0.00     0.044 A 
HETATM    4  C3  UNL     1      18.391   1.023  50.039  1.00  0.00     0.035 A 
HETATM    5  C4  UNL     1      19.724   1.078  50.438  1.00  0.00     0.059 A 
HETATM    6  C5  UNL     1      20.157   0.368  51.533  1.00  0.00     0.010 A 
HETATM    7  C6  UNL     1      19.306  -0.412  52.265  1.00  0.00     0.057 A 
HETATM    8  C7  UNL     1      21.556   0.485  51.874  1.00  0.00     0.041 A 
HETATM    9  C8  UNL     1      22.362   1.285  51.102  1.00  0.00     0.065 A 
HETATM   10  C9  UNL     1      23.715   1.427  51.393  1.00  0.00     0.071 A 
HETATM   11  C10 UNL     1      24.189   0.731  52.482  1.00  0.00     0.107 A 
HETATM   12  C16 UNL     1      23.397  -0.085  53.282  1.00  0.00     0.136 A 
HETATM   13  C17 UNL     1      22.064  -0.192  52.950  1.00  0.00     0.118 A 
HETATM   14  O3  UNL     1      21.378  -1.020  53.803  1.00  0.00    -0.345 OA
HETATM   15  C18 UNL     1      21.926  -1.925  54.715  1.00  0.00     0.202 C 
HETATM   16  C19 UNL     1      23.041  -1.166  55.435  1.00  0.00     0.202 C 
HETATM   17  O4  UNL     1      23.939  -0.773  54.386  1.00  0.00    -0.344 OA
HETATM   18  N1  UNL     1      21.909   2.014  49.975  1.00  0.00    -0.299 N 
HETATM   19  N2  UNL     1      20.560   1.906  49.639  1.00  0.00    -0.300 N 
HETATM   20  H18 UNL     1      22.528   2.610  49.404  1.00  0.00     0.187 HD
HETATM   21  H19 UNL     1      20.210   2.431  48.819  1.00  0.00     0.187 HD
ENDROOT
BRANCH  11  22
HETATM   22  O1  UNL     1      25.544   0.864  52.789  1.00  0.00    -0.346 OA
BRANCH  22  23
HETATM   23  C11 UNL     1      26.508  -0.055  52.367  1.00  0.00     0.207 C 
BRANCH  23  24
HETATM   24  C12 UNL     1      27.560  -0.248  53.438  1.00  0.00     0.145 C 
HETATM   25  C13 UNL     1      28.522  -1.342  53.058  1.00  0.00     0.036 C 
HETATM   26  C14 UNL     1      29.787  -0.893  53.778  1.00  0.00     0.029 C 
HETATM   27  C15 UNL     1      29.623   0.597  53.746  1.00  0.00     0.168 C 
HETATM   28  O2  UNL     1      28.302   0.910  53.604  1.00  0.00    -0.384 OA
ENDBRANCH  23  24
ENDBRANCH  22  23
ENDBRANCH  11  22
TORSDOF 3
ENDMDL
MODEL 6
REMARK VINA RESULT:      -8.5      4.290      8.489
REMARK  3 active torsions:
REMARK  status: ('A' for Active; 'I' for Inactive)
REMARK    1  A    between atoms: C10_11  and  O1_12 
REMARK    2  A    between atoms: O1_12  and  C11_13 
REMARK    3  A    between atoms: C11_13  and  C12_14 
ROOT
HETATM    1  F1  UNL     1      27.636   1.586  51.992  1.00  0.00    -0.206 F 
HETATM    2  C1  UNL     1      26.873   0.901  52.864  1.00  0.00     0.117 A 
HETATM    3  C2  UNL     1      27.516   0.281  53.937  1.00  0.00     0.044 A 
HETATM    4  C3  UNL     1      26.881  -0.456  54.915  1.00  0.00     0.035 A 
HETATM    5  C4  UNL     1      25.498  -0.569  54.792  1.00  0.00     0.059 A 
HETATM    6  C5  UNL     1      24.837   0.031  53.746  1.00  0.00     0.010 A 
HETATM    7  C6  UNL     1      25.504   0.754  52.796  1.00  0.00     0.057 A 
HETATM    8  C7  UNL     1      23.403  -0.138  53.698  1.00  0.00     0.041 A 
HETATM    9  C8  UNL     1      22.790  -0.875  54.682  1.00  0.00     0.065 A 
HETATM   10  C9  UNL     1      21.412  -1.064  54.676  1.00  0.00     0.071 A 
HETATM   11  C10 UNL     1      20.712  -0.479  53.644  1.00  0.00     0.107 A 
HETATM   12  C16 UNL     1      21.306   0.272  52.635  1.00  0.00     0.136 A 
HETATM   13  C17 UNL     1      22.675   0.428  52.688  1.00  0.00     0.118 A 
HETATM   14  O3  UNL     1      23.154   1.184  51.647  1.00  0.00    -0.345 OA
HETATM   15  C18 UNL     1      22.475   1.523  50.475  1.00  0.00     0.202 C 
HETATM   16  C19 UNL     1      21.085   1.982  50.915  1.00  0.00     0.202 C 
HETATM   17  O4  UNL     1      20.538   0.847  51.604  1.00  0.00    -0.344 OA
HETATM   18  N1  UNL     1      23.477  -1.491  55.756  1.00  0.00    -0.299 N 
HETATM   19  N2  UNL     1      24.862  -1.331  55.809  1.00  0.00    -0.300 N 
HETATM   20  H18 UNL     1      23.001  -2.041  56.487  1.00  0.00     0.187 HD
HETATM   21  H19 UNL     1      25.382  -1.774  56.588  1.00  0.00     0.187 HD
ENDROOT
BRANCH  11  22
HETATM   22  O1  UNL     1      19.329  -0.659  53.623  1.00  0.00    -0.346 OA
BRANCH  22  23
HETATM   23  C11 UNL     1      18.729  -1.881  53.309  1.00  0.00     0.207 C 
BRANCH  23  24
HETATM   24  C12 UNL     1      17.225  -1.729  53.235  1.00  0.00     0.145 C 
HETATM   25  C13 UNL     1      16.813  -1.051  51.956  1.00  0.00     0.036 C 
HETATM   26  C14 UNL     1      15.425  -1.639  51.737  1.00  0.00     0.029 C 
HETATM   27  C15 UNL     1      15.586  -2.995  52.354  1.00  0.00     0.168 C 
HETATM   28  O2  UNL     1      16.610  -2.970  53.257  1.00  0.00    -0.384 OA
ENDBRANCH  23  24
ENDBRANCH  22  23
ENDBRANCH  11  22
TORSDOF 3
ENDMDL
MODEL 7
REMARK VINA RESULT:      -8.3      3.898      7.141
REMARK  3 active torsions:
REMARK  status: ('A' for Active; 'I' for Inactive)
REMARK    1  A    between atoms: C10_11  and  O1_12 
REMARK    2  A    between atoms: O1_12  and  C11_13 
REMARK    3  A    between atoms: C11_13  and  C12_14 
ROOT
HETATM    1  F1  UNL     1      28.326  -0.473  55.244  1.00  0.00    -0.206 F 
HETATM    2  C1  UNL     1      27.678   0.346  54.394  1.00  0.00     0.117 A 
HETATM    3  C2  UNL     1      28.435   1.302  53.713  1.00  0.00     0.044 A 
HETATM    4  C3  UNL     1      27.924   2.212  52.812  1.00  0.00     0.035 A 
HETATM    5  C4  UNL     1      26.551   2.145  52.589  1.00  0.00     0.059 A 
HETATM    6  C5  UNL     1      25.780   1.214  53.243  1.00  0.00     0.010 A 
HETATM    7  C6  UNL     1      26.325   0.328  54.131  1.00  0.00     0.057 A 
HETATM    8  C7  UNL     1      24.366   1.216  52.950  1.00  0.00     0.041 A 
HETATM    9  C8  UNL     1      23.877   2.131  52.049  1.00  0.00     0.065 A 
HETATM   10  C9  UNL     1      22.522   2.170  51.736  1.00  0.00     0.071 A 
HETATM   11  C10 UNL     1      21.715   1.253  52.371  1.00  0.00     0.107 A 
HETATM   12  C16 UNL     1      22.181   0.316  53.287  1.00  0.00     0.136 A 
HETATM   13  C17 UNL     1      23.532   0.321  53.562  1.00  0.00     0.118 A 
HETATM   14  O3  UNL     1      23.881  -0.642  54.477  1.00  0.00    -0.345 OA
HETATM   15  C18 UNL     1      23.020  -1.359  55.309  1.00  0.00     0.202 C 
HETATM   16  C19 UNL     1      21.865  -1.817  54.418  1.00  0.00     0.202 C 
HETATM   17  O4  UNL     1      21.306  -0.597  53.907  1.00  0.00    -0.344 OA
HETATM   18  N1  UNL     1      24.678   3.087  51.377  1.00  0.00    -0.299 N 
HETATM   19  N2  UNL     1      26.044   3.091  51.656  1.00  0.00    -0.300 N 
HETATM   20  H18 UNL     1      24.295   3.768  50.703  1.00  0.00     0.187 HD
HETATM   21  H19 UNL     1      26.646   3.783  51.174  1.00  0.00     0.187 HD
ENDROOT
BRANCH  11  22
HETATM   22  O1  UNL     1      20.353   1.278  52.068  1.00  0.00    -0.346 OA
BRANCH  22  23
HETATM   23  C11 UNL     1      19.867   1.149  50.764  1.00  0.00     0.207 C 
BRANCH  23  24
HETATM   24  C12 UNL     1      18.549   0.405  50.763  1.00  0.00     0.145 C 
HETATM   25  C13 UNL     1      18.350  -0.344  52.054  1.00  0.00     0.036 C 
HETATM   26  C14 UNL     1      16.831  -0.360  52.162  1.00  0.00     0.029 C 
HETATM   27  C15 UNL     1      16.480   0.927  51.479  1.00  0.00     0.168 C 
HETATM   28  O2  UNL     1      17.491   1.290  50.636  1.00  0.00    -0.384 OA
ENDBRANCH  23  24
ENDBRANCH  22  23
ENDBRANCH  11  22
TORSDOF 3
ENDMDL
MODEL 8
REMARK VINA RESULT:      -8.0      4.560      7.415
REMARK  3 active torsions:
REMARK  status: ('A' for Active; 'I' for Inactive)
REMARK    1  A    between atoms: C10_11  and  O1_12 
REMARK    2  A    between atoms: O1_12  and  C11_13 
REMARK    3  A    between atoms: C11_13  and  C12_14 
ROOT
HETATM    1  F1  UNL     1      27.522   1.692  51.979  1.00  0.00    -0.206 F 
HETATM    2  C1  UNL     1      26.335   1.175  52.350  1.00  0.00     0.117 A 
HETATM    3  C2  UNL     1      26.335  -0.100  52.920  1.00  0.00     0.044 A 
HETATM    4  C3  UNL     1      25.209  -0.768  53.352  1.00  0.00     0.035 A 
HETATM    5  C4  UNL     1      24.001  -0.092  53.195  1.00  0.00     0.059 A 
HETATM    6  C5  UNL     1      23.970   1.165  52.639  1.00  0.00     0.010 A 
HETATM    7  C6  UNL     1      25.110   1.793  52.222  1.00  0.00     0.057 A 
HETATM    8  C7  UNL     1      22.674   1.791  52.516  1.00  0.00     0.041 A 
HETATM    9  C8  UNL     1      21.564   1.109  52.953  1.00  0.00     0.065 A 
HETATM   10  C9  UNL     1      20.296   1.673  52.853  1.00  0.00     0.071 A 
HETATM   11  C10 UNL     1      20.221   2.932  52.301  1.00  0.00     0.107 A 
HETATM   12  C16 UNL     1      21.326   3.645  51.850  1.00  0.00     0.136 A 
HETATM   13  C17 UNL     1      22.560   3.041  51.971  1.00  0.00     0.118 A 
HETATM   14  O3  UNL     1      23.577   3.832  51.496  1.00  0.00    -0.345 OA
HETATM   15  C18 UNL     1      23.451   4.967  50.693  1.00  0.00     0.202 C 
HETATM   16  C19 UNL     1      22.332   5.799  51.319  1.00  0.00     0.202 C 
HETATM   17  O4  UNL     1      21.188   4.932  51.294  1.00  0.00    -0.344 OA
HETATM   18  N1  UNL     1      21.604  -0.186  53.525  1.00  0.00    -0.299 N 
HETATM   19  N2  UNL     1      22.852  -0.797  53.647  1.00  0.00    -0.300 N 
HETATM   20  H18 UNL     1      20.761  -0.684  53.848  1.00  0.00     0.187 HD
HETATM   21  H19 UNL     1      22.901  -1.743  54.063  1.00  0.00     0.187 HD
ENDROOT
BRANCH  11  22
HETATM   22  O1  UNL     1      18.957   3.512  52.195  1.00  0.00    -0.346 OA
BRANCH  22  23
HETATM   23  C11 UNL     1      18.285   3.643  50.977  1.00  0.00     0.207 C 
BRANCH  23  24
HETATM   24  C12 UNL     1      16.790   3.719  51.203  1.00  0.00     0.145 C 
HETATM   25  C13 UNL     1      16.234   2.375  51.591  1.00  0.00     0.036 C 
HETATM   26  C14 UNL     1      15.035   2.779  52.439  1.00  0.00     0.029 C 
HETATM   27  C15 UNL     1      15.520   4.070  53.027  1.00  0.00     0.168 C 
HETATM   28  O2  UNL     1      16.498   4.596  52.234  1.00  0.00    -0.384 OA
ENDBRANCH  23  24
ENDBRANCH  22  23
ENDBRANCH  11  22
TORSDOF 3
ENDMDL
MODEL 9
REMARK VINA RESULT:      -8.0      2.584      3.869
REMARK  3 active torsions:
REMARK  status: ('A' for Active; 'I' for Inactive)
REMARK    1  A    between atoms: C10_11  and  O1_12 
REMARK    2  A    between atoms: O1_12  and  C11_13 
REMARK    3  A    between atoms: C11_13  and  C12_14 
ROOT
HETATM    1  F1  UNL     1      22.177  -1.673  54.944  1.00  0.00    -0.206 F 
HETATM    2  C1  UNL     1      23.312  -1.022  54.623  1.00  0.00     0.117 A 
HETATM    3  C2  UNL     1      24.435  -1.252  55.421  1.00  0.00     0.044 A 
HETATM    4  C3  UNL     1      25.669  -0.666  55.227  1.00  0.00     0.035 A 
HETATM    5  C4  UNL     1      25.766   0.211  54.149  1.00  0.00     0.059 A 
HETATM    6  C5  UNL     1      24.677   0.455  53.346  1.00  0.00     0.010 A 
HETATM    7  C6  UNL     1      23.470  -0.145  53.572  1.00  0.00     0.057 A 
HETATM    8  C7  UNL     1      24.869   1.378  52.251  1.00  0.00     0.041 A 
HETATM    9  C8  UNL     1      26.106   1.950  52.075  1.00  0.00     0.065 A 
HETATM   10  C9  UNL     1      26.336   2.844  51.035  1.00  0.00     0.071 A 
HETATM   11  C10 UNL     1      25.270   3.117  50.207  1.00  0.00     0.107 A 
HETATM   12  C16 UNL     1      24.008   2.553  50.360  1.00  0.00     0.136 A 
HETATM   13  C17 UNL     1      23.833   1.674  51.408  1.00  0.00     0.118 A 
HETATM   14  O3  UNL     1      22.553   1.180  51.466  1.00  0.00    -0.345 OA
HETATM   15  C18 UNL     1      21.431   1.678  50.801  1.00  0.00     0.202 C 
HETATM   16  C19 UNL     1      21.877   1.929  49.360  1.00  0.00     0.202 C 
HETATM   17  O4  UNL     1      22.955   2.870  49.481  1.00  0.00    -0.344 OA
HETATM   18  N1  UNL     1      27.223   1.693  52.907  1.00  0.00    -0.299 N 
HETATM   19  N2  UNL     1      27.045   0.803  53.966  1.00  0.00    -0.300 N 
HETATM   20  H18 UNL     1      28.145   2.131  52.761  1.00  0.00     0.187 HD
HETATM   21  H19 UNL     1      27.851   0.602  54.585  1.00  0.00     0.187 HD
ENDROOT
BRANCH  11  22
HETATM   22  O1  UNL     1      25.484   4.011  49.158  1.00  0.00    -0.346 OA
BRANCH  22  23
HETATM   23  C11 UNL     1      26.450   5.019  49.209  1.00  0.00     0.207 C 
BRANCH  23  24
HETATM   24  C12 UNL     1      25.797   6.382  49.133  1.00  0.00     0.145 C 
HETATM   25  C13 UNL     1      24.415   6.286  48.545  1.00  0.00     0.036 C 
HETATM   26  C14 UNL     1      23.722   7.469  49.209  1.00  0.00     0.029 C 
HETATM   27  C15 UNL     1      24.445   7.526  50.521  1.00  0.00     0.168 C 
HETATM   28  O2  UNL     1      25.667   6.930  50.398  1.00  0.00    -0.384 OA
ENDBRANCH  23  24
ENDBRANCH  22  23
ENDBRANCH  11  22
TORSDOF 3
ENDMDL
