MODEL 1
REMARK VINA RESULT:      -8.3      0.000      0.000
REMARK  3 active torsions:
REMARK  status: ('A' for Active; 'I' for Inactive)
REMARK    1  A    between atoms: C6_10  and  N3_11 
REMARK    2  A    between atoms: N3_11  and  C7_12 
REMARK    3  A    between atoms: C7_12  and  C8_13 
ROOT
HETATM    1  F1  UNL     1      30.501  -1.198  53.990  1.00  0.00    -0.205 F 
HETATM    2  C1  UNL     1      29.413  -0.390  54.116  1.00  0.00     0.131 C 
HETATM    3  C2  UNL     1      28.269  -0.445  54.779  1.00  0.00     0.053 C 
HETATM    4  C3  UNL     1      27.291   0.194  54.155  1.00  0.00     0.100 C 
HETATM    5  O1  UNL     1      25.924  -0.094  54.182  1.00  0.00    -0.288 OA
HETATM    6  C4  UNL     1      24.959   0.582  53.407  1.00  0.00     0.202 A 
HETATM    7  N1  UNL     1      23.869  -0.176  53.379  1.00  0.00    -0.215 NA
HETATM    8  C5  UNL     1      22.763   0.171  52.729  1.00  0.00     0.238 A 
HETATM    9  N2  UNL     1      22.774   1.335  52.084  1.00  0.00    -0.222 NA
HETATM   10  C6  UNL     1      23.812   2.175  52.045  1.00  0.00     0.156 A 
HETATM   11  C14 UNL     1      24.981   1.811  52.731  1.00  0.00     0.128 A 
HETATM   12  N4  UNL     1      26.105   2.642  52.741  1.00  0.00    -0.379 N 
HETATM   13  C15 UNL     1      27.519   2.501  52.844  1.00  0.00     0.161 C 
HETATM   14  C16 UNL     1      28.016   1.268  53.439  1.00  0.00    -0.003 C 
HETATM   15  C17 UNL     1      29.287   0.907  53.421  1.00  0.00     0.055 C 
HETATM   16  H10 UNL     1      25.772   3.651  52.643  1.00  0.00     0.160 HD
ENDROOT
BRANCH  10  17
HETATM   17  N3  UNL     1      23.985   3.415  51.410  1.00  0.00    -0.369 N 
HETATM   18  H2  UNL     1      22.984   3.744  51.537  1.00  0.00     0.161 HD
BRANCH  17  19
HETATM   19  C7  UNL     1      24.097   4.676  50.782  1.00  0.00     0.160 C 
BRANCH  19  20
HETATM   20  C8  UNL     1      25.329   4.911  49.972  1.00  0.00    -0.041 A 
HETATM   21  C9  UNL     1      25.496   6.218  49.604  1.00  0.00     0.009 A 
HETATM   22  C10 UNL     1      26.587   6.606  48.856  1.00  0.00     0.001 A 
HETATM   23  C11 UNL     1      27.463   5.605  48.521  1.00  0.00     0.000 A 
HETATM   24  C12 UNL     1      27.329   4.284  48.871  1.00  0.00     0.001 A 
HETATM   25  C13 UNL     1      26.218   3.914  49.629  1.00  0.00     0.009 A 
ENDBRANCH  19  20
ENDBRANCH  17  19
ENDBRANCH  10  17
TORSDOF 3
ENDMDL
MODEL 2
REMARK VINA RESULT:      -8.3      2.565      4.325
REMARK  3 active torsions:
REMARK  status: ('A' for Active; 'I' for Inactive)
REMARK    1  A    between atoms: C6_10  and  N3_11 
REMARK    2  A    between atoms: N3_11  and  C7_12 
REMARK    3  A    between atoms: C7_12  and  C8_13 
ROOT
HETATM    1  F1  UNL     1      20.774  -0.578  55.320  1.00  0.00    -0.205 F 
HETATM    2  C1  UNL     1      21.745  -0.461  54.372  1.00  0.00     0.131 C 
HETATM    3  C2  UNL     1      22.931  -1.009  54.165  1.00  0.00     0.053 C 
HETATM    4  C3  UNL     1      23.760  -0.195  53.528  1.00  0.00     0.100 C 
HETATM    5  O1  UNL     1      25.152  -0.135  53.632  1.00  0.00    -0.288 OA
HETATM    6  C4  UNL     1      25.951   0.832  52.988  1.00  0.00     0.202 A 
HETATM    7  N1  UNL     1      27.131   0.842  53.596  1.00  0.00    -0.215 NA
HETATM    8  C5  UNL     1      28.126   1.646  53.233  1.00  0.00     0.238 A 
HETATM    9  N2  UNL     1      27.902   2.470  52.213  1.00  0.00    -0.222 NA
HETATM   10  C6  UNL     1      26.756   2.546  51.530  1.00  0.00     0.156 A 
HETATM   11  C14 UNL     1      25.705   1.697  51.911  1.00  0.00     0.128 A 
HETATM   12  N4  UNL     1      24.480   1.714  51.240  1.00  0.00    -0.379 N 
HETATM   13  C15 UNL     1      23.111   1.451  51.537  1.00  0.00     0.161 C 
HETATM   14  C16 UNL     1      22.839   0.614  52.698  1.00  0.00    -0.003 C 
HETATM   15  C17 UNL     1      21.634   0.447  53.214  1.00  0.00     0.055 C 
HETATM   16  H10 UNL     1      24.658   2.010  50.230  1.00  0.00     0.160 HD
ENDROOT
BRANCH  10  17
HETATM   17  N3  UNL     1      26.363   3.357  50.454  1.00  0.00    -0.369 N 
HETATM   18  H2  UNL     1      25.983   2.567  49.855  1.00  0.00     0.161 HD
BRANCH  17  19
HETATM   19  C7  UNL     1      25.945   4.119  49.340  1.00  0.00     0.160 C 
BRANCH  19  20
HETATM   20  C8  UNL     1      26.891   5.170  48.859  1.00  0.00    -0.041 A 
HETATM   21  C9  UNL     1      26.334   6.418  48.805  1.00  0.00     0.009 A 
HETATM   22  C10 UNL     1      27.074   7.503  48.386  1.00  0.00     0.001 A 
HETATM   23  C11 UNL     1      28.374   7.236  48.039  1.00  0.00     0.000 A 
HETATM   24  C12 UNL     1      28.968   5.999  48.079  1.00  0.00     0.001 A 
HETATM   25  C13 UNL     1      28.200   4.915  48.507  1.00  0.00     0.009 A 
ENDBRANCH  19  20
ENDBRANCH  17  19
ENDBRANCH  10  17
TORSDOF 3
ENDMDL
MODEL 3
REMARK VINA RESULT:      -8.2      3.104      6.622
REMARK  3 active torsions:
REMARK  status: ('A' for Active; 'I' for Inactive)
REMARK    1  A    between atoms: C6_10  and  N3_11 
REMARK    2  A    between atoms: N3_11  and  C7_12 
REMARK    3  A    between atoms: C7_12  and  C8_13 
ROOT
HETATM    1  F1  UNL     1      19.483  -0.465  51.280  1.00  0.00    -0.205 F 
HETATM    2  C1  UNL     1      20.462   0.417  51.623  1.00  0.00     0.131 C 
HETATM    3  C2  UNL     1      20.764   1.663  51.299  1.00  0.00     0.053 C 
HETATM    4  C3  UNL     1      22.066   1.900  51.356  1.00  0.00     0.100 C 
HETATM    5  O1  UNL     1      22.809   2.801  50.590  1.00  0.00    -0.288 OA
HETATM    6  C4  UNL     1      24.214   2.919  50.650  1.00  0.00     0.202 A 
HETATM    7  N1  UNL     1      24.607   3.556  49.554  1.00  0.00    -0.215 NA
HETATM    8  C5  UNL     1      25.881   3.833  49.295  1.00  0.00     0.238 A 
HETATM    9  N2  UNL     1      26.783   3.443  50.191  1.00  0.00    -0.222 NA
HETATM   10  C6  UNL     1      26.502   2.796  51.326  1.00  0.00     0.156 A 
HETATM   11  C14 UNL     1      25.158   2.503  51.601  1.00  0.00     0.128 A 
HETATM   12  N4  UNL     1      24.785   1.835  52.771  1.00  0.00    -0.379 N 
HETATM   13  C15 UNL     1      23.743   0.964  53.202  1.00  0.00     0.161 C 
HETATM   14  C16 UNL     1      22.512   0.976  52.424  1.00  0.00    -0.003 C 
HETATM   15  C17 UNL     1      21.542   0.090  52.575  1.00  0.00     0.055 C 
HETATM   16  H10 UNL     1      25.501   2.066  53.527  1.00  0.00     0.160 HD
ENDROOT
BRANCH  10  17
HETATM   17  N3  UNL     1      27.327   2.311  52.354  1.00  0.00    -0.369 N 
HETATM   18  H2  UNL     1      28.188   2.864  52.072  1.00  0.00     0.161 HD
BRANCH  17  19
HETATM   19  C7  UNL     1      28.206   1.860  53.364  1.00  0.00     0.160 C 
BRANCH  19  20
HETATM   20  C8  UNL     1      28.555   0.408  53.345  1.00  0.00    -0.041 A 
HETATM   21  C9  UNL     1      27.516  -0.396  52.966  1.00  0.00     0.009 A 
HETATM   22  C10 UNL     1      27.674  -1.764  52.892  1.00  0.00     0.001 A 
HETATM   23  C11 UNL     1      28.919  -2.236  53.219  1.00  0.00     0.000 A 
HETATM   24  C12 UNL     1      29.985  -1.461  53.604  1.00  0.00     0.001 A 
HETATM   25  C13 UNL     1      29.804  -0.080  53.672  1.00  0.00     0.009 A 
ENDBRANCH  19  20
ENDBRANCH  17  19
ENDBRANCH  10  17
TORSDOF 3
ENDMDL
MODEL 4
REMARK VINA RESULT:      -8.2      3.217      6.413
REMARK  3 active torsions:
REMARK  status: ('A' for Active; 'I' for Inactive)
REMARK    1  A    between atoms: C6_10  and  N3_11 
REMARK    2  A    between atoms: N3_11  and  C7_12 
REMARK    3  A    between atoms: C7_12  and  C8_13 
ROOT
HETATM    1  F1  UNL     1      19.543  -2.160  53.819  1.00  0.00    -0.205 F 
HETATM    2  C1  UNL     1      20.464  -1.166  53.945  1.00  0.00     0.131 C 
HETATM    3  C2  UNL     1      20.465   0.146  53.773  1.00  0.00     0.053 C 
HETATM    4  C3  UNL     1      21.649   0.607  53.400  1.00  0.00     0.100 C 
HETATM    5  O1  UNL     1      21.925   1.719  52.601  1.00  0.00    -0.288 OA
HETATM    6  C4  UNL     1      23.218   2.083  52.171  1.00  0.00     0.202 A 
HETATM    7  N1  UNL     1      23.078   2.915  51.147  1.00  0.00    -0.215 NA
HETATM    8  C5  UNL     1      24.110   3.451  50.503  1.00  0.00     0.238 A 
HETATM    9  N2  UNL     1      25.328   3.121  50.923  1.00  0.00    -0.222 NA
HETATM   10  C6  UNL     1      25.587   2.294  51.940  1.00  0.00     0.156 A 
HETATM   11  C14 UNL     1      24.499   1.728  52.622  1.00  0.00     0.128 A 
HETATM   12  N4  UNL     1      24.690   0.860  53.700  1.00  0.00    -0.379 N 
HETATM   13  C15 UNL     1      24.008  -0.235  54.306  1.00  0.00     0.161 C 
HETATM   14  C16 UNL     1      22.581  -0.348  54.042  1.00  0.00    -0.003 C 
HETATM   15  C17 UNL     1      21.858  -1.408  54.364  1.00  0.00     0.055 C 
HETATM   16  H10 UNL     1      25.609   1.119  54.176  1.00  0.00     0.160 HD
ENDROOT
BRANCH  10  17
HETATM   17  N3  UNL     1      26.796   1.841  52.491  1.00  0.00    -0.369 N 
HETATM   18  H2  UNL     1      26.431   0.891  52.789  1.00  0.00     0.161 HD
BRANCH  17  19
HETATM   19  C7  UNL     1      27.983   1.329  53.061  1.00  0.00     0.160 C 
BRANCH  19  20
HETATM   20  C8  UNL     1      28.152  -0.155  53.030  1.00  0.00    -0.041 A 
HETATM   21  C9  UNL     1      29.374  -0.572  53.481  1.00  0.00     0.009 A 
HETATM   22  C10 UNL     1      29.690  -1.913  53.521  1.00  0.00     0.001 A 
HETATM   23  C11 UNL     1      28.709  -2.767  53.087  1.00  0.00     0.000 A 
HETATM   24  C12 UNL     1      27.472  -2.387  52.628  1.00  0.00     0.001 A 
HETATM   25  C13 UNL     1      27.173  -1.025  52.595  1.00  0.00     0.009 A 
ENDBRANCH  19  20
ENDBRANCH  17  19
ENDBRANCH  10  17
TORSDOF 3
ENDMDL
MODEL 5
REMARK VINA RESULT:      -8.0      3.593      6.385
REMARK  3 active torsions:
REMARK  status: ('A' for Active; 'I' for Inactive)
REMARK    1  A    between atoms: C6_10  and  N3_11 
REMARK    2  A    between atoms: N3_11  and  C7_12 
REMARK    3  A    between atoms: C7_12  and  C8_13 
ROOT
HETATM    1  F1  UNL     1      21.702   6.739  51.425  1.00  0.00    -0.205 F 
HETATM    2  C1  UNL     1      21.858   5.390  51.319  1.00  0.00     0.131 C 
HETATM    3  C2  UNL     1      21.059   4.339  51.402  1.00  0.00     0.053 C 
HETATM    4  C3  UNL     1      21.684   3.262  51.851  1.00  0.00     0.100 C 
HETATM    5  O1  UNL     1      21.151   2.208  52.596  1.00  0.00    -0.288 OA
HETATM    6  C4  UNL     1      21.914   1.143  53.118  1.00  0.00     0.202 A 
HETATM    7  N1  UNL     1      21.191   0.561  54.067  1.00  0.00    -0.215 NA
HETATM    8  C5  UNL     1      21.620  -0.484  54.766  1.00  0.00     0.238 A 
HETATM    9  N2  UNL     1      22.833  -0.950  54.483  1.00  0.00    -0.222 NA
HETATM   10  C6  UNL     1      23.647  -0.445  53.552  1.00  0.00     0.156 A 
HETATM   11  C14 UNL     1      23.196   0.659  52.813  1.00  0.00     0.128 A 
HETATM   12  N4  UNL     1      23.987   1.239  51.817  1.00  0.00    -0.379 N 
HETATM   13  C15 UNL     1      24.165   2.522  51.225  1.00  0.00     0.161 C 
HETATM   14  C16 UNL     1      23.067   3.468  51.364  1.00  0.00    -0.003 C 
HETATM   15  C17 UNL     1      23.159   4.749  51.048  1.00  0.00     0.055 C 
HETATM   16  H10 UNL     1      24.619   0.480  51.412  1.00  0.00     0.160 HD
ENDROOT
BRANCH  10  17
HETATM   17  N3  UNL     1      24.942  -0.806  53.147  1.00  0.00    -0.369 N 
HETATM   18  H2  UNL     1      24.658  -1.712  52.672  1.00  0.00     0.161 HD
BRANCH  17  19
HETATM   19  C7  UNL     1      26.219  -1.225  52.713  1.00  0.00     0.160 C 
BRANCH  19  20
HETATM   20  C8  UNL     1      27.370  -0.347  53.081  1.00  0.00    -0.041 A 
HETATM   21  C9  UNL     1      28.524  -1.039  53.326  1.00  0.00     0.009 A 
HETATM   22  C10 UNL     1      29.682  -0.376  53.674  1.00  0.00     0.001 A 
HETATM   23  C11 UNL     1      29.584   0.990  53.752  1.00  0.00     0.000 A 
HETATM   24  C12 UNL     1      28.445   1.718  53.515  1.00  0.00     0.001 A 
HETATM   25  C13 UNL     1      27.285   1.028  53.164  1.00  0.00     0.009 A 
ENDBRANCH  19  20
ENDBRANCH  17  19
ENDBRANCH  10  17
TORSDOF 3
ENDMDL
MODEL 6
REMARK VINA RESULT:      -7.9      4.540      7.211
REMARK  3 active torsions:
REMARK  status: ('A' for Active; 'I' for Inactive)
REMARK    1  A    between atoms: C6_10  and  N3_11 
REMARK    2  A    between atoms: N3_11  and  C7_12 
REMARK    3  A    between atoms: C7_12  and  C8_13 
ROOT
HETATM    1  F1  UNL     1      16.478   1.760  51.597  1.00  0.00    -0.205 F 
HETATM    2  C1  UNL     1      17.637   1.045  51.572  1.00  0.00     0.131 C 
HETATM    3  C2  UNL     1      18.020  -0.145  52.003  1.00  0.00     0.053 C 
HETATM    4  C3  UNL     1      19.304  -0.178  52.326  1.00  0.00     0.100 C 
HETATM    5  O1  UNL     1      19.926  -0.967  53.297  1.00  0.00    -0.288 OA
HETATM    6  C4  UNL     1      21.289  -0.866  53.643  1.00  0.00     0.202 A 
HETATM    7  N1  UNL     1      21.445  -1.454  54.823  1.00  0.00    -0.215 NA
HETATM    8  C5  UNL     1      22.618  -1.537  55.441  1.00  0.00     0.238 A 
HETATM    9  N2  UNL     1      23.669  -0.997  54.829  1.00  0.00    -0.222 NA
HETATM   10  C6  UNL     1      23.629  -0.381  53.645  1.00  0.00     0.156 A 
HETATM   11  C14 UNL     1      22.391  -0.293  52.989  1.00  0.00     0.128 A 
HETATM   12  N4  UNL     1      22.271   0.329  51.744  1.00  0.00    -0.379 N 
HETATM   13  C15 UNL     1      21.276   1.037  51.010  1.00  0.00     0.161 C 
HETATM   14  C16 UNL     1      19.891   0.822  51.405  1.00  0.00    -0.003 C 
HETATM   15  C17 UNL     1      18.881   1.550  50.959  1.00  0.00     0.055 C 
HETATM   16  H10 UNL     1      23.201   0.224  51.230  1.00  0.00     0.160 HD
ENDROOT
BRANCH  10  17
HETATM   17  N3  UNL     1      24.630   0.243  52.882  1.00  0.00    -0.369 N 
HETATM   18  H2  UNL     1      25.197  -0.637  52.708  1.00  0.00     0.161 HD
BRANCH  17  19
HETATM   19  C7  UNL     1      25.666   0.812  52.108  1.00  0.00     0.160 C 
BRANCH  19  20
HETATM   20  C8  UNL     1      27.017   0.867  52.741  1.00  0.00    -0.041 A 
HETATM   21  C9  UNL     1      27.568  -0.366  52.956  1.00  0.00     0.009 A 
HETATM   22  C10 UNL     1      28.816  -0.491  53.529  1.00  0.00     0.001 A 
HETATM   23  C11 UNL     1      29.439   0.686  53.856  1.00  0.00     0.000 A 
HETATM   24  C12 UNL     1      28.919   1.941  53.657  1.00  0.00     0.001 A 
HETATM   25  C13 UNL     1      27.655   2.044  53.075  1.00  0.00     0.009 A 
ENDBRANCH  19  20
ENDBRANCH  17  19
ENDBRANCH  10  17
TORSDOF 3
ENDMDL
MODEL 7
REMARK VINA RESULT:      -7.9      1.887      2.754
REMARK  3 active torsions:
REMARK  status: ('A' for Active; 'I' for Inactive)
REMARK    1  A    between atoms: C6_10  and  N3_11 
REMARK    2  A    between atoms: N3_11  and  C7_12 
REMARK    3  A    between atoms: C7_12  and  C8_13 
ROOT
HETATM    1  F1  UNL     1      30.588  -0.884  53.828  1.00  0.00    -0.205 F 
HETATM    2  C1  UNL     1      29.366  -0.292  53.935  1.00  0.00     0.131 C 
HETATM    3  C2  UNL     1      28.501  -0.086  54.914  1.00  0.00     0.053 C 
HETATM    4  C3  UNL     1      27.249  -0.054  54.485  1.00  0.00     0.100 C 
HETATM    5  O1  UNL     1      26.095  -0.432  55.176  1.00  0.00    -0.288 OA
HETATM    6  C4  UNL     1      24.805  -0.458  54.606  1.00  0.00     0.202 A 
HETATM    7  N1  UNL     1      24.040  -1.213  55.385  1.00  0.00    -0.215 NA
HETATM    8  C5  UNL     1      22.757  -1.447  55.132  1.00  0.00     0.238 A 
HETATM    9  N2  UNL     1      22.239  -0.887  54.042  1.00  0.00    -0.222 NA
HETATM   10  C6  UNL     1      22.913  -0.112  53.188  1.00  0.00     0.156 A 
HETATM   11  C14 UNL     1      24.268   0.136  53.453  1.00  0.00     0.128 A 
HETATM   12  N4  UNL     1      25.037   0.943  52.610  1.00  0.00    -0.379 N 
HETATM   13  C15 UNL     1      26.402   1.059  52.218  1.00  0.00     0.161 C 
HETATM   14  C16 UNL     1      27.395   0.477  53.111  1.00  0.00    -0.003 C 
HETATM   15  C17 UNL     1      28.669   0.328  52.791  1.00  0.00     0.055 C 
HETATM   16  H10 UNL     1      24.389   1.656  52.152  1.00  0.00     0.160 HD
ENDROOT
BRANCH  10  17
HETATM   17  N3  UNL     1      22.522   0.533  52.004  1.00  0.00    -0.369 N 
HETATM   18  H2  UNL     1      22.963   1.469  52.239  1.00  0.00     0.161 HD
BRANCH  17  19
HETATM   19  C7  UNL     1      22.158   1.237  50.834  1.00  0.00     0.160 C 
BRANCH  19  20
HETATM   20  C8  UNL     1      22.721   2.612  50.680  1.00  0.00    -0.041 A 
HETATM   21  C9  UNL     1      23.432   2.781  49.524  1.00  0.00     0.009 A 
HETATM   22  C10 UNL     1      24.015   3.994  49.226  1.00  0.00     0.001 A 
HETATM   23  C11 UNL     1      23.829   4.986  50.156  1.00  0.00     0.000 A 
HETATM   24  C12 UNL     1      23.124   4.854  51.326  1.00  0.00     0.001 A 
HETATM   25  C13 UNL     1      22.542   3.618  51.607  1.00  0.00     0.009 A 
ENDBRANCH  19  20
ENDBRANCH  17  19
ENDBRANCH  10  17
TORSDOF 3
ENDMDL
MODEL 8
REMARK VINA RESULT:      -7.8      3.192      4.380
REMARK  3 active torsions:
REMARK  status: ('A' for Active; 'I' for Inactive)
REMARK    1  A    between atoms: C6_10  and  N3_11 
REMARK    2  A    between atoms: N3_11  and  C7_12 
REMARK    3  A    between atoms: C7_12  and  C8_13 
ROOT
HETATM    1  F1  UNL     1      21.914  -2.505  54.821  1.00  0.00    -0.205 F 
HETATM    2  C1  UNL     1      22.192  -1.255  54.358  1.00  0.00     0.131 C 
HETATM    3  C2  UNL     1      21.481  -0.179  54.065  1.00  0.00     0.053 C 
HETATM    4  C3  UNL     1      22.030   0.544  53.101  1.00  0.00     0.100 C 
HETATM    5  O1  UNL     1      21.384   1.344  52.154  1.00  0.00    -0.288 OA
HETATM    6  C4  UNL     1      22.043   2.004  51.097  1.00  0.00     0.202 A 
HETATM    7  N1  UNL     1      21.124   2.331  50.197  1.00  0.00    -0.215 NA
HETATM    8  C5  UNL     1      21.411   2.971  49.068  1.00  0.00     0.238 A 
HETATM    9  N2  UNL     1      22.686   3.286  48.853  1.00  0.00    -0.222 NA
HETATM   10  C6  UNL     1      23.692   3.007  49.686  1.00  0.00     0.156 A 
HETATM   11  C14 UNL     1      23.390   2.332  50.879  1.00  0.00     0.128 A 
HETATM   12  N4  UNL     1      24.388   2.012  51.804  1.00  0.00    -0.379 N 
HETATM   13  C15 UNL     1      24.633   1.010  52.787  1.00  0.00     0.161 C 
HETATM   14  C16 UNL     1      23.475   0.284  53.289  1.00  0.00    -0.003 C 
HETATM   15  C17 UNL     1      23.560  -0.798  54.044  1.00  0.00     0.055 C 
HETATM   16  H10 UNL     1      25.162   2.742  51.723  1.00  0.00     0.160 HD
ENDROOT
BRANCH  10  17
HETATM   17  N3  UNL     1      25.071   3.256  49.602  1.00  0.00    -0.369 N 
HETATM   18  H2  UNL     1      25.022   4.256  49.952  1.00  0.00     0.161 HD
BRANCH  17  19
HETATM   19  C7  UNL     1      26.447   3.567  49.539  1.00  0.00     0.160 C 
BRANCH  19  20
HETATM   20  C8  UNL     1      26.806   4.883  48.931  1.00  0.00    -0.041 A 
HETATM   21  C9  UNL     1      28.123   4.974  48.572  1.00  0.00     0.009 A 
HETATM   22  C10 UNL     1      28.618   6.123  47.991  1.00  0.00     0.001 A 
HETATM   23  C11 UNL     1      27.709   7.134  47.809  1.00  0.00     0.000 A 
HETATM   24  C12 UNL     1      26.382   7.080  48.156  1.00  0.00     0.001 A 
HETATM   25  C13 UNL     1      25.902   5.908  48.742  1.00  0.00     0.009 A 
ENDBRANCH  19  20
ENDBRANCH  17  19
ENDBRANCH  10  17
TORSDOF 3
ENDMDL
MODEL 9
REMARK VINA RESULT:      -7.6      4.085      7.705
REMARK  3 active torsions:
REMARK  status: ('A' for Active; 'I' for Inactive)
REMARK    1  A    between atoms: C6_10  and  N3_11 
REMARK    2  A    between atoms: N3_11  and  C7_12 
REMARK    3  A    between atoms: C7_12  and  C8_13 
ROOT
HETATM    1  F1  UNL     1      20.295   8.248  49.673  1.00  0.00    -0.205 F 
HETATM    2  C1  UNL     1      21.451   7.736  50.178  1.00  0.00     0.131 C 
HETATM    3  C2  UNL     1      22.719   8.110  50.198  1.00  0.00     0.053 C 
HETATM    4  C3  UNL     1      23.552   7.081  50.224  1.00  0.00     0.100 C 
HETATM    5  O1  UNL     1      24.841   7.005  49.691  1.00  0.00    -0.288 OA
HETATM    6  C4  UNL     1      25.624   5.832  49.678  1.00  0.00     0.202 A 
HETATM    7  N1  UNL     1      26.586   6.005  48.781  1.00  0.00    -0.215 NA
HETATM    8  C5  UNL     1      27.506   5.082  48.518  1.00  0.00     0.238 A 
HETATM    9  N2  UNL     1      27.435   3.941  49.198  1.00  0.00    -0.222 NA
HETATM   10  C6  UNL     1      26.512   3.658  50.121  1.00  0.00     0.156 A 
HETATM   11  C14 UNL     1      25.541   4.632  50.400  1.00  0.00     0.128 A 
HETATM   12  N4  UNL     1      24.547   4.412  51.358  1.00  0.00    -0.379 N 
HETATM   13  C15 UNL     1      23.206   4.827  51.601  1.00  0.00     0.161 C 
HETATM   14  C16 UNL     1      22.770   6.056  50.951  1.00  0.00    -0.003 C 
HETATM   15  C17 UNL     1      21.511   6.459  50.916  1.00  0.00     0.055 C 
HETATM   16  H10 UNL     1      24.937   3.745  52.094  1.00  0.00     0.160 HD
ENDROOT
BRANCH  10  17
HETATM   17  N3  UNL     1      26.296   2.515  50.906  1.00  0.00    -0.369 N 
HETATM   18  H2  UNL     1      26.096   3.038  51.808  1.00  0.00     0.161 HD
BRANCH  17  19
HETATM   19  C7  UNL     1      26.067   1.403  51.748  1.00  0.00     0.160 C 
BRANCH  19  20
HETATM   20  C8  UNL     1      27.218   0.955  52.588  1.00  0.00    -0.041 A 
HETATM   21  C9  UNL     1      27.355  -0.405  52.641  1.00  0.00     0.009 A 
HETATM   22  C10 UNL     1      28.372  -0.983  53.371  1.00  0.00     0.001 A 
HETATM   23  C11 UNL     1      29.207  -0.110  54.019  1.00  0.00     0.000 A 
HETATM   24  C12 UNL     1      29.101   1.259  53.991  1.00  0.00     0.001 A 
HETATM   25  C13 UNL     1      28.065   1.823  53.245  1.00  0.00     0.009 A 
ENDBRANCH  19  20
ENDBRANCH  17  19
ENDBRANCH  10  17
TORSDOF 3
ENDMDL
