MODEL 1
REMARK VINA RESULT:      -7.3      0.000      0.000
REMARK  2 active torsions:
REMARK  status: ('A' for Active; 'I' for Inactive)
REMARK    1  A    between atoms: O1_2  and  C2_3 
REMARK    2  A    between atoms: C14_18  and  O3_19 
ROOT
HETATM    1  C2  UNL     1      22.496   2.171  52.146  1.00  0.00     0.098 A 
HETATM    2  C3  UNL     1      22.835   0.919  52.412  1.00  0.00     0.018 A 
HETATM    3  C4  UNL     1      24.082   0.376  52.979  1.00  0.00     0.073 A 
HETATM    4  C5  UNL     1      25.004   1.486  53.244  1.00  0.00     0.001 A 
HETATM    5  C6  UNL     1      26.199   1.311  53.754  1.00  0.00     0.177 C 
HETATM    6  N1  UNL     1      27.067   2.516  53.987  1.00  0.00    -0.219 NA
HETATM    7  C7  UNL     1      28.345   2.671  53.582  1.00  0.00     0.210 C 
HETATM    8  N2  UNL     1      29.507   1.740  53.454  1.00  0.00    -0.354 N 
HETATM    9  C8  UNL     1      29.448   0.328  53.815  1.00  0.00     0.016 C 
HETATM   10  C9  UNL     1      29.855  -0.789  53.109  1.00  0.00     0.028 C 
HETATM   11  C10 UNL     1      28.537  -1.599  53.189  1.00  0.00     0.035 C 
HETATM   12  C11 UNL     1      27.715  -0.753  53.913  1.00  0.00     0.061 C 
HETATM   13  C12 UNL     1      28.752  -0.385  55.020  1.00  0.00     0.122 C 
HETATM   14  O2  UNL     1      26.411  -0.156  53.986  1.00  0.00    -0.295 OA
HETATM   15  C13 UNL     1      24.660   2.873  52.962  1.00  0.00     0.051 A 
HETATM   16  C14 UNL     1      23.486   3.189  52.449  1.00  0.00     0.101 A 
HETATM   17  H8  UNL     1      30.478   1.752  53.121  1.00  0.00     0.166 HD
ENDROOT
BRANCH  16  18
HETATM   18  O3  UNL     1      23.095   4.505  52.155  1.00  0.00    -0.353 OA
HETATM   19  C15 UNL     1      23.797   5.177  51.125  1.00  0.00     0.210 C 
ENDBRANCH  16  18
BRANCH   1  20
HETATM   20  O1  UNL     1      21.230   2.355  51.607  1.00  0.00    -0.353 OA
HETATM   21  C1  UNL     1      20.030   2.334  52.348  1.00  0.00     0.210 C 
ENDBRANCH   1  20
TORSDOF 2
ENDMDL
MODEL 2
REMARK VINA RESULT:      -7.2      3.046      6.977
REMARK  2 active torsions:
REMARK  status: ('A' for Active; 'I' for Inactive)
REMARK    1  A    between atoms: O1_2  and  C2_3 
REMARK    2  A    between atoms: C14_18  and  O3_19 
ROOT
HETATM    1  C2  UNL     1      26.730  -0.203  53.602  1.00  0.00     0.098 A 
HETATM    2  C3  UNL     1      26.885   0.572  52.538  1.00  0.00     0.018 A 
HETATM    3  C4  UNL     1      25.879   1.297  51.741  1.00  0.00     0.073 A 
HETATM    4  C5  UNL     1      24.551   1.042  52.310  1.00  0.00     0.001 A 
HETATM    5  C6  UNL     1      23.453   1.557  51.812  1.00  0.00     0.177 C 
HETATM    6  N1  UNL     1      22.141   1.234  52.470  1.00  0.00    -0.219 NA
HETATM    7  C7  UNL     1      21.029   0.781  51.855  1.00  0.00     0.210 C 
HETATM    8  N2  UNL     1      20.405   1.046  50.524  1.00  0.00    -0.354 N 
HETATM    9  C8  UNL     1      20.957   1.983  49.550  1.00  0.00     0.016 C 
HETATM   10  C9  UNL     1      21.202   1.821  48.199  1.00  0.00     0.028 C 
HETATM   11  C10 UNL     1      22.686   2.263  48.183  1.00  0.00     0.035 C 
HETATM   12  C11 UNL     1      22.917   2.565  49.514  1.00  0.00     0.061 C 
HETATM   13  C12 UNL     1      21.612   3.388  49.750  1.00  0.00     0.122 C 
HETATM   14  O2  UNL     1      23.816   2.396  50.621  1.00  0.00    -0.295 OA
HETATM   15  C13 UNL     1      24.349   0.195  53.478  1.00  0.00     0.051 A 
HETATM   16  C14 UNL     1      25.372  -0.384  54.079  1.00  0.00     0.101 A 
HETATM   17  H8  UNL     1      19.608   0.726  49.962  1.00  0.00     0.166 HD
ENDROOT
BRANCH  16  18
HETATM   18  O3  UNL     1      25.243  -1.210  55.207  1.00  0.00    -0.353 OA
HETATM   19  C15 UNL     1      23.943  -1.386  55.740  1.00  0.00     0.210 C 
ENDBRANCH  16  18
BRANCH   1  20
HETATM   20  O1  UNL     1      27.894  -0.747  54.129  1.00  0.00    -0.353 OA
HETATM   21  C1  UNL     1      29.012   0.002  54.550  1.00  0.00     0.210 C 
ENDBRANCH   1  20
TORSDOF 2
ENDMDL
MODEL 3
REMARK VINA RESULT:      -7.1      2.880      4.159
REMARK  2 active torsions:
REMARK  status: ('A' for Active; 'I' for Inactive)
REMARK    1  A    between atoms: O1_2  and  C2_3 
REMARK    2  A    between atoms: C14_18  and  O3_19 
ROOT
HETATM    1  C2  UNL     1      19.192  -0.871  53.279  1.00  0.00     0.098 A 
HETATM    2  C3  UNL     1      20.152  -1.510  53.932  1.00  0.00     0.018 A 
HETATM    3  C4  UNL     1      21.580  -1.177  54.080  1.00  0.00     0.073 A 
HETATM    4  C5  UNL     1      21.853   0.067  53.351  1.00  0.00     0.001 A 
HETATM    5  C6  UNL     1      23.044   0.615  53.303  1.00  0.00     0.177 C 
HETATM    6  N1  UNL     1      23.219   1.891  52.528  1.00  0.00    -0.219 NA
HETATM    7  C7  UNL     1      24.156   2.134  51.588  1.00  0.00     0.210 C 
HETATM    8  N2  UNL     1      25.585   1.728  51.428  1.00  0.00    -0.354 N 
HETATM    9  C8  UNL     1      26.303   0.914  52.403  1.00  0.00     0.016 C 
HETATM   10  C9  UNL     1      27.085  -0.212  52.219  1.00  0.00     0.028 C 
HETATM   11  C10 UNL     1      26.384  -1.143  53.240  1.00  0.00     0.035 C 
HETATM   12  C11 UNL     1      25.389  -0.326  53.747  1.00  0.00     0.061 C 
HETATM   13  C12 UNL     1      26.276   0.940  53.965  1.00  0.00     0.122 C 
HETATM   14  O2  UNL     1      23.996  -0.239  54.088  1.00  0.00    -0.295 OA
HETATM   15  C13 UNL     1      20.820   0.792  52.625  1.00  0.00     0.051 A 
HETATM   16  C14 UNL     1      19.577   0.350  52.594  1.00  0.00     0.101 A 
HETATM   17  H8  UNL     1      26.346   1.820  50.745  1.00  0.00     0.166 HD
ENDROOT
BRANCH  16  18
HETATM   18  O3  UNL     1      18.537   1.002  51.912  1.00  0.00    -0.353 OA
HETATM   19  C15 UNL     1      18.697   2.385  51.653  1.00  0.00     0.210 C 
ENDBRANCH  16  18
BRANCH   1  20
HETATM   20  O1  UNL     1      17.932  -1.452  53.332  1.00  0.00    -0.353 OA
HETATM   21  C1  UNL     1      17.686  -2.810  53.621  1.00  0.00     0.210 C 
ENDBRANCH   1  20
TORSDOF 2
ENDMDL
MODEL 4
REMARK VINA RESULT:      -7.1      2.341      6.655
REMARK  2 active torsions:
REMARK  status: ('A' for Active; 'I' for Inactive)
REMARK    1  A    between atoms: O1_2  and  C2_3 
REMARK    2  A    between atoms: C14_18  and  O3_19 
ROOT
HETATM    1  C2  UNL     1      26.699   0.225  54.246  1.00  0.00     0.098 A 
HETATM    2  C3  UNL     1      25.785  -0.663  53.885  1.00  0.00     0.018 A 
HETATM    3  C4  UNL     1      24.536  -0.480  53.124  1.00  0.00     0.073 A 
HETATM    4  C5  UNL     1      24.399   0.938  52.774  1.00  0.00     0.001 A 
HETATM    5  C6  UNL     1      23.382   1.407  52.091  1.00  0.00     0.177 C 
HETATM    6  N1  UNL     1      23.337   2.878  51.784  1.00  0.00    -0.219 NA
HETATM    7  C7  UNL     1      22.298   3.709  52.007  1.00  0.00     0.210 C 
HETATM    8  N2  UNL     1      20.814   3.550  51.931  1.00  0.00    -0.354 N 
HETATM    9  C8  UNL     1      20.159   2.310  51.526  1.00  0.00     0.016 C 
HETATM   10  C9  UNL     1      19.123   1.615  52.121  1.00  0.00     0.028 C 
HETATM   11  C10 UNL     1      19.799   0.224  52.199  1.00  0.00     0.035 C 
HETATM   12  C11 UNL     1      21.039   0.468  51.635  1.00  0.00     0.061 C 
HETATM   13  C12 UNL     1      20.529   1.284  50.406  1.00  0.00     0.122 C 
HETATM   14  O2  UNL     1      22.455   0.271  51.773  1.00  0.00    -0.295 OA
HETATM   15  C13 UNL     1      25.387   1.938  53.157  1.00  0.00     0.051 A 
HETATM   16  C14 UNL     1      26.461   1.599  53.845  1.00  0.00     0.101 A 
HETATM   17  H8  UNL     1      19.964   4.093  52.121  1.00  0.00     0.166 HD
ENDROOT
BRANCH  16  18
HETATM   18  O3  UNL     1      27.449   2.515  54.244  1.00  0.00    -0.353 OA
HETATM   19  C15 UNL     1      28.604   2.619  53.433  1.00  0.00     0.210 C 
ENDBRANCH  16  18
BRANCH   1  20
HETATM   20  O1  UNL     1      27.776  -0.273  54.968  1.00  0.00    -0.353 OA
HETATM   21  C1  UNL     1      29.033  -0.595  54.416  1.00  0.00     0.210 C 
ENDBRANCH   1  20
TORSDOF 2
ENDMDL
MODEL 5
REMARK VINA RESULT:      -7.0      1.950      3.090
REMARK  2 active torsions:
REMARK  status: ('A' for Active; 'I' for Inactive)
REMARK    1  A    between atoms: O1_2  and  C2_3 
REMARK    2  A    between atoms: C14_18  and  O3_19 
ROOT
HETATM    1  C2  UNL     1      21.993   2.864  50.943  1.00  0.00     0.098 A 
HETATM    2  C3  UNL     1      23.238   3.113  50.568  1.00  0.00     0.018 A 
HETATM    3  C4  UNL     1      24.498   2.468  50.981  1.00  0.00     0.073 A 
HETATM    4  C5  UNL     1      24.193   1.412  51.952  1.00  0.00     0.001 A 
HETATM    5  C6  UNL     1      25.118   0.660  52.498  1.00  0.00     0.177 C 
HETATM    6  N1  UNL     1      24.699  -0.396  53.483  1.00  0.00    -0.219 NA
HETATM    7  C7  UNL     1      25.214  -0.588  54.715  1.00  0.00     0.210 C 
HETATM    8  N2  UNL     1      26.586  -0.457  55.292  1.00  0.00    -0.354 N 
HETATM    9  C8  UNL     1      27.754  -0.072  54.508  1.00  0.00     0.016 C 
HETATM   10  C9  UNL     1      28.724   0.880  54.764  1.00  0.00     0.028 C 
HETATM   11  C10 UNL     1      28.639   1.656  53.426  1.00  0.00     0.035 C 
HETATM   12  C11 UNL     1      27.654   0.962  52.746  1.00  0.00     0.061 C 
HETATM   13  C12 UNL     1      28.183  -0.473  53.059  1.00  0.00     0.122 C 
HETATM   14  O2  UNL     1      26.455   1.082  51.964  1.00  0.00    -0.295 OA
HETATM   15  C13 UNL     1      22.834   1.114  52.383  1.00  0.00     0.051 A 
HETATM   16  C14 UNL     1      21.808   1.796  51.909  1.00  0.00     0.101 A 
HETATM   17  H8  UNL     1      27.056  -0.534  56.202  1.00  0.00     0.166 HD
ENDROOT
BRANCH  16  18
HETATM   18  O3  UNL     1      20.476   1.558  52.285  1.00  0.00    -0.353 OA
HETATM   19  C15 UNL     1      19.795   0.502  51.631  1.00  0.00     0.210 C 
ENDBRANCH  16  18
BRANCH   1  20
HETATM   20  O1  UNL     1      21.014   3.660  50.363  1.00  0.00    -0.353 OA
HETATM   21  C1  UNL     1      20.679   4.961  50.792  1.00  0.00     0.210 C 
ENDBRANCH   1  20
TORSDOF 2
ENDMDL
MODEL 6
REMARK VINA RESULT:      -6.9      2.447      6.177
REMARK  2 active torsions:
REMARK  status: ('A' for Active; 'I' for Inactive)
REMARK    1  A    between atoms: O1_2  and  C2_3 
REMARK    2  A    between atoms: C14_18  and  O3_19 
ROOT
HETATM    1  C2  UNL     1      25.460  -0.111  53.518  1.00  0.00     0.098 A 
HETATM    2  C3  UNL     1      24.431   0.722  53.535  1.00  0.00     0.018 A 
HETATM    3  C4  UNL     1      24.142   1.888  52.680  1.00  0.00     0.073 A 
HETATM    4  C5  UNL     1      25.230   2.042  51.708  1.00  0.00     0.001 A 
HETATM    5  C6  UNL     1      25.250   2.997  50.809  1.00  0.00     0.177 C 
HETATM    6  N1  UNL     1      26.412   3.067  49.858  1.00  0.00    -0.219 NA
HETATM    7  C7  UNL     1      27.162   4.157  49.592  1.00  0.00     0.210 C 
HETATM    8  N2  UNL     1      26.860   5.616  49.482  1.00  0.00    -0.354 N 
HETATM    9  C8  UNL     1      25.521   6.173  49.642  1.00  0.00     0.016 C 
HETATM   10  C9  UNL     1      25.087   7.240  50.408  1.00  0.00     0.028 C 
HETATM   11  C10 UNL     1      23.946   6.522  51.169  1.00  0.00     0.035 C 
HETATM   12  C11 UNL     1      24.011   5.239  50.655  1.00  0.00     0.061 C 
HETATM   13  C12 UNL     1      24.134   5.644  49.153  1.00  0.00     0.122 C 
HETATM   14  O2  UNL     1      24.019   3.839  50.978  1.00  0.00    -0.295 OA
HETATM   15  C13 UNL     1      26.374   1.142  51.664  1.00  0.00     0.051 A 
HETATM   16  C14 UNL     1      26.477   0.136  52.513  1.00  0.00     0.101 A 
HETATM   17  H8  UNL     1      27.356   6.502  49.334  1.00  0.00     0.166 HD
ENDROOT
BRANCH  16  18
HETATM   18  O3  UNL     1      27.554  -0.765  52.522  1.00  0.00    -0.353 OA
HETATM   19  C15 UNL     1      28.646  -0.465  53.371  1.00  0.00     0.210 C 
ENDBRANCH  16  18
BRANCH   1  20
HETATM   20  O1  UNL     1      25.437  -1.122  54.469  1.00  0.00    -0.353 OA
HETATM   21  C1  UNL     1      24.538  -1.184  55.554  1.00  0.00     0.210 C 
ENDBRANCH   1  20
TORSDOF 2
ENDMDL
MODEL 7
REMARK VINA RESULT:      -6.9      7.809      9.066
REMARK  2 active torsions:
REMARK  status: ('A' for Active; 'I' for Inactive)
REMARK    1  A    between atoms: O1_2  and  C2_3 
REMARK    2  A    between atoms: C14_18  and  O3_19 
ROOT
HETATM    1  C2  UNL     1      28.237   7.643  48.580  1.00  0.00     0.098 A 
HETATM    2  C3  UNL     1      28.324   6.364  48.244  1.00  0.00     0.018 A 
HETATM    3  C4  UNL     1      29.508   5.495  48.124  1.00  0.00     0.073 A 
HETATM    4  C5  UNL     1      30.705   6.279  48.450  1.00  0.00     0.001 A 
HETATM    5  C6  UNL     1      31.914   5.771  48.432  1.00  0.00     0.177 C 
HETATM    6  N1  UNL     1      33.074   6.660  48.784  1.00  0.00    -0.219 NA
HETATM    7  C7  UNL     1      34.203   6.824  48.062  1.00  0.00     0.210 C 
HETATM    8  N2  UNL     1      35.034   5.907  47.225  1.00  0.00    -0.354 N 
HETATM    9  C8  UNL     1      34.735   4.490  47.046  1.00  0.00     0.016 C 
HETATM   10  C9  UNL     1      34.667   3.734  45.891  1.00  0.00     0.028 C 
HETATM   11  C10 UNL     1      33.260   3.121  46.105  1.00  0.00     0.035 C 
HETATM   12  C11 UNL     1      32.881   3.673  47.316  1.00  0.00     0.061 C 
HETATM   13  C12 UNL     1      34.225   3.422  48.068  1.00  0.00     0.122 C 
HETATM   14  O2  UNL     1      31.821   4.328  48.031  1.00  0.00    -0.295 OA
HETATM   15  C13 UNL     1      30.641   7.686  48.824  1.00  0.00     0.051 A 
HETATM   16  C14 UNL     1      29.485   8.319  48.883  1.00  0.00     0.101 A 
HETATM   17  H8  UNL     1      35.860   5.946  46.617  1.00  0.00     0.166 HD
ENDROOT
BRANCH  16  18
HETATM   18  O3  UNL     1      29.358   9.672  49.235  1.00  0.00    -0.353 OA
HETATM   19  C15 UNL     1      30.531  10.463  49.210  1.00  0.00     0.210 C 
ENDBRANCH  16  18
BRANCH   1  20
HETATM   20  O1  UNL     1      26.956   8.179  48.599  1.00  0.00    -0.353 OA
HETATM   21  C1  UNL     1      26.054   8.064  49.677  1.00  0.00     0.210 C 
ENDBRANCH   1  20
TORSDOF 2
ENDMDL
MODEL 8
REMARK VINA RESULT:      -6.6      2.942      7.390
REMARK  2 active torsions:
REMARK  status: ('A' for Active; 'I' for Inactive)
REMARK    1  A    between atoms: O1_2  and  C2_3 
REMARK    2  A    between atoms: C14_18  and  O3_19 
ROOT
HETATM    1  C2  UNL     1      26.185   0.384  52.837  1.00  0.00     0.098 A 
HETATM    2  C3  UNL     1      25.669   1.154  51.891  1.00  0.00     0.018 A 
HETATM    3  C4  UNL     1      24.267   1.538  51.643  1.00  0.00     0.073 A 
HETATM    4  C5  UNL     1      23.418   0.910  52.661  1.00  0.00     0.001 A 
HETATM    5  C6  UNL     1      22.117   1.071  52.699  1.00  0.00     0.177 C 
HETATM    6  N1  UNL     1      21.337   0.384  53.785  1.00  0.00    -0.219 NA
HETATM    7  C7  UNL     1      20.241  -0.386  53.616  1.00  0.00     0.210 C 
HETATM    8  N2  UNL     1      19.078  -0.336  52.680  1.00  0.00    -0.354 N 
HETATM    9  C8  UNL     1      18.900   0.708  51.676  1.00  0.00     0.016 C 
HETATM   10  C9  UNL     1      18.601   0.607  50.330  1.00  0.00     0.028 C 
HETATM   11  C10 UNL     1      19.762   1.468  49.775  1.00  0.00     0.035 C 
HETATM   12  C11 UNL     1      20.428   1.843  50.929  1.00  0.00     0.061 C 
HETATM   13  C12 UNL     1      19.165   2.247  51.752  1.00  0.00     0.122 C 
HETATM   14  O2  UNL     1      21.711   1.963  51.562  1.00  0.00    -0.295 OA
HETATM   15  C13 UNL     1      23.956   0.059  53.713  1.00  0.00     0.051 A 
HETATM   16  C14 UNL     1      25.251  -0.184  53.792  1.00  0.00     0.101 A 
HETATM   17  H8  UNL     1      18.243  -0.885  52.449  1.00  0.00     0.166 HD
ENDROOT
BRANCH  16  18
HETATM   18  O3  UNL     1      25.830  -0.996  54.780  1.00  0.00    -0.353 OA
HETATM   19  C15 UNL     1      25.202  -1.024  56.048  1.00  0.00     0.210 C 
ENDBRANCH  16  18
BRANCH   1  20
HETATM   20  O1  UNL     1      27.563   0.215  52.796  1.00  0.00    -0.353 OA
HETATM   21  C1  UNL     1      28.493   1.047  53.452  1.00  0.00     0.210 C 
ENDBRANCH   1  20
TORSDOF 2
ENDMDL
MODEL 9
REMARK VINA RESULT:      -6.6      4.872      7.329
REMARK  2 active torsions:
REMARK  status: ('A' for Active; 'I' for Inactive)
REMARK    1  A    between atoms: O1_2  and  C2_3 
REMARK    2  A    between atoms: C14_18  and  O3_19 
ROOT
HETATM    1  C2  UNL     1      28.671   7.006  47.852  1.00  0.00     0.098 A 
HETATM    2  C3  UNL     1      28.733   5.695  48.025  1.00  0.00     0.018 A 
HETATM    3  C4  UNL     1      27.777   4.779  48.672  1.00  0.00     0.073 A 
HETATM    4  C5  UNL     1      26.630   5.557  49.154  1.00  0.00     0.001 A 
HETATM    5  C6  UNL     1      25.611   5.012  49.773  1.00  0.00     0.177 C 
HETATM    6  N1  UNL     1      24.484   5.898  50.227  1.00  0.00    -0.219 NA
HETATM    7  C7  UNL     1      23.945   5.936  51.464  1.00  0.00     0.210 C 
HETATM    8  N2  UNL     1      23.676   4.898  52.504  1.00  0.00    -0.354 N 
HETATM    9  C8  UNL     1      23.967   3.480  52.319  1.00  0.00     0.016 C 
HETATM   10  C9  UNL     1      24.630   2.593  53.146  1.00  0.00     0.028 C 
HETATM   11  C10 UNL     1      25.662   2.057  52.123  1.00  0.00     0.035 C 
HETATM   12  C11 UNL     1      25.335   2.763  50.979  1.00  0.00     0.061 C 
HETATM   13  C12 UNL     1      23.790   2.561  51.067  1.00  0.00     0.122 C 
HETATM   14  O2  UNL     1      25.852   3.534  49.882  1.00  0.00    -0.295 OA
HETATM   15  C13 UNL     1      26.533   7.000  48.978  1.00  0.00     0.051 A 
HETATM   16  C14 UNL     1      27.490   7.673  48.368  1.00  0.00     0.101 A 
HETATM   17  H8  UNL     1      23.323   4.836  53.466  1.00  0.00     0.166 HD
ENDROOT
BRANCH  16  18
HETATM   18  O3  UNL     1      27.456   9.063  48.167  1.00  0.00    -0.353 OA
HETATM   19  C15 UNL     1      27.883   9.885  49.238  1.00  0.00     0.210 C 
ENDBRANCH  16  18
BRANCH   1  20
HETATM   20  O1  UNL     1      29.750   7.583  47.195  1.00  0.00    -0.353 OA
HETATM   21  C1  UNL     1      30.918   8.055  47.829  1.00  0.00     0.210 C 
ENDBRANCH   1  20
TORSDOF 2
ENDMDL
