MODEL 1
REMARK VINA RESULT:      -9.2      0.000      0.000
REMARK  9 active torsions:
REMARK  status: ('A' for Active; 'I' for Inactive)
REMARK    1  A    between atoms: O1_1  and  C1_2 
REMARK    2  A    between atoms: C2_3  and  C3_4 
REMARK    3  A    between atoms: C3_4  and  N1_5 
REMARK    4  A    between atoms: N1_5  and  C4_6 
REMARK    5  A    between atoms: N1_5  and  C11_14 
REMARK    6  A    between atoms: C4_6  and  C5_7 
REMARK    7  A    between atoms: C8_10  and  O2_11 
REMARK    8  A    between atoms: C11_14  and  N2_16 
REMARK    9  A    between atoms: N2_16  and  C12_17 
ROOT
HETATM    1  N1  UNL     1      26.097   2.156  51.699  1.00  0.00    -0.349 N 
ENDROOT
BRANCH   1   2
HETATM    2  C3  UNL     1      26.192   2.270  50.287  1.00  0.00     0.166 C 
BRANCH   2   3
HETATM    3  C2  UNL     1      25.938   3.558  49.656  1.00  0.00    -0.011 A 
HETATM    4  C1  UNL     1      26.621   4.616  49.297  1.00  0.00     0.054 A 
HETATM    5  C22 UNL     1      26.527   5.922  48.691  1.00  0.00     0.092 A 
HETATM    6  C21 UNL     1      25.182   6.430  48.374  1.00  0.00    -0.020 A 
HETATM    7  C20 UNL     1      24.010   5.836  48.455  1.00  0.00    -0.004 A 
HETATM    8  C19 UNL     1      23.625   4.501  48.873  1.00  0.00     0.000 A 
HETATM    9  C18 UNL     1      24.481   3.590  49.370  1.00  0.00     0.011 A 
BRANCH   4  10
HETATM   10  O1  UNL     1      27.978   4.530  49.571  1.00  0.00    -0.364 OA
HETATM   11  H1  UNL     1      28.376   4.296  50.466  1.00  0.00     0.217 HD
ENDBRANCH   4  10
ENDBRANCH   2   3
ENDBRANCH   1   2
BRANCH   1  12
HETATM   12  C4  UNL     1      27.155   1.982  52.664  1.00  0.00     0.164 C 
BRANCH  12  13
HETATM   13  C5  UNL     1      27.506   0.516  52.797  1.00  0.00    -0.040 A 
HETATM   14  C6  UNL     1      28.711   0.127  53.393  1.00  0.00     0.011 A 
HETATM   15  C7  UNL     1      29.135  -1.160  53.568  1.00  0.00     0.037 A 
HETATM   16  C8  UNL     1      28.276  -2.161  53.105  1.00  0.00     0.065 A 
HETATM   17  C9  UNL     1      27.093  -1.819  52.518  1.00  0.00     0.037 A 
HETATM   18  C10 UNL     1      26.676  -0.511  52.346  1.00  0.00     0.011 A 
BRANCH  16  19
HETATM   19  O2  UNL     1      28.612  -3.499  53.233  1.00  0.00    -0.361 OA
HETATM   20  H8  UNL     1      28.982  -3.795  54.135  1.00  0.00     0.217 HD
ENDBRANCH  16  19
ENDBRANCH  12  13
ENDBRANCH   1  12
BRANCH   1  21
HETATM   21  C11 UNL     1      24.738   2.217  52.199  1.00  0.00     0.174 C 
HETATM   22  S1  UNL     1      24.229   3.455  53.121  1.00  0.00    -0.041 SA
BRANCH  21  23
HETATM   23  N2  UNL     1      23.717   1.261  51.966  1.00  0.00    -0.333 N 
HETATM   24  H11 UNL     1      23.286   0.785  51.118  1.00  0.00     0.168 HD
BRANCH  23  25
HETATM   25  C12 UNL     1      22.886   0.596  52.921  1.00  0.00     0.034 A 
HETATM   26  C13 UNL     1      21.536   0.878  53.078  1.00  0.00     0.029 A 
HETATM   27  C14 UNL     1      20.825   0.179  54.030  1.00  0.00     0.002 A 
HETATM   28  C15 UNL     1      21.444  -0.782  54.809  1.00  0.00     0.000 A 
HETATM   29  C16 UNL     1      22.785  -1.081  54.673  1.00  0.00     0.002 A 
HETATM   30  C17 UNL     1      23.485  -0.368  53.711  1.00  0.00     0.029 A 
ENDBRANCH  23  25
ENDBRANCH  21  23
ENDBRANCH   1  21
TORSDOF 9
ENDMDL
MODEL 2
REMARK VINA RESULT:      -9.0      2.211      6.703
REMARK  9 active torsions:
REMARK  status: ('A' for Active; 'I' for Inactive)
REMARK    1  A    between atoms: O1_1  and  C1_2 
REMARK    2  A    between atoms: C2_3  and  C3_4 
REMARK    3  A    between atoms: C3_4  and  N1_5 
REMARK    4  A    between atoms: N1_5  and  C4_6 
REMARK    5  A    between atoms: N1_5  and  C11_14 
REMARK    6  A    between atoms: C4_6  and  C5_7 
REMARK    7  A    between atoms: C8_10  and  O2_11 
REMARK    8  A    between atoms: C11_14  and  N2_16 
REMARK    9  A    between atoms: N2_16  and  C12_17 
ROOT
HETATM    1  N1  UNL     1      24.779   2.296  51.766  1.00  0.00    -0.349 N 
ENDROOT
BRANCH   1   2
HETATM    2  C3  UNL     1      25.691   1.343  51.241  1.00  0.00     0.166 C 
BRANCH   2   3
HETATM    3  C2  UNL     1      26.807   0.896  52.064  1.00  0.00    -0.011 A 
HETATM    4  C1  UNL     1      27.838   1.424  52.674  1.00  0.00     0.054 A 
HETATM    5  C22 UNL     1      28.992   1.135  53.492  1.00  0.00     0.092 A 
HETATM    6  C21 UNL     1      29.299  -0.280  53.759  1.00  0.00    -0.020 A 
HETATM    7  C20 UNL     1      28.622  -1.367  53.456  1.00  0.00    -0.004 A 
HETATM    8  C19 UNL     1      27.360  -1.565  52.768  1.00  0.00     0.000 A 
HETATM    9  C18 UNL     1      26.645  -0.574  52.204  1.00  0.00     0.011 A 
BRANCH   4  10
HETATM   10  O1  UNL     1      27.936   2.800  52.526  1.00  0.00    -0.364 OA
HETATM   11  H1  UNL     1      27.247   3.467  52.835  1.00  0.00     0.217 HD
ENDBRANCH   4  10
ENDBRANCH   2   3
ENDBRANCH   1   2
BRANCH   1  12
HETATM   12  C4  UNL     1      24.244   2.391  53.102  1.00  0.00     0.164 C 
BRANCH  12  13
HETATM   13  C5  UNL     1      23.143   1.372  53.300  1.00  0.00    -0.040 A 
HETATM   14  C6  UNL     1      23.432   0.110  53.831  1.00  0.00     0.011 A 
HETATM   15  C7  UNL     1      22.527  -0.888  54.055  1.00  0.00     0.037 A 
HETATM   16  C8  UNL     1      21.200  -0.604  53.716  1.00  0.00     0.065 A 
HETATM   17  C9  UNL     1      20.881   0.615  53.195  1.00  0.00     0.037 A 
HETATM   18  C10 UNL     1      21.809   1.618  52.974  1.00  0.00     0.011 A 
BRANCH  16  19
HETATM   19  O2  UNL     1      20.203  -1.548  53.902  1.00  0.00    -0.361 OA
HETATM   20  H8  UNL     1      20.467  -2.405  54.386  1.00  0.00     0.217 HD
ENDBRANCH  16  19
ENDBRANCH  12  13
ENDBRANCH   1  12
BRANCH   1  21
HETATM   21  C11 UNL     1      24.341   3.280  50.797  1.00  0.00     0.174 C 
HETATM   22  S1  UNL     1      23.271   2.906  49.633  1.00  0.00    -0.041 SA
BRANCH  21  23
HETATM   23  N2  UNL     1      24.760   4.634  50.732  1.00  0.00    -0.333 N 
HETATM   24  H11 UNL     1      24.501   5.544  51.217  1.00  0.00     0.168 HD
BRANCH  23  25
HETATM   25  C12 UNL     1      25.764   5.215  49.896  1.00  0.00     0.034 A 
HETATM   26  C13 UNL     1      25.790   6.564  49.570  1.00  0.00     0.029 A 
HETATM   27  C14 UNL     1      26.804   7.023  48.755  1.00  0.00     0.002 A 
HETATM   28  C15 UNL     1      27.770   6.158  48.276  1.00  0.00     0.000 A 
HETATM   29  C16 UNL     1      27.767   4.813  48.585  1.00  0.00     0.002 A 
HETATM   30  C17 UNL     1      26.741   4.368  49.405  1.00  0.00     0.029 A 
ENDBRANCH  23  25
ENDBRANCH  21  23
ENDBRANCH   1  21
TORSDOF 9
ENDMDL
MODEL 3
REMARK VINA RESULT:      -8.9      2.051      6.235
REMARK  9 active torsions:
REMARK  status: ('A' for Active; 'I' for Inactive)
REMARK    1  A    between atoms: O1_1  and  C1_2 
REMARK    2  A    between atoms: C2_3  and  C3_4 
REMARK    3  A    between atoms: C3_4  and  N1_5 
REMARK    4  A    between atoms: N1_5  and  C4_6 
REMARK    5  A    between atoms: N1_5  and  C11_14 
REMARK    6  A    between atoms: C4_6  and  C5_7 
REMARK    7  A    between atoms: C8_10  and  O2_11 
REMARK    8  A    between atoms: C11_14  and  N2_16 
REMARK    9  A    between atoms: N2_16  and  C12_17 
ROOT
HETATM    1  N1  UNL     1      24.385   2.436  52.531  1.00  0.00    -0.349 N 
ENDROOT
BRANCH   1   2
HETATM    2  C3  UNL     1      24.031   1.158  52.024  1.00  0.00     0.166 C 
BRANCH   2   3
HETATM    3  C2  UNL     1      22.781   0.543  52.448  1.00  0.00    -0.011 A 
HETATM    4  C1  UNL     1      21.516   0.581  52.115  1.00  0.00     0.054 A 
HETATM    5  C22 UNL     1      20.205   0.061  52.421  1.00  0.00     0.092 A 
HETATM    6  C21 UNL     1      20.078  -0.806  53.605  1.00  0.00    -0.020 A 
HETATM    7  C20 UNL     1      21.004  -1.293  54.404  1.00  0.00    -0.004 A 
HETATM    8  C19 UNL     1      22.449  -1.157  54.412  1.00  0.00     0.000 A 
HETATM    9  C18 UNL     1      23.137  -0.370  53.565  1.00  0.00     0.011 A 
BRANCH   4  10
HETATM   10  O1  UNL     1      21.238   1.435  51.057  1.00  0.00    -0.364 OA
HETATM   11  H1  UNL     1      21.351   1.208  50.083  1.00  0.00     0.217 HD
ENDBRANCH   4  10
ENDBRANCH   2   3
ENDBRANCH   1   2
BRANCH   1  12
HETATM   12  C4  UNL     1      25.133   2.759  53.722  1.00  0.00     0.164 C 
BRANCH  12  13
HETATM   13  C5  UNL     1      26.335   1.849  53.846  1.00  0.00    -0.040 A 
HETATM   14  C6  UNL     1      27.507   2.121  53.130  1.00  0.00     0.011 A 
HETATM   15  C7  UNL     1      28.652   1.376  53.161  1.00  0.00     0.037 A 
HETATM   16  C8  UNL     1      28.631   0.248  53.987  1.00  0.00     0.065 A 
HETATM   17  C9  UNL     1      27.507  -0.048  54.700  1.00  0.00     0.037 A 
HETATM   18  C10 UNL     1      26.353   0.715  54.658  1.00  0.00     0.011 A 
BRANCH  16  19
HETATM   19  O2  UNL     1      29.741  -0.576  54.090  1.00  0.00    -0.361 OA
HETATM   20  H8  UNL     1      29.945  -0.957  55.011  1.00  0.00     0.217 HD
ENDBRANCH  16  19
ENDBRANCH  12  13
ENDBRANCH   1  12
BRANCH   1  21
HETATM   21  C11 UNL     1      23.903   3.538  51.724  1.00  0.00     0.174 C 
HETATM   22  S1  UNL     1      22.998   4.726  52.364  1.00  0.00    -0.041 SA
BRANCH  21  23
HETATM   23  N2  UNL     1      24.141   3.728  50.338  1.00  0.00    -0.333 N 
HETATM   24  H11 UNL     1      23.648   3.476  49.430  1.00  0.00     0.168 HD
BRANCH  23  25
HETATM   25  C12 UNL     1      25.241   4.388  49.706  1.00  0.00     0.034 A 
HETATM   26  C13 UNL     1      26.478   3.789  49.519  1.00  0.00     0.029 A 
HETATM   27  C14 UNL     1      27.473   4.515  48.898  1.00  0.00     0.002 A 
HETATM   28  C15 UNL     1      27.240   5.810  48.472  1.00  0.00     0.000 A 
HETATM   29  C16 UNL     1      26.019   6.429  48.646  1.00  0.00     0.002 A 
HETATM   30  C17 UNL     1      25.030   5.685  49.273  1.00  0.00     0.029 A 
ENDBRANCH  23  25
ENDBRANCH  21  23
ENDBRANCH   1  21
TORSDOF 9
ENDMDL
MODEL 4
REMARK VINA RESULT:      -8.8      2.715      5.116
REMARK  9 active torsions:
REMARK  status: ('A' for Active; 'I' for Inactive)
REMARK    1  A    between atoms: O1_1  and  C1_2 
REMARK    2  A    between atoms: C2_3  and  C3_4 
REMARK    3  A    between atoms: C3_4  and  N1_5 
REMARK    4  A    between atoms: N1_5  and  C4_6 
REMARK    5  A    between atoms: N1_5  and  C11_14 
REMARK    6  A    between atoms: C4_6  and  C5_7 
REMARK    7  A    between atoms: C8_10  and  O2_11 
REMARK    8  A    between atoms: C11_14  and  N2_16 
REMARK    9  A    between atoms: N2_16  and  C12_17 
ROOT
HETATM    1  N1  UNL     1      24.087   2.756  51.726  1.00  0.00    -0.349 N 
ENDROOT
BRANCH   1   2
HETATM    2  C3  UNL     1      23.489   3.820  52.451  1.00  0.00     0.166 C 
BRANCH   2   3
HETATM    3  C2  UNL     1      22.982   4.979  51.729  1.00  0.00    -0.011 A 
HETATM    4  C1  UNL     1      23.359   6.206  51.471  1.00  0.00     0.054 A 
HETATM    5  C22 UNL     1      22.991   7.431  50.804  1.00  0.00     0.092 A 
HETATM    6  C21 UNL     1      21.649   7.499  50.200  1.00  0.00    -0.020 A 
HETATM    7  C20 UNL     1      20.731   6.566  50.066  1.00  0.00    -0.004 A 
HETATM    8  C19 UNL     1      20.703   5.168  50.453  1.00  0.00     0.000 A 
HETATM    9  C18 UNL     1      21.679   4.560  51.152  1.00  0.00     0.011 A 
BRANCH   4  10
HETATM   10  O1  UNL     1      24.590   6.543  52.018  1.00  0.00    -0.364 OA
HETATM   11  H1  UNL     1      25.175   5.924  52.555  1.00  0.00     0.217 HD
ENDBRANCH   4  10
ENDBRANCH   2   3
ENDBRANCH   1   2
BRANCH   1  12
HETATM   12  C4  UNL     1      23.448   1.648  51.060  1.00  0.00     0.164 C 
BRANCH  12  13
HETATM   13  C5  UNL     1      22.699   0.797  52.063  1.00  0.00    -0.040 A 
HETATM   14  C6  UNL     1      23.388   0.132  53.084  1.00  0.00     0.011 A 
HETATM   15  C7  UNL     1      22.824  -0.661  54.043  1.00  0.00     0.037 A 
HETATM   16  C8  UNL     1      21.434  -0.808  53.981  1.00  0.00     0.065 A 
HETATM   17  C9  UNL     1      20.730  -0.176  53.000  1.00  0.00     0.037 A 
HETATM   18  C10 UNL     1      21.315   0.624  52.034  1.00  0.00     0.011 A 
BRANCH  16  19
HETATM   19  O2  UNL     1      20.763  -1.592  54.906  1.00  0.00    -0.361 OA
HETATM   20  H8  UNL     1      21.323  -2.006  55.649  1.00  0.00     0.217 HD
ENDBRANCH  16  19
ENDBRANCH  12  13
ENDBRANCH   1  12
BRANCH   1  21
HETATM   21  C11 UNL     1      25.533   2.822  51.680  1.00  0.00     0.174 C 
HETATM   22  S1  UNL     1      26.321   3.204  50.311  1.00  0.00    -0.041 SA
BRANCH  21  23
HETATM   23  N2  UNL     1      26.418   2.577  52.762  1.00  0.00    -0.333 N 
HETATM   24  H11 UNL     1      26.707   3.085  53.650  1.00  0.00     0.168 HD
BRANCH  23  25
HETATM   25  C12 UNL     1      27.265   1.446  52.980  1.00  0.00     0.034 A 
HETATM   26  C13 UNL     1      26.876   0.143  52.703  1.00  0.00     0.029 A 
HETATM   27  C14 UNL     1      27.770  -0.877  52.951  1.00  0.00     0.002 A 
HETATM   28  C15 UNL     1      29.026  -0.605  53.463  1.00  0.00     0.000 A 
HETATM   29  C16 UNL     1      29.438   0.682  53.747  1.00  0.00     0.002 A 
HETATM   30  C17 UNL     1      28.526   1.695  53.492  1.00  0.00     0.029 A 
ENDBRANCH  23  25
ENDBRANCH  21  23
ENDBRANCH   1  21
TORSDOF 9
ENDMDL
MODEL 5
REMARK VINA RESULT:      -8.8      1.929      4.229
REMARK  9 active torsions:
REMARK  status: ('A' for Active; 'I' for Inactive)
REMARK    1  A    between atoms: O1_1  and  C1_2 
REMARK    2  A    between atoms: C2_3  and  C3_4 
REMARK    3  A    between atoms: C3_4  and  N1_5 
REMARK    4  A    between atoms: N1_5  and  C4_6 
REMARK    5  A    between atoms: N1_5  and  C11_14 
REMARK    6  A    between atoms: C4_6  and  C5_7 
REMARK    7  A    between atoms: C8_10  and  O2_11 
REMARK    8  A    between atoms: C11_14  and  N2_16 
REMARK    9  A    between atoms: N2_16  and  C12_17 
ROOT
HETATM    1  N1  UNL     1      23.298   2.891  51.135  1.00  0.00    -0.349 N 
ENDROOT
BRANCH   1   2
HETATM    2  C3  UNL     1      24.039   2.838  49.925  1.00  0.00     0.166 C 
BRANCH   2   3
HETATM    3  C2  UNL     1      24.638   4.058  49.401  1.00  0.00    -0.011 A 
HETATM    4  C1  UNL     1      25.810   4.641  49.397  1.00  0.00     0.054 A 
HETATM    5  C22 UNL     1      26.542   5.802  48.949  1.00  0.00     0.092 A 
HETATM    6  C21 UNL     1      25.777   6.875  48.292  1.00  0.00    -0.020 A 
HETATM    7  C20 UNL     1      24.510   6.919  47.936  1.00  0.00    -0.004 A 
HETATM    8  C19 UNL     1      23.434   5.954  48.055  1.00  0.00     0.000 A 
HETATM    9  C18 UNL     1      23.550   4.770  48.684  1.00  0.00     0.011 A 
BRANCH   4  10
HETATM   10  O1  UNL     1      26.796   3.929  50.066  1.00  0.00    -0.364 OA
HETATM   11  H1  UNL     1      27.749   3.828  49.758  1.00  0.00     0.217 HD
ENDBRANCH   4  10
ENDBRANCH   2   3
ENDBRANCH   1   2
BRANCH   1  12
HETATM   12  C4  UNL     1      21.937   2.480  51.378  1.00  0.00     0.164 C 
BRANCH  12  13
HETATM   13  C5  UNL     1      21.908   1.300  52.325  1.00  0.00    -0.040 A 
HETATM   14  C6  UNL     1      21.088   1.321  53.459  1.00  0.00     0.011 A 
HETATM   15  C7  UNL     1      20.977   0.320  54.382  1.00  0.00     0.037 A 
HETATM   16  C8  UNL     1      21.760  -0.816  54.156  1.00  0.00     0.065 A 
HETATM   17  C9  UNL     1      22.571  -0.872  53.062  1.00  0.00     0.037 A 
HETATM   18  C10 UNL     1      22.674   0.149  52.134  1.00  0.00     0.011 A 
BRANCH  16  19
HETATM   19  O2  UNL     1      21.722  -1.888  55.033  1.00  0.00    -0.361 OA
HETATM   20  H8  UNL     1      20.887  -2.471  55.011  1.00  0.00     0.217 HD
ENDBRANCH  16  19
ENDBRANCH  12  13
ENDBRANCH   1  12
BRANCH   1  21
HETATM   21  C11 UNL     1      24.039   3.447  52.249  1.00  0.00     0.174 C 
HETATM   22  S1  UNL     1      23.472   4.712  53.096  1.00  0.00    -0.041 SA
BRANCH  21  23
HETATM   23  N2  UNL     1      25.292   2.990  52.732  1.00  0.00    -0.333 N 
HETATM   24  H11 UNL     1      26.186   3.437  53.097  1.00  0.00     0.168 HD
BRANCH  23  25
HETATM   25  C12 UNL     1      25.753   1.645  52.879  1.00  0.00     0.034 A 
HETATM   26  C13 UNL     1      26.320   0.921  51.840  1.00  0.00     0.029 A 
HETATM   27  C14 UNL     1      26.732  -0.372  52.088  1.00  0.00     0.002 A 
HETATM   28  C15 UNL     1      26.582  -0.931  53.344  1.00  0.00     0.000 A 
HETATM   29  C16 UNL     1      26.021  -0.233  54.394  1.00  0.00     0.002 A 
HETATM   30  C17 UNL     1      25.613   1.066  54.127  1.00  0.00     0.029 A 
ENDBRANCH  23  25
ENDBRANCH  21  23
ENDBRANCH   1  21
TORSDOF 9
ENDMDL
MODEL 6
REMARK VINA RESULT:      -8.7      1.883      5.847
REMARK  9 active torsions:
REMARK  status: ('A' for Active; 'I' for Inactive)
REMARK    1  A    between atoms: O1_1  and  C1_2 
REMARK    2  A    between atoms: C2_3  and  C3_4 
REMARK    3  A    between atoms: C3_4  and  N1_5 
REMARK    4  A    between atoms: N1_5  and  C4_6 
REMARK    5  A    between atoms: N1_5  and  C11_14 
REMARK    6  A    between atoms: C4_6  and  C5_7 
REMARK    7  A    between atoms: C8_10  and  O2_11 
REMARK    8  A    between atoms: C11_14  and  N2_16 
REMARK    9  A    between atoms: N2_16  and  C12_17 
ROOT
HETATM    1  N1  UNL     1      24.993   2.249  51.482  1.00  0.00    -0.349 N 
ENDROOT
BRANCH   1   2
HETATM    2  C3  UNL     1      25.603   2.338  52.761  1.00  0.00     0.166 C 
BRANCH   2   3
HETATM    3  C2  UNL     1      26.733   1.475  53.074  1.00  0.00    -0.011 A 
HETATM    4  C1  UNL     1      27.938   1.593  53.571  1.00  0.00     0.054 A 
HETATM    5  C22 UNL     1      29.136   0.871  53.929  1.00  0.00     0.092 A 
HETATM    6  C21 UNL     1      29.198  -0.558  53.580  1.00  0.00    -0.020 A 
HETATM    7  C20 UNL     1      28.276  -1.348  53.071  1.00  0.00    -0.004 A 
HETATM    8  C19 UNL     1      26.900  -1.109  52.680  1.00  0.00     0.000 A 
HETATM    9  C18 UNL     1      26.309   0.100  52.702  1.00  0.00     0.011 A 
BRANCH   4  10
HETATM   10  O1  UNL     1      28.280   2.893  53.917  1.00  0.00    -0.364 OA
HETATM   11  H1  UNL     1      29.141   3.352  53.669  1.00  0.00     0.217 HD
ENDBRANCH   4  10
ENDBRANCH   2   3
ENDBRANCH   1   2
BRANCH   1  12
HETATM   12  C4  UNL     1      25.609   2.347  50.181  1.00  0.00     0.164 C 
BRANCH  12  13
HETATM   13  C5  UNL     1      25.907   3.794  49.851  1.00  0.00    -0.040 A 
HETATM   14  C6  UNL     1      25.076   4.815  50.325  1.00  0.00     0.011 A 
HETATM   15  C7  UNL     1      25.242   6.151  50.094  1.00  0.00     0.037 A 
HETATM   16  C8  UNL     1      26.347   6.509  49.313  1.00  0.00     0.065 A 
HETATM   17  C9  UNL     1      27.178   5.540  48.834  1.00  0.00     0.037 A 
HETATM   18  C10 UNL     1      26.997   4.190  49.075  1.00  0.00     0.011 A 
BRANCH  16  19
HETATM   19  O2  UNL     1      26.606   7.838  49.019  1.00  0.00    -0.361 OA
HETATM   20  H8  UNL     1      26.469   8.510  49.772  1.00  0.00     0.217 HD
ENDBRANCH  16  19
ENDBRANCH  12  13
ENDBRANCH   1  12
BRANCH   1  21
HETATM   21  C11 UNL     1      23.560   2.043  51.531  1.00  0.00     0.174 C 
HETATM   22  S1  UNL     1      22.676   1.911  50.174  1.00  0.00    -0.041 SA
BRANCH  21  23
HETATM   23  N2  UNL     1      22.770   1.930  52.704  1.00  0.00    -0.333 N 
HETATM   24  H11 UNL     1      22.454   2.579  53.485  1.00  0.00     0.168 HD
BRANCH  23  25
HETATM   25  C12 UNL     1      22.103   0.775  53.220  1.00  0.00     0.034 A 
HETATM   26  C13 UNL     1      20.732   0.586  53.123  1.00  0.00     0.029 A 
HETATM   27  C14 UNL     1      20.188  -0.565  53.655  1.00  0.00     0.002 A 
HETATM   28  C15 UNL     1      20.993  -1.507  54.268  1.00  0.00     0.000 A 
HETATM   29  C16 UNL     1      22.360  -1.344  54.377  1.00  0.00     0.002 A 
HETATM   30  C17 UNL     1      22.890  -0.181  53.838  1.00  0.00     0.029 A 
ENDBRANCH  23  25
ENDBRANCH  21  23
ENDBRANCH   1  21
TORSDOF 9
ENDMDL
MODEL 7
REMARK VINA RESULT:      -8.7      1.766      2.496
REMARK  9 active torsions:
REMARK  status: ('A' for Active; 'I' for Inactive)
REMARK    1  A    between atoms: O1_1  and  C1_2 
REMARK    2  A    between atoms: C2_3  and  C3_4 
REMARK    3  A    between atoms: C3_4  and  N1_5 
REMARK    4  A    between atoms: N1_5  and  C4_6 
REMARK    5  A    between atoms: N1_5  and  C11_14 
REMARK    6  A    between atoms: C4_6  and  C5_7 
REMARK    7  A    between atoms: C8_10  and  O2_11 
REMARK    8  A    between atoms: C11_14  and  N2_16 
REMARK    9  A    between atoms: N2_16  and  C12_17 
ROOT
HETATM    1  N1  UNL     1      24.024   3.173  51.104  1.00  0.00    -0.349 N 
ENDROOT
BRANCH   1   2
HETATM    2  C3  UNL     1      24.421   3.256  49.744  1.00  0.00     0.166 C 
BRANCH   2   3
HETATM    3  C2  UNL     1      25.117   4.447  49.275  1.00  0.00    -0.011 A 
HETATM    4  C1  UNL     1      24.820   5.677  48.937  1.00  0.00     0.054 A 
HETATM    5  C22 UNL     1      25.364   6.928  48.468  1.00  0.00     0.092 A 
HETATM    6  C21 UNL     1      26.792   6.957  48.110  1.00  0.00    -0.020 A 
HETATM    7  C20 UNL     1      27.720   6.032  48.246  1.00  0.00    -0.004 A 
HETATM    8  C19 UNL     1      27.677   4.685  48.782  1.00  0.00     0.000 A 
HETATM    9  C18 UNL     1      26.552   4.074  49.198  1.00  0.00     0.011 A 
BRANCH   4  10
HETATM   10  O1  UNL     1      23.470   5.980  49.042  1.00  0.00    -0.364 OA
HETATM   11  H1  UNL     1      22.921   6.438  48.333  1.00  0.00     0.217 HD
ENDBRANCH   4  10
ENDBRANCH   2   3
ENDBRANCH   1   2
BRANCH   1  12
HETATM   12  C4  UNL     1      24.803   3.438  52.289  1.00  0.00     0.164 C 
BRANCH  12  13
HETATM   13  C5  UNL     1      25.550   2.192  52.713  1.00  0.00    -0.040 A 
HETATM   14  C6  UNL     1      26.039   1.298  51.754  1.00  0.00     0.011 A 
HETATM   15  C7  UNL     1      26.726   0.145  52.014  1.00  0.00     0.037 A 
HETATM   16  C8  UNL     1      26.950  -0.148  53.364  1.00  0.00     0.065 A 
HETATM   17  C9  UNL     1      26.488   0.701  54.325  1.00  0.00     0.037 A 
HETATM   18  C10 UNL     1      25.793   1.865  54.048  1.00  0.00     0.011 A 
BRANCH  16  19
HETATM   19  O2  UNL     1      27.635  -1.292  53.736  1.00  0.00    -0.361 OA
HETATM   20  H8  UNL     1      27.302  -1.777  54.567  1.00  0.00     0.217 HD
ENDBRANCH  16  19
ENDBRANCH  12  13
ENDBRANCH   1  12
BRANCH   1  21
HETATM   21  C11 UNL     1      22.649   2.753  51.286  1.00  0.00     0.174 C 
HETATM   22  S1  UNL     1      21.433   3.830  51.333  1.00  0.00    -0.041 SA
BRANCH  21  23
HETATM   23  N2  UNL     1      22.195   1.418  51.440  1.00  0.00    -0.333 N 
HETATM   24  H11 UNL     1      21.879   0.633  50.796  1.00  0.00     0.168 HD
BRANCH  23  25
HETATM   25  C12 UNL     1      22.016   0.672  52.647  1.00  0.00     0.034 A 
HETATM   26  C13 UNL     1      20.916   0.829  53.478  1.00  0.00     0.029 A 
HETATM   27  C14 UNL     1      20.840   0.060  54.620  1.00  0.00     0.002 A 
HETATM   28  C15 UNL     1      21.838  -0.848  54.927  1.00  0.00     0.000 A 
HETATM   29  C16 UNL     1      22.942  -1.023  54.117  1.00  0.00     0.002 A 
HETATM   30  C17 UNL     1      23.002  -0.241  52.973  1.00  0.00     0.029 A 
ENDBRANCH  23  25
ENDBRANCH  21  23
ENDBRANCH   1  21
TORSDOF 9
ENDMDL
MODEL 8
REMARK VINA RESULT:      -8.7      2.587      4.848
REMARK  9 active torsions:
REMARK  status: ('A' for Active; 'I' for Inactive)
REMARK    1  A    between atoms: O1_1  and  C1_2 
REMARK    2  A    between atoms: C2_3  and  C3_4 
REMARK    3  A    between atoms: C3_4  and  N1_5 
REMARK    4  A    between atoms: N1_5  and  C4_6 
REMARK    5  A    between atoms: N1_5  and  C11_14 
REMARK    6  A    between atoms: C4_6  and  C5_7 
REMARK    7  A    between atoms: C8_10  and  O2_11 
REMARK    8  A    between atoms: C11_14  and  N2_16 
REMARK    9  A    between atoms: N2_16  and  C12_17 
ROOT
HETATM    1  N1  UNL     1      25.166   3.416  51.035  1.00  0.00    -0.349 N 
ENDROOT
BRANCH   1   2
HETATM    2  C3  UNL     1      24.440   3.304  52.250  1.00  0.00     0.166 C 
BRANCH   2   3
HETATM    3  C2  UNL     1      23.042   2.896  52.210  1.00  0.00    -0.011 A 
HETATM    4  C1  UNL     1      21.862   3.462  52.251  1.00  0.00     0.054 A 
HETATM    5  C22 UNL     1      20.441   3.215  52.228  1.00  0.00     0.092 A 
HETATM    6  C21 UNL     1      19.994   1.812  52.249  1.00  0.00    -0.020 A 
HETATM    7  C20 UNL     1      20.693   0.698  52.179  1.00  0.00    -0.004 A 
HETATM    8  C19 UNL     1      22.117   0.451  52.058  1.00  0.00     0.000 A 
HETATM    9  C18 UNL     1      23.054   1.416  52.079  1.00  0.00     0.011 A 
BRANCH   4  10
HETATM   10  O1  UNL     1      21.905   4.845  52.358  1.00  0.00    -0.364 OA
HETATM   11  H1  UNL     1      22.713   5.381  52.630  1.00  0.00     0.217 HD
ENDBRANCH   4  10
ENDBRANCH   2   3
ENDBRANCH   1   2
BRANCH   1  12
HETATM   12  C4  UNL     1      26.321   2.667  50.603  1.00  0.00     0.164 C 
BRANCH  12  13
HETATM   13  C5  UNL     1      26.832   1.796  51.730  1.00  0.00    -0.040 A 
HETATM   14  C6  UNL     1      27.682   2.327  52.707  1.00  0.00     0.011 A 
HETATM   15  C7  UNL     1      28.206   1.643  53.767  1.00  0.00     0.037 A 
HETATM   16  C8  UNL     1      27.848   0.294  53.868  1.00  0.00     0.065 A 
HETATM   17  C9  UNL     1      27.021  -0.257  52.934  1.00  0.00     0.037 A 
HETATM   18  C10 UNL     1      26.498   0.448  51.864  1.00  0.00     0.011 A 
BRANCH  16  19
HETATM   19  O2  UNL     1      28.324  -0.490  54.905  1.00  0.00    -0.361 OA
HETATM   20  H8  UNL     1      29.316  -0.410  55.123  1.00  0.00     0.217 HD
ENDBRANCH  16  19
ENDBRANCH  12  13
ENDBRANCH   1  12
BRANCH   1  21
HETATM   21  C11 UNL     1      24.655   4.435  50.141  1.00  0.00     0.174 C 
HETATM   22  S1  UNL     1      24.869   6.016  50.449  1.00  0.00    -0.041 SA
BRANCH  21  23
HETATM   23  N2  UNL     1      23.939   4.210  48.938  1.00  0.00    -0.333 N 
HETATM   24  H11 UNL     1      24.087   4.412  47.905  1.00  0.00     0.168 HD
BRANCH  23  25
HETATM   25  C12 UNL     1      22.669   3.576  48.764  1.00  0.00     0.034 A 
HETATM   26  C13 UNL     1      21.472   4.277  48.720  1.00  0.00     0.029 A 
HETATM   27  C14 UNL     1      20.302   3.568  48.548  1.00  0.00     0.002 A 
HETATM   28  C15 UNL     1      20.323   2.190  48.422  1.00  0.00     0.000 A 
HETATM   29  C16 UNL     1      21.500   1.470  48.463  1.00  0.00     0.002 A 
HETATM   30  C17 UNL     1      22.667   2.199  48.636  1.00  0.00     0.029 A 
ENDBRANCH  23  25
ENDBRANCH  21  23
ENDBRANCH   1  21
TORSDOF 9
ENDMDL
MODEL 9
REMARK VINA RESULT:      -8.6      2.551      6.918
REMARK  9 active torsions:
REMARK  status: ('A' for Active; 'I' for Inactive)
REMARK    1  A    between atoms: O1_1  and  C1_2 
REMARK    2  A    between atoms: C2_3  and  C3_4 
REMARK    3  A    between atoms: C3_4  and  N1_5 
REMARK    4  A    between atoms: N1_5  and  C4_6 
REMARK    5  A    between atoms: N1_5  and  C11_14 
REMARK    6  A    between atoms: C4_6  and  C5_7 
REMARK    7  A    between atoms: C8_10  and  O2_11 
REMARK    8  A    between atoms: C11_14  and  N2_16 
REMARK    9  A    between atoms: N2_16  and  C12_17 
ROOT
HETATM    1  N1  UNL     1      24.216   2.121  52.479  1.00  0.00    -0.349 N 
ENDROOT
BRANCH   1   2
HETATM    2  C3  UNL     1      24.919   2.328  53.695  1.00  0.00     0.166 C 
BRANCH   2   3
HETATM    3  C2  UNL     1      26.159   1.601  53.935  1.00  0.00    -0.011 A 
HETATM    4  C1  UNL     1      26.530   0.448  54.432  1.00  0.00     0.054 A 
HETATM    5  C22 UNL     1      27.666  -0.388  54.734  1.00  0.00     0.092 A 
HETATM    6  C21 UNL     1      29.006   0.185  54.525  1.00  0.00    -0.020 A 
HETATM    7  C20 UNL     1      29.364   1.335  53.994  1.00  0.00    -0.004 A 
HETATM    8  C19 UNL     1      28.592   2.428  53.434  1.00  0.00     0.000 A 
HETATM    9  C18 UNL     1      27.248   2.482  53.440  1.00  0.00     0.011 A 
BRANCH   4  10
HETATM   10  O1  UNL     1      25.475  -0.344  54.865  1.00  0.00    -0.364 OA
HETATM   11  H1  UNL     1      25.364  -0.702  55.799  1.00  0.00     0.217 HD
ENDBRANCH   4  10
ENDBRANCH   2   3
ENDBRANCH   1   2
BRANCH   1  12
HETATM   12  C4  UNL     1      23.809   0.877  51.873  1.00  0.00     0.164 C 
BRANCH  12  13
HETATM   13  C5  UNL     1      22.454   0.457  52.398  1.00  0.00    -0.040 A 
HETATM   14  C6  UNL     1      22.340  -0.175  53.642  1.00  0.00     0.011 A 
HETATM   15  C7  UNL     1      21.176  -0.598  54.219  1.00  0.00     0.037 A 
HETATM   16  C8  UNL     1      20.007  -0.369  53.487  1.00  0.00     0.065 A 
HETATM   17  C9  UNL     1      20.079   0.245  52.271  1.00  0.00     0.037 A 
HETATM   18  C10 UNL     1      21.266   0.667  51.698  1.00  0.00     0.011 A 
BRANCH  16  19
HETATM   19  O2  UNL     1      18.773  -0.760  53.981  1.00  0.00    -0.361 OA
HETATM   20  H8  UNL     1      18.208  -0.039  54.427  1.00  0.00     0.217 HD
ENDBRANCH  16  19
ENDBRANCH  12  13
ENDBRANCH   1  12
BRANCH   1  21
HETATM   21  C11 UNL     1      23.891   3.346  51.777  1.00  0.00     0.174 C 
HETATM   22  S1  UNL     1      23.262   4.626  52.556  1.00  0.00    -0.041 SA
BRANCH  21  23
HETATM   23  N2  UNL     1      24.066   3.589  50.391  1.00  0.00    -0.333 N 
HETATM   24  H11 UNL     1      23.566   3.318  49.492  1.00  0.00     0.168 HD
BRANCH  23  25
HETATM   25  C12 UNL     1      25.085   4.355  49.744  1.00  0.00     0.034 A 
HETATM   26  C13 UNL     1      24.879   5.644  49.273  1.00  0.00     0.029 A 
HETATM   27  C14 UNL     1      25.931   6.296  48.663  1.00  0.00     0.002 A 
HETATM   28  C15 UNL     1      27.160   5.678  48.526  1.00  0.00     0.000 A 
HETATM   29  C16 UNL     1      27.391   4.397  48.986  1.00  0.00     0.002 A 
HETATM   30  C17 UNL     1      26.323   3.756  49.596  1.00  0.00     0.029 A 
ENDBRANCH  23  25
ENDBRANCH  21  23
ENDBRANCH   1  21
TORSDOF 9
ENDMDL
