MODEL 1
REMARK VINA RESULT:      -8.6      0.000      0.000
REMARK  7 active torsions:
REMARK  status: ('A' for Active; 'I' for Inactive)
REMARK    1  A    between atoms: C2_2  and  C3_3 
REMARK       I    between atoms: C3_3  and  N1_5 
REMARK    2  A    between atoms: N1_5  and  C4_6 
REMARK    3  A    between atoms: C9_11  and  C10_12 
REMARK    4  A    between atoms: C11_14  and  N3_15 
REMARK    5  A    between atoms: C11_14  and  C12_16 
REMARK    6  A    between atoms: N4_19  and  C15_20 
REMARK    7  A    between atoms: C15_20  and  O2_21 
ROOT
HETATM    1  C10 UNL     1      24.272   3.483  51.000  1.00  0.00     0.057 C 
HETATM    2  N2  UNL     1      24.555   4.766  51.306  1.00  0.00    -0.231 NA
HETATM    3  C11 UNL     1      23.556   5.702  50.611  1.00  0.00     0.355 C 
HETATM    4  N6  UNL     1      22.905   4.949  49.575  1.00  0.00    -0.248 N 
HETATM    5  C16 UNL     1      23.027   3.876  48.518  1.00  0.00     0.092 A 
HETATM    6  C17 UNL     1      23.596   3.406  49.714  1.00  0.00     0.050 A 
HETATM    7  C18 UNL     1      24.239   4.658  49.180  1.00  0.00     0.119 A 
ENDROOT
BRANCH   1   8
HETATM    8  C9  UNL     1      24.496   2.226  51.779  1.00  0.00    -0.003 A 
HETATM    9  C7  UNL     1      23.429   1.608  52.396  1.00  0.00    -0.050 A 
HETATM   10  C6  UNL     1      23.698   0.454  53.098  1.00  0.00     0.010 A 
HETATM   11  C8  UNL     1      22.059   2.182  52.295  1.00  0.00     0.049 C 
HETATM   12  C5  UNL     1      24.966  -0.073  53.190  1.00  0.00     0.030 A 
HETATM   13  C4  UNL     1      26.039   0.529  52.581  1.00  0.00     0.035 A 
HETATM   14  C19 UNL     1      25.749   1.676  51.888  1.00  0.00     0.043 A 
BRANCH  13  15
HETATM   15  N1  UNL     1      27.314  -0.065  52.715  1.00  0.00    -0.324 N 
HETATM   16  C3  UNL     1      28.298   0.117  53.715  1.00  0.00     0.244 C 
HETATM   17  O1  UNL     1      28.086   0.904  54.655  1.00  0.00    -0.268 OA
HETATM   18  H4  UNL     1      27.638  -0.752  52.001  1.00  0.00     0.169 HD
BRANCH  16  19
HETATM   19  C2  UNL     1      29.585  -0.553  53.753  1.00  0.00     0.064 C 
HETATM   20  C1  UNL     1      29.353  -1.782  53.322  1.00  0.00     0.017 C 
ENDBRANCH  16  19
ENDBRANCH  13  15
ENDBRANCH   1   8
BRANCH   3  21
HETATM   21  N3  UNL     1      22.586   5.956  51.697  1.00  0.00     0.131 N 
HETATM   22  H10 UNL     1      22.805   5.404  52.550  1.00  0.00     0.318 HD
HETATM   23  H11 UNL     1      21.646   5.697  51.336  1.00  0.00     0.318 HD
ENDBRANCH   3  21
BRANCH   3  24
HETATM   24  C12 UNL     1      24.211   6.903  50.181  1.00  0.00     0.132 A 
HETATM   25  C13 UNL     1      23.817   8.056  49.491  1.00  0.00     0.054 A 
HETATM   26  C14 UNL     1      24.900   8.917  49.363  1.00  0.00     0.117 A 
HETATM   27  N4  UNL     1      25.902   8.261  49.975  1.00  0.00    -0.257 N 
HETATM   28  N5  UNL     1      25.513   7.092  50.453  1.00  0.00    -0.169 NA
BRANCH  27  29
HETATM   29  C15 UNL     1      27.227   8.840  50.058  1.00  0.00     0.314 C 
BRANCH  29  30
HETATM   30  O2  UNL     1      27.431   9.609  51.186  1.00  0.00    -0.380 OA
HETATM   31  H16 UNL     1      27.789   9.099  51.956  1.00  0.00     0.211 HD
ENDBRANCH  29  30
ENDBRANCH  27  29
ENDBRANCH   3  24
TORSDOF 7
ENDMDL
MODEL 2
REMARK VINA RESULT:      -8.4      2.177      3.025
REMARK  7 active torsions:
REMARK  status: ('A' for Active; 'I' for Inactive)
REMARK    1  A    between atoms: C2_2  and  C3_3 
REMARK       I    between atoms: C3_3  and  N1_5 
REMARK    2  A    between atoms: N1_5  and  C4_6 
REMARK    3  A    between atoms: C9_11  and  C10_12 
REMARK    4  A    between atoms: C11_14  and  N3_15 
REMARK    5  A    between atoms: C11_14  and  C12_16 
REMARK    6  A    between atoms: N4_19  and  C15_20 
REMARK    7  A    between atoms: C15_20  and  O2_21 
ROOT
HETATM    1  C10 UNL     1      22.603   1.506  52.132  1.00  0.00     0.057 C 
HETATM    2  N2  UNL     1      22.370   2.831  52.236  1.00  0.00    -0.231 NA
HETATM    3  C11 UNL     1      21.173   3.222  51.358  1.00  0.00     0.355 C 
HETATM    4  N6  UNL     1      20.944   2.148  50.433  1.00  0.00    -0.248 N 
HETATM    5  C16 UNL     1      21.550   1.064  49.571  1.00  0.00     0.092 A 
HETATM    6  C17 UNL     1      22.130   1.008  50.850  1.00  0.00     0.050 A 
HETATM    7  C18 UNL     1      22.325   2.325  50.146  1.00  0.00     0.119 A 
ENDROOT
BRANCH   1   8
HETATM    8  C9  UNL     1      23.190   0.543  53.114  1.00  0.00    -0.003 A 
HETATM    9  C7  UNL     1      22.359  -0.150  53.969  1.00  0.00    -0.050 A 
HETATM   10  C6  UNL     1      22.959  -1.023  54.849  1.00  0.00     0.010 A 
HETATM   11  C8  UNL     1      20.885   0.055  53.922  1.00  0.00     0.049 C 
HETATM   12  C5  UNL     1      24.322  -1.209  54.889  1.00  0.00     0.030 A 
HETATM   13  C4  UNL     1      25.164  -0.527  54.045  1.00  0.00     0.035 A 
HETATM   14  C19 UNL     1      24.546   0.336  53.177  1.00  0.00     0.043 A 
BRANCH  13  15
HETATM   15  N1  UNL     1      26.552  -0.766  54.138  1.00  0.00    -0.324 N 
HETATM   16  C3  UNL     1      27.610   0.136  54.406  1.00  0.00     0.244 C 
HETATM   17  O1  UNL     1      27.363   1.339  54.601  1.00  0.00    -0.268 OA
HETATM   18  H4  UNL     1      26.919  -1.731  53.999  1.00  0.00     0.169 HD
BRANCH  16  19
HETATM   19  C2  UNL     1      29.015  -0.223  54.478  1.00  0.00     0.064 C 
HETATM   20  C1  UNL     1      29.216  -1.061  53.474  1.00  0.00     0.017 C 
ENDBRANCH  16  19
ENDBRANCH  13  15
ENDBRANCH   1   8
BRANCH   3  21
HETATM   21  N3  UNL     1      20.076   3.241  52.348  1.00  0.00     0.131 N 
HETATM   22  H10 UNL     1      20.414   3.026  53.307  1.00  0.00     0.318 HD
HETATM   23  H11 UNL     1      19.379   2.530  52.048  1.00  0.00     0.318 HD
ENDBRANCH   3  21
BRANCH   3  24
HETATM   24  C12 UNL     1      21.387   4.510  50.765  1.00  0.00     0.132 A 
HETATM   25  C13 UNL     1      20.802   5.228  49.715  1.00  0.00     0.054 A 
HETATM   26  C14 UNL     1      21.424   6.464  49.591  1.00  0.00     0.117 A 
HETATM   27  N4  UNL     1      22.354   6.451  50.563  1.00  0.00    -0.257 N 
HETATM   28  N5  UNL     1      22.341   5.322  51.249  1.00  0.00    -0.169 NA
BRANCH  27  29
HETATM   29  C15 UNL     1      23.231   7.586  50.767  1.00  0.00     0.314 C 
BRANCH  29  30
HETATM   30  O2  UNL     1      24.177   7.392  51.753  1.00  0.00    -0.380 OA
HETATM   31  H16 UNL     1      24.085   8.011  52.520  1.00  0.00     0.211 HD
ENDBRANCH  29  30
ENDBRANCH  27  29
ENDBRANCH   3  24
TORSDOF 7
ENDMDL
MODEL 3
REMARK VINA RESULT:      -8.3      4.345      7.954
REMARK  7 active torsions:
REMARK  status: ('A' for Active; 'I' for Inactive)
REMARK    1  A    between atoms: C2_2  and  C3_3 
REMARK       I    between atoms: C3_3  and  N1_5 
REMARK    2  A    between atoms: N1_5  and  C4_6 
REMARK    3  A    between atoms: C9_11  and  C10_12 
REMARK    4  A    between atoms: C11_14  and  N3_15 
REMARK    5  A    between atoms: C11_14  and  C12_16 
REMARK    6  A    between atoms: N4_19  and  C15_20 
REMARK    7  A    between atoms: C15_20  and  O2_21 
ROOT
HETATM    1  C10 UNL     1      24.092   0.378  53.085  1.00  0.00     0.057 C 
HETATM    2  N2  UNL     1      25.177  -0.113  53.719  1.00  0.00    -0.231 NA
HETATM    3  C11 UNL     1      26.265   0.966  53.805  1.00  0.00     0.355 C 
HETATM    4  N6  UNL     1      25.932   1.995  52.860  1.00  0.00    -0.248 N 
HETATM    5  C16 UNL     1      25.338   2.337  51.512  1.00  0.00     0.092 A 
HETATM    6  C17 UNL     1      24.476   1.449  52.179  1.00  0.00     0.050 A 
HETATM    7  C18 UNL     1      25.862   0.904  51.951  1.00  0.00     0.119 A 
ENDROOT
BRANCH   1   8
HETATM    8  C9  UNL     1      22.645   0.027  53.223  1.00  0.00    -0.003 A 
HETATM    9  C7  UNL     1      22.237  -0.788  54.257  1.00  0.00    -0.050 A 
HETATM   10  C6  UNL     1      20.892  -1.075  54.332  1.00  0.00     0.010 A 
HETATM   11  C8  UNL     1      23.225  -1.322  55.235  1.00  0.00     0.049 C 
HETATM   12  C5  UNL     1      19.982  -0.579  53.426  1.00  0.00     0.030 A 
HETATM   13  C4  UNL     1      20.371   0.234  52.390  1.00  0.00     0.035 A 
HETATM   14  C19 UNL     1      21.714   0.506  52.335  1.00  0.00     0.043 A 
BRANCH  13  15
HETATM   15  N1  UNL     1      19.386   0.708  51.496  1.00  0.00    -0.324 N 
HETATM   16  C3  UNL     1      18.784   1.986  51.406  1.00  0.00     0.244 C 
HETATM   17  O1  UNL     1      19.118   2.884  52.199  1.00  0.00    -0.268 OA
HETATM   18  H4  UNL     1      19.004   0.070  50.766  1.00  0.00     0.169 HD
BRANCH  16  19
HETATM   19  C2  UNL     1      17.772   2.366  50.437  1.00  0.00     0.064 C 
HETATM   20  C1  UNL     1      18.375   2.314  49.261  1.00  0.00     0.017 C 
ENDBRANCH  16  19
ENDBRANCH  13  15
ENDBRANCH   1   8
BRANCH   3  21
HETATM   21  N3  UNL     1      26.056   1.488  55.172  1.00  0.00     0.131 N 
HETATM   22  H10 UNL     1      25.507   2.370  55.171  1.00  0.00     0.318 HD
HETATM   23  H11 UNL     1      26.995   1.653  55.585  1.00  0.00     0.318 HD
ENDBRANCH   3  21
BRANCH   3  24
HETATM   24  C12 UNL     1      27.564   0.381  53.644  1.00  0.00     0.132 A 
HETATM   25  C13 UNL     1      28.867   0.877  53.510  1.00  0.00     0.054 A 
HETATM   26  C14 UNL     1      29.761  -0.180  53.396  1.00  0.00     0.117 A 
HETATM   27  N4  UNL     1      28.974  -1.270  53.465  1.00  0.00    -0.257 N 
HETATM   28  N5  UNL     1      27.700  -0.955  53.609  1.00  0.00    -0.169 NA
BRANCH  27  29
HETATM   29  C15 UNL     1      29.541  -2.600  53.383  1.00  0.00     0.314 C 
BRANCH  29  30
HETATM   30  O2  UNL     1      28.601  -3.611  53.397  1.00  0.00    -0.380 OA
HETATM   31  H16 UNL     1      27.699  -3.311  53.677  1.00  0.00     0.211 HD
ENDBRANCH  29  30
ENDBRANCH  27  29
ENDBRANCH   3  24
TORSDOF 7
ENDMDL
MODEL 4
REMARK VINA RESULT:      -8.0      2.650      3.639
REMARK  7 active torsions:
REMARK  status: ('A' for Active; 'I' for Inactive)
REMARK    1  A    between atoms: C2_2  and  C3_3 
REMARK       I    between atoms: C3_3  and  N1_5 
REMARK    2  A    between atoms: N1_5  and  C4_6 
REMARK    3  A    between atoms: C9_11  and  C10_12 
REMARK    4  A    between atoms: C11_14  and  N3_15 
REMARK    5  A    between atoms: C11_14  and  C12_16 
REMARK    6  A    between atoms: N4_19  and  C15_20 
REMARK    7  A    between atoms: C15_20  and  O2_21 
ROOT
HETATM    1  C10 UNL     1      23.960   2.516  51.606  1.00  0.00     0.057 C 
HETATM    2  N2  UNL     1      23.895   2.683  50.269  1.00  0.00    -0.231 NA
HETATM    3  C11 UNL     1      24.242   4.134  49.906  1.00  0.00     0.355 C 
HETATM    4  N6  UNL     1      24.141   4.917  51.106  1.00  0.00    -0.248 N 
HETATM    5  C16 UNL     1      23.423   5.147  52.415  1.00  0.00     0.092 A 
HETATM    6  C17 UNL     1      23.712   3.778  52.288  1.00  0.00     0.050 A 
HETATM    7  C18 UNL     1      22.851   4.328  51.182  1.00  0.00     0.119 A 
ENDROOT
BRANCH   1   8
HETATM    8  C9  UNL     1      24.284   1.304  52.420  1.00  0.00    -0.003 A 
HETATM    9  C7  UNL     1      23.273   0.633  53.075  1.00  0.00    -0.050 A 
HETATM   10  C6  UNL     1      23.634  -0.476  53.807  1.00  0.00     0.010 A 
HETATM   11  C8  UNL     1      21.865   1.106  52.980  1.00  0.00     0.049 C 
HETATM   12  C5  UNL     1      24.937  -0.910  53.893  1.00  0.00     0.030 A 
HETATM   13  C4  UNL     1      25.956  -0.254  53.247  1.00  0.00     0.035 A 
HETATM   14  C19 UNL     1      25.574   0.846  52.524  1.00  0.00     0.043 A 
BRANCH  13  15
HETATM   15  N1  UNL     1      27.271  -0.753  53.377  1.00  0.00    -0.324 N 
HETATM   16  C3  UNL     1      28.382  -0.209  54.064  1.00  0.00     0.244 C 
HETATM   17  O1  UNL     1      28.266   0.870  54.671  1.00  0.00    -0.268 OA
HETATM   18  H4  UNL     1      27.526  -1.655  52.922  1.00  0.00     0.169 HD
BRANCH  16  19
HETATM   19  C2  UNL     1      29.700  -0.814  54.131  1.00  0.00     0.064 C 
HETATM   20  C1  UNL     1      29.624  -1.906  53.387  1.00  0.00     0.017 C 
ENDBRANCH  16  19
ENDBRANCH  13  15
ENDBRANCH   1   8
BRANCH   3  21
HETATM   21  N3  UNL     1      25.667   4.011  49.535  1.00  0.00     0.131 N 
HETATM   22  H10 UNL     1      25.795   3.919  48.508  1.00  0.00     0.318 HD
HETATM   23  H11 UNL     1      26.039   3.168  50.017  1.00  0.00     0.318 HD
ENDBRANCH   3  21
BRANCH   3  24
HETATM   24  C12 UNL     1      23.436   4.581  48.809  1.00  0.00     0.132 A 
HETATM   25  C13 UNL     1      23.127   5.826  48.246  1.00  0.00     0.054 A 
HETATM   26  C14 UNL     1      22.280   5.652  47.160  1.00  0.00     0.117 A 
HETATM   27  N4  UNL     1      22.108   4.319  47.102  1.00  0.00    -0.257 N 
HETATM   28  N5  UNL     1      22.773   3.689  48.054  1.00  0.00    -0.169 NA
BRANCH  27  29
HETATM   29  C15 UNL     1      21.271   3.722  46.081  1.00  0.00     0.314 C 
BRANCH  29  30
HETATM   30  O2  UNL     1      21.880   3.624  44.846  1.00  0.00    -0.380 OA
HETATM   31  H16 UNL     1      21.350   3.118  44.181  1.00  0.00     0.211 HD
ENDBRANCH  29  30
ENDBRANCH  27  29
ENDBRANCH   3  24
TORSDOF 7
ENDMDL
MODEL 5
REMARK VINA RESULT:      -7.6      1.911      2.196
REMARK  7 active torsions:
REMARK  status: ('A' for Active; 'I' for Inactive)
REMARK    1  A    between atoms: C2_2  and  C3_3 
REMARK       I    between atoms: C3_3  and  N1_5 
REMARK    2  A    between atoms: N1_5  and  C4_6 
REMARK    3  A    between atoms: C9_11  and  C10_12 
REMARK    4  A    between atoms: C11_14  and  N3_15 
REMARK    5  A    between atoms: C11_14  and  C12_16 
REMARK    6  A    between atoms: N4_19  and  C15_20 
REMARK    7  A    between atoms: C15_20  and  O2_21 
ROOT
HETATM    1  C10 UNL     1      23.710   2.494  51.790  1.00  0.00     0.057 C 
HETATM    2  N2  UNL     1      23.602   3.794  52.135  1.00  0.00    -0.231 NA
HETATM    3  C11 UNL     1      22.591   4.497  51.218  1.00  0.00     0.355 C 
HETATM    4  N6  UNL     1      22.389   3.656  50.071  1.00  0.00    -0.248 N 
HETATM    5  C16 UNL     1      22.998   2.687  49.084  1.00  0.00     0.092 A 
HETATM    6  C17 UNL     1      23.379   2.314  50.384  1.00  0.00     0.050 A 
HETATM    7  C18 UNL     1      23.807   3.704  49.995  1.00  0.00     0.119 A 
ENDROOT
BRANCH   1   8
HETATM    8  C9  UNL     1      24.046   1.294  52.616  1.00  0.00    -0.003 A 
HETATM    9  C7  UNL     1      23.035   0.583  53.227  1.00  0.00    -0.050 A 
HETATM   10  C6  UNL     1      23.408  -0.513  53.974  1.00  0.00     0.010 A 
HETATM   11  C8  UNL     1      21.615   1.000  53.071  1.00  0.00     0.049 C 
HETATM   12  C5  UNL     1      24.723  -0.895  54.115  1.00  0.00     0.030 A 
HETATM   13  C4  UNL     1      25.741  -0.198  53.514  1.00  0.00     0.035 A 
HETATM   14  C19 UNL     1      25.348   0.888  52.776  1.00  0.00     0.043 A 
BRANCH  13  15
HETATM   15  N1  UNL     1      27.068  -0.645  53.700  1.00  0.00    -0.324 N 
HETATM   16  C3  UNL     1      28.291   0.039  53.499  1.00  0.00     0.244 C 
HETATM   17  O1  UNL     1      28.282   1.217  53.098  1.00  0.00    -0.268 OA
HETATM   18  H4  UNL     1      27.242  -1.616  54.035  1.00  0.00     0.169 HD
BRANCH  16  19
HETATM   19  C2  UNL     1      29.610  -0.524  53.724  1.00  0.00     0.064 C 
HETATM   20  C1  UNL     1      29.513  -1.796  53.373  1.00  0.00     0.017 C 
ENDBRANCH  16  19
ENDBRANCH  13  15
ENDBRANCH   1   8
BRANCH   3  21
HETATM   21  N3  UNL     1      21.370   4.469  52.050  1.00  0.00     0.131 N 
HETATM   22  H10 UNL     1      20.654   5.143  51.712  1.00  0.00     0.318 HD
HETATM   23  H11 UNL     1      21.654   4.708  53.021  1.00  0.00     0.318 HD
ENDBRANCH   3  21
BRANCH   3  24
HETATM   24  C12 UNL     1      23.020   5.835  50.933  1.00  0.00     0.132 A 
HETATM   25  C13 UNL     1      24.106   6.632  51.314  1.00  0.00     0.054 A 
HETATM   26  C14 UNL     1      24.009   7.877  50.706  1.00  0.00     0.117 A 
HETATM   27  N4  UNL     1      22.878   7.790  49.984  1.00  0.00    -0.257 N 
HETATM   28  N5  UNL     1      22.296   6.611  50.109  1.00  0.00    -0.169 NA
BRANCH  27  29
HETATM   29  C15 UNL     1      22.419   8.910  49.187  1.00  0.00     0.314 C 
BRANCH  29  30
HETATM   30  O2  UNL     1      22.209   8.601  47.858  1.00  0.00    -0.380 OA
HETATM   31  H16 UNL     1      21.641   9.258  47.382  1.00  0.00     0.211 HD
ENDBRANCH  29  30
ENDBRANCH  27  29
ENDBRANCH   3  24
TORSDOF 7
ENDMDL
MODEL 6
REMARK VINA RESULT:      -7.4      2.966      7.246
REMARK  7 active torsions:
REMARK  status: ('A' for Active; 'I' for Inactive)
REMARK    1  A    between atoms: C2_2  and  C3_3 
REMARK       I    between atoms: C3_3  and  N1_5 
REMARK    2  A    between atoms: N1_5  and  C4_6 
REMARK    3  A    between atoms: C9_11  and  C10_12 
REMARK    4  A    between atoms: C11_14  and  N3_15 
REMARK    5  A    between atoms: C11_14  and  C12_16 
REMARK    6  A    between atoms: N4_19  and  C15_20 
REMARK    7  A    between atoms: C15_20  and  O2_21 
ROOT
HETATM    1  C10 UNL     1      24.228   4.209  50.649  1.00  0.00     0.057 C 
HETATM    2  N2  UNL     1      24.421   2.882  50.795  1.00  0.00    -0.231 NA
HETATM    3  C11 UNL     1      23.161   2.233  51.385  1.00  0.00     0.355 C 
HETATM    4  N6  UNL     1      22.352   3.281  51.941  1.00  0.00    -0.248 N 
HETATM    5  C16 UNL     1      22.315   4.610  52.660  1.00  0.00     0.092 A 
HETATM    6  C17 UNL     1      23.242   4.687  51.607  1.00  0.00     0.050 A 
HETATM    7  C18 UNL     1      23.554   3.618  52.621  1.00  0.00     0.119 A 
ENDROOT
BRANCH   1   8
HETATM    8  C9  UNL     1      24.812   5.173  49.666  1.00  0.00    -0.003 A 
HETATM    9  C7  UNL     1      24.005   5.728  48.695  1.00  0.00    -0.050 A 
HETATM   10  C6  UNL     1      24.600   6.609  47.819  1.00  0.00     0.010 A 
HETATM   11  C8  UNL     1      22.561   5.374  48.617  1.00  0.00     0.049 C 
HETATM   12  C5  UNL     1      25.935   6.934  47.895  1.00  0.00     0.030 A 
HETATM   13  C4  UNL     1      26.752   6.391  48.855  1.00  0.00     0.035 A 
HETATM   14  C19 UNL     1      26.140   5.517  49.716  1.00  0.00     0.043 A 
BRANCH  13  15
HETATM   15  N1  UNL     1      28.113   6.767  48.876  1.00  0.00    -0.324 N 
HETATM   16  C3  UNL     1      29.262   6.033  48.499  1.00  0.00     0.244 C 
HETATM   17  O1  UNL     1      29.141   4.870  48.073  1.00  0.00    -0.268 OA
HETATM   18  H4  UNL     1      28.379   7.718  49.209  1.00  0.00     0.169 HD
BRANCH  16  19
HETATM   19  C2  UNL     1      30.627   6.525  48.563  1.00  0.00     0.064 C 
HETATM   20  C1  UNL     1      30.521   7.828  48.764  1.00  0.00     0.017 C 
ENDBRANCH  16  19
ENDBRANCH  13  15
ENDBRANCH   1   8
BRANCH   3  21
HETATM   21  N3  UNL     1      22.500   1.714  50.169  1.00  0.00     0.131 N 
HETATM   22  H10 UNL     1      22.646   0.692  50.053  1.00  0.00     0.318 HD
HETATM   23  H11 UNL     1      22.902   2.226  49.358  1.00  0.00     0.318 HD
ENDBRANCH   3  21
BRANCH   3  24
HETATM   24  C12 UNL     1      23.518   1.183  52.294  1.00  0.00     0.132 A 
HETATM   25  C13 UNL     1      24.715   0.564  52.675  1.00  0.00     0.054 A 
HETATM   26  C14 UNL     1      24.455  -0.412  53.628  1.00  0.00     0.117 A 
HETATM   27  N4  UNL     1      23.121  -0.350  53.790  1.00  0.00    -0.257 N 
HETATM   28  N5  UNL     1      22.568   0.571  53.021  1.00  0.00    -0.169 NA
BRANCH  27  29
HETATM   29  C15 UNL     1      22.444  -1.229  54.722  1.00  0.00     0.314 C 
BRANCH  29  30
HETATM   30  O2  UNL     1      23.221  -1.606  55.799  1.00  0.00    -0.380 OA
HETATM   31  H16 UNL     1      24.092  -1.999  55.542  1.00  0.00     0.211 HD
ENDBRANCH  29  30
ENDBRANCH  27  29
ENDBRANCH   3  24
TORSDOF 7
ENDMDL
MODEL 7
REMARK VINA RESULT:      -7.3      4.981      7.200
REMARK  7 active torsions:
REMARK  status: ('A' for Active; 'I' for Inactive)
REMARK    1  A    between atoms: C2_2  and  C3_3 
REMARK       I    between atoms: C3_3  and  N1_5 
REMARK    2  A    between atoms: N1_5  and  C4_6 
REMARK    3  A    between atoms: C9_11  and  C10_12 
REMARK    4  A    between atoms: C11_14  and  N3_15 
REMARK    5  A    between atoms: C11_14  and  C12_16 
REMARK    6  A    between atoms: N4_19  and  C15_20 
REMARK    7  A    between atoms: C15_20  and  O2_21 
ROOT
HETATM    1  C10 UNL     1      28.943   6.492  48.131  1.00  0.00     0.057 C 
HETATM    2  N2  UNL     1      30.153   6.416  48.723  1.00  0.00    -0.231 NA
HETATM    3  C11 UNL     1      30.963   7.684  48.421  1.00  0.00     0.355 C 
HETATM    4  N6  UNL     1      30.335   8.347  47.313  1.00  0.00    -0.248 N 
HETATM    5  C16 UNL     1      29.588   8.206  46.007  1.00  0.00     0.092 A 
HETATM    6  C17 UNL     1      29.004   7.355  46.961  1.00  0.00     0.050 A 
HETATM    7  C18 UNL     1      30.460   7.073  46.697  1.00  0.00     0.119 A 
ENDROOT
BRANCH   1   8
HETATM    8  C9  UNL     1      27.630   5.894  48.523  1.00  0.00    -0.003 A 
HETATM    9  C7  UNL     1      26.479   6.647  48.417  1.00  0.00    -0.050 A 
HETATM   10  C6  UNL     1      25.301   6.040  48.793  1.00  0.00     0.010 A 
HETATM   11  C8  UNL     1      26.535   8.048  47.918  1.00  0.00     0.049 C 
HETATM   12  C5  UNL     1      25.254   4.745  49.254  1.00  0.00     0.030 A 
HETATM   13  C4  UNL     1      26.390   3.981  49.366  1.00  0.00     0.035 A 
HETATM   14  C19 UNL     1      27.551   4.604  48.986  1.00  0.00     0.043 A 
BRANCH  13  15
HETATM   15  N1  UNL     1      26.271   2.658  49.846  1.00  0.00    -0.324 N 
HETATM   16  C3  UNL     1      26.707   2.096  51.069  1.00  0.00     0.244 C 
HETATM   17  O1  UNL     1      27.294   2.809  51.903  1.00  0.00    -0.268 OA
HETATM   18  H4  UNL     1      25.799   1.938  49.259  1.00  0.00     0.169 HD
BRANCH  16  19
HETATM   19  C2  UNL     1      26.529   0.710  51.462  1.00  0.00     0.064 C 
HETATM   20  C1  UNL     1      25.556   0.721  52.359  1.00  0.00     0.017 C 
ENDBRANCH  16  19
ENDBRANCH  13  15
ENDBRANCH   1   8
BRANCH   3  21
HETATM   21  N3  UNL     1      30.731   8.479  49.646  1.00  0.00     0.131 N 
HETATM   22  H10 UNL     1      31.086   7.997  50.496  1.00  0.00     0.318 HD
HETATM   23  H11 UNL     1      29.706   8.631  49.724  1.00  0.00     0.318 HD
ENDBRANCH   3  21
BRANCH   3  24
HETATM   24  C12 UNL     1      32.349   7.363  48.242  1.00  0.00     0.132 A 
HETATM   25  C13 UNL     1      33.470   8.043  47.751  1.00  0.00     0.054 A 
HETATM   26  C14 UNL     1      34.586   7.219  47.827  1.00  0.00     0.117 A 
HETATM   27  N4  UNL     1      34.105   6.080  48.357  1.00  0.00    -0.257 N 
HETATM   28  N5  UNL     1      32.809   6.153  48.601  1.00  0.00    -0.169 NA
BRANCH  27  29
HETATM   29  C15 UNL     1      34.977   4.949  48.601  1.00  0.00     0.314 C 
BRANCH  29  30
HETATM   30  O2  UNL     1      35.565   4.955  49.850  1.00  0.00    -0.380 OA
HETATM   31  H16 UNL     1      36.528   5.183  49.835  1.00  0.00     0.211 HD
ENDBRANCH  29  30
ENDBRANCH  27  29
ENDBRANCH   3  24
TORSDOF 7
ENDMDL
MODEL 8
REMARK VINA RESULT:      -7.3      1.876      7.361
REMARK  7 active torsions:
REMARK  status: ('A' for Active; 'I' for Inactive)
REMARK    1  A    between atoms: C2_2  and  C3_3 
REMARK       I    between atoms: C3_3  and  N1_5 
REMARK    2  A    between atoms: N1_5  and  C4_6 
REMARK    3  A    between atoms: C9_11  and  C10_12 
REMARK    4  A    between atoms: C11_14  and  N3_15 
REMARK    5  A    between atoms: C11_14  and  C12_16 
REMARK    6  A    between atoms: N4_19  and  C15_20 
REMARK    7  A    between atoms: C15_20  and  O2_21 
ROOT
HETATM    1  C10 UNL     1      24.362   4.539  50.455  1.00  0.00     0.057 C 
HETATM    2  N2  UNL     1      24.649   3.223  50.520  1.00  0.00    -0.231 NA
HETATM    3  C11 UNL     1      23.473   2.460  51.145  1.00  0.00     0.355 C 
HETATM    4  N6  UNL     1      22.631   3.422  51.800  1.00  0.00    -0.248 N 
HETATM    5  C16 UNL     1      22.549   4.709  52.589  1.00  0.00     0.092 A 
HETATM    6  C17 UNL     1      23.405   4.900  51.490  1.00  0.00     0.050 A 
HETATM    7  C18 UNL     1      23.846   3.808  52.428  1.00  0.00     0.119 A 
ENDROOT
BRANCH   1   8
HETATM    8  C9  UNL     1      24.821   5.588  49.494  1.00  0.00    -0.003 A 
HETATM    9  C7  UNL     1      24.015   5.938  48.430  1.00  0.00    -0.050 A 
HETATM   10  C6  UNL     1      24.492   6.910  47.580  1.00  0.00     0.010 A 
HETATM   11  C8  UNL     1      22.694   5.279  48.233  1.00  0.00     0.049 C 
HETATM   12  C5  UNL     1      25.713   7.516  47.766  1.00  0.00     0.030 A 
HETATM   13  C4  UNL     1      26.529   7.180  48.818  1.00  0.00     0.035 A 
HETATM   14  C19 UNL     1      26.034   6.211  49.652  1.00  0.00     0.043 A 
BRANCH  13  15
HETATM   15  N1  UNL     1      27.769   7.842  48.951  1.00  0.00    -0.324 N 
HETATM   16  C3  UNL     1      28.068   9.100  49.525  1.00  0.00     0.244 C 
HETATM   17  O1  UNL     1      27.155   9.792  50.009  1.00  0.00    -0.268 OA
HETATM   18  H4  UNL     1      28.635   7.387  48.592  1.00  0.00     0.169 HD
BRANCH  16  19
HETATM   19  C2  UNL     1      29.394   9.687  49.608  1.00  0.00     0.064 C 
HETATM   20  C1  UNL     1      30.214   8.772  49.117  1.00  0.00     0.017 C 
ENDBRANCH  16  19
ENDBRANCH  13  15
ENDBRANCH   1   8
BRANCH   3  21
HETATM   21  N3  UNL     1      22.776   1.958  49.942  1.00  0.00     0.131 N 
HETATM   22  H10 UNL     1      22.633   0.929  49.977  1.00  0.00     0.318 HD
HETATM   23  H11 UNL     1      23.361   2.208  49.120  1.00  0.00     0.318 HD
ENDBRANCH   3  21
BRANCH   3  24
HETATM   24  C12 UNL     1      23.952   1.394  51.975  1.00  0.00     0.132 A 
HETATM   25  C13 UNL     1      23.381   0.556  52.941  1.00  0.00     0.054 A 
HETATM   26  C14 UNL     1      24.343  -0.324  53.423  1.00  0.00     0.117 A 
HETATM   27  N4  UNL     1      25.451   0.010  52.738  1.00  0.00    -0.257 N 
HETATM   28  N5  UNL     1      25.235   1.005  51.896  1.00  0.00    -0.169 NA
BRANCH  27  29
HETATM   29  C15 UNL     1      26.699  -0.692  52.957  1.00  0.00     0.314 C 
BRANCH  29  30
HETATM   30  O2  UNL     1      27.082  -0.750  54.282  1.00  0.00    -0.380 OA
HETATM   31  H16 UNL     1      28.059  -0.667  54.418  1.00  0.00     0.211 HD
ENDBRANCH  29  30
ENDBRANCH  27  29
ENDBRANCH   3  24
TORSDOF 7
ENDMDL
MODEL 9
REMARK VINA RESULT:      -7.2      4.038      5.936
REMARK  7 active torsions:
REMARK  status: ('A' for Active; 'I' for Inactive)
REMARK    1  A    between atoms: C2_2  and  C3_3 
REMARK       I    between atoms: C3_3  and  N1_5 
REMARK    2  A    between atoms: N1_5  and  C4_6 
REMARK    3  A    between atoms: C9_11  and  C10_12 
REMARK    4  A    between atoms: C11_14  and  N3_15 
REMARK    5  A    between atoms: C11_14  and  C12_16 
REMARK    6  A    between atoms: N4_19  and  C15_20 
REMARK    7  A    between atoms: C15_20  and  O2_21 
ROOT
HETATM    1  C10 UNL     1      22.896   2.416  51.705  1.00  0.00     0.057 C 
HETATM    2  N2  UNL     1      23.010   2.567  50.369  1.00  0.00    -0.231 NA
HETATM    3  C11 UNL     1      23.877   3.793  50.053  1.00  0.00     0.355 C 
HETATM    4  N6  UNL     1      23.958   4.587  51.247  1.00  0.00    -0.248 N 
HETATM    5  C16 UNL     1      23.258   5.085  52.490  1.00  0.00     0.092 A 
HETATM    6  C17 UNL     1      23.054   3.699  52.375  1.00  0.00     0.050 A 
HETATM    7  C18 UNL     1      22.541   4.494  51.203  1.00  0.00     0.119 A 
ENDROOT
BRANCH   1   8
HETATM    8  C9  UNL     1      22.699   1.186  52.531  1.00  0.00    -0.003 A 
HETATM    9  C7  UNL     1      23.797   0.535  53.055  1.00  0.00    -0.050 A 
HETATM   10  C6  UNL     1      23.551  -0.592  53.808  1.00  0.00     0.010 A 
HETATM   11  C8  UNL     1      25.172   1.046  52.804  1.00  0.00     0.049 C 
HETATM   12  C5  UNL     1      22.278  -1.062  54.038  1.00  0.00     0.030 A 
HETATM   13  C4  UNL     1      21.175  -0.426  53.523  1.00  0.00     0.035 A 
HETATM   14  C19 UNL     1      21.442   0.693  52.778  1.00  0.00     0.043 A 
BRANCH  13  15
HETATM   15  N1  UNL     1      19.897  -0.961  53.798  1.00  0.00    -0.324 N 
HETATM   16  C3  UNL     1      18.717  -0.932  53.018  1.00  0.00     0.244 C 
HETATM   17  O1  UNL     1      18.722  -0.368  51.909  1.00  0.00    -0.268 OA
HETATM   18  H4  UNL     1      19.733  -1.467  54.693  1.00  0.00     0.169 HD
BRANCH  16  19
HETATM   19  C2  UNL     1      17.446  -1.520  53.403  1.00  0.00     0.064 C 
HETATM   20  C1  UNL     1      17.724  -2.772  53.728  1.00  0.00     0.017 C 
ENDBRANCH  16  19
ENDBRANCH  13  15
ENDBRANCH   1   8
BRANCH   3  21
HETATM   21  N3  UNL     1      25.194   3.166  49.808  1.00  0.00     0.131 N 
HETATM   22  H10 UNL     1      25.591   3.444  48.888  1.00  0.00     0.318 HD
HETATM   23  H11 UNL     1      25.055   2.137  49.839  1.00  0.00     0.318 HD
ENDBRANCH   3  21
BRANCH   3  24
HETATM   24  C12 UNL     1      23.379   4.473  48.893  1.00  0.00     0.132 A 
HETATM   25  C13 UNL     1      23.439   5.786  48.410  1.00  0.00     0.054 A 
HETATM   26  C14 UNL     1      22.769   5.869  47.197  1.00  0.00     0.117 A 
HETATM   27  N4  UNL     1      22.331   4.614  46.989  1.00  0.00    -0.257 N 
HETATM   28  N5  UNL     1      22.680   3.797  47.967  1.00  0.00    -0.169 NA
BRANCH  27  29
HETATM   29  C15 UNL     1      21.571   4.279  45.802  1.00  0.00     0.314 C 
BRANCH  29  30
HETATM   30  O2  UNL     1      20.352   3.688  46.067  1.00  0.00    -0.380 OA
HETATM   31  H16 UNL     1      19.578   4.286  45.915  1.00  0.00     0.211 HD
ENDBRANCH  29  30
ENDBRANCH  27  29
ENDBRANCH   3  24
TORSDOF 7
ENDMDL
