MODEL 1
REMARK VINA RESULT:      -8.0      0.000      0.000
REMARK  2 active torsions:
REMARK  status: ('A' for Active; 'I' for Inactive)
REMARK    1  A    between atoms: C5_5  and  C6_6 
REMARK    2  A    between atoms: C11_12  and  C12_13 
ROOT
HETATM    1  C6  UNL     1      22.538   2.913  50.279  1.00  0.00    -0.015 A 
HETATM    2  C7  UNL     1      21.709   2.567  49.201  1.00  0.00     0.036 A 
HETATM    3  C8  UNL     1      21.616   3.317  48.046  1.00  0.00     0.035 A 
HETATM    4 CL1  UNL     1      20.585   2.897  46.695  1.00  0.00    -0.084 Cl
HETATM    5  C9  UNL     1      22.382   4.459  47.961  1.00  0.00     0.024 A 
HETATM    6  C10 UNL     1      23.179   4.773  49.021  1.00  0.00     0.012 A 
HETATM    7  C11 UNL     1      23.307   4.051  50.202  1.00  0.00    -0.012 A 
ENDROOT
BRANCH   7   8
HETATM    8  C12 UNL     1      24.203   4.428  51.324  1.00  0.00     0.109 C 
HETATM    9  C13 UNL     1      23.569   4.637  52.659  1.00  0.00     0.052 C 
HETATM   10  C14 UNL     1      25.149   3.317  51.453  1.00  0.00     0.157 C 
HETATM   11  N1  UNL     1      26.119   2.832  50.707  1.00  0.00    -0.140 NA
HETATM   12  O1  UNL     1      26.372   3.470  49.484  1.00  0.00    -0.194 OA
HETATM   13  C15 UNL     1      26.522   4.864  49.282  1.00  0.00     0.196 A 
HETATM   14  C16 UNL     1      27.362   5.383  48.440  1.00  0.00     0.046 A 
HETATM   15  N2  UNL     1      25.722   5.781  50.023  1.00  0.00    -0.205 N 
HETATM   16  C17 UNL     1      27.458   6.854  48.287  1.00  0.00     0.131 A 
HETATM   17  S1  UNL     1      26.256   7.401  49.534  1.00  0.00    -0.024 SA
HETATM   18  N3  UNL     1      24.735   5.691  50.934  1.00  0.00    -0.298 N 
HETATM   19  C18 UNL     1      24.006   6.844  51.181  1.00  0.00     0.174 C 
ENDBRANCH   7   8
BRANCH   1  20
HETATM   20  C5  UNL     1      22.396   1.952  51.354  1.00  0.00    -0.025 A 
HETATM   21  C4  UNL     1      23.141   0.916  51.879  1.00  0.00     0.013 A 
HETATM   22  C3  UNL     1      22.697   0.134  52.916  1.00  0.00     0.007 A 
HETATM   23  C2  UNL     1      21.470   0.325  53.514  1.00  0.00    -0.062 A 
HETATM   24  C1  UNL     1      21.165  -0.613  54.615  1.00  0.00     0.048 C 
HETATM   25  C20 UNL     1      20.690   1.351  53.023  1.00  0.00     0.007 A 
HETATM   26  C19 UNL     1      21.144   2.135  51.976  1.00  0.00     0.013 A 
ENDBRANCH   1  20
TORSDOF 2
ENDMDL
MODEL 2
REMARK VINA RESULT:      -7.9      3.437      5.228
REMARK  2 active torsions:
REMARK  status: ('A' for Active; 'I' for Inactive)
REMARK    1  A    between atoms: C5_5  and  C6_6 
REMARK    2  A    between atoms: C11_12  and  C12_13 
ROOT
HETATM    1  C6  UNL     1      23.787   0.680  53.024  1.00  0.00    -0.015 A 
HETATM    2  C7  UNL     1      23.062  -0.418  53.513  1.00  0.00     0.036 A 
HETATM    3  C8  UNL     1      21.684  -0.439  53.598  1.00  0.00     0.035 A 
HETATM    4 CL1  UNL     1      20.769  -1.801  54.208  1.00  0.00    -0.084 Cl
HETATM    5  C9  UNL     1      21.000   0.681  53.179  1.00  0.00     0.024 A 
HETATM    6  C10 UNL     1      21.727   1.733  52.708  1.00  0.00     0.012 A 
HETATM    7  C11 UNL     1      23.111   1.800  52.602  1.00  0.00    -0.012 A 
ENDROOT
BRANCH   7   8
HETATM    8  C12 UNL     1      23.857   2.967  52.066  1.00  0.00     0.109 C 
HETATM    9  C13 UNL     1      24.918   3.553  52.938  1.00  0.00     0.052 C 
HETATM   10  C14 UNL     1      24.505   2.485  50.845  1.00  0.00     0.157 C 
HETATM   11  N1  UNL     1      24.080   2.086  49.665  1.00  0.00    -0.140 NA
HETATM   12  O1  UNL     1      22.695   2.092  49.441  1.00  0.00    -0.194 OA
HETATM   13  C15 UNL     1      21.806   3.159  49.722  1.00  0.00     0.196 A 
HETATM   14  C16 UNL     1      20.793   3.467  48.973  1.00  0.00     0.046 A 
HETATM   15  N2  UNL     1      22.002   3.962  50.883  1.00  0.00    -0.205 N 
HETATM   16  C17 UNL     1      19.909   4.600  49.337  1.00  0.00     0.131 A 
HETATM   17  S1  UNL     1      20.739   5.208  50.832  1.00  0.00    -0.024 SA
HETATM   18  N3  UNL     1      22.862   3.976  51.918  1.00  0.00    -0.298 N 
HETATM   19  C18 UNL     1      22.509   4.753  53.012  1.00  0.00     0.174 C 
ENDBRANCH   7   8
BRANCH   1  20
HETATM   20  C5  UNL     1      25.210   0.413  53.087  1.00  0.00    -0.025 A 
HETATM   21  C4  UNL     1      26.212   0.094  52.193  1.00  0.00     0.013 A 
HETATM   22  C3  UNL     1      27.505  -0.145  52.584  1.00  0.00     0.007 A 
HETATM   23  C2  UNL     1      27.904  -0.084  53.901  1.00  0.00    -0.062 A 
HETATM   24  C1  UNL     1      29.336  -0.372  54.130  1.00  0.00     0.048 C 
HETATM   25  C20 UNL     1      26.936   0.232  54.832  1.00  0.00     0.007 A 
HETATM   26  C19 UNL     1      25.633   0.472  54.430  1.00  0.00     0.013 A 
ENDBRANCH   1  20
TORSDOF 2
ENDMDL
MODEL 3
REMARK VINA RESULT:      -7.8      3.508      5.224
REMARK  2 active torsions:
REMARK  status: ('A' for Active; 'I' for Inactive)
REMARK    1  A    between atoms: C5_5  and  C6_6 
REMARK    2  A    between atoms: C11_12  and  C12_13 
ROOT
HETATM    1  C6  UNL     1      24.761   3.378  50.757  1.00  0.00    -0.015 A 
HETATM    2  C7  UNL     1      25.734   4.234  50.218  1.00  0.00     0.036 A 
HETATM    3  C8  UNL     1      25.496   5.072  49.147  1.00  0.00     0.035 A 
HETATM    4 CL1  UNL     1      26.701   6.143  48.465  1.00  0.00    -0.084 Cl
HETATM    5  C9  UNL     1      24.236   5.057  48.590  1.00  0.00     0.024 A 
HETATM    6  C10 UNL     1      23.309   4.217  49.132  1.00  0.00     0.012 A 
HETATM    7  C11 UNL     1      23.501   3.358  50.207  1.00  0.00    -0.012 A 
ENDROOT
BRANCH   7   8
HETATM    8  C12 UNL     1      22.451   2.472  50.772  1.00  0.00     0.109 C 
HETATM    9  C13 UNL     1      22.842   1.063  51.071  1.00  0.00     0.052 C 
HETATM   10  C14 UNL     1      22.053   3.098  52.034  1.00  0.00     0.157 C 
HETATM   11  N1  UNL     1      21.433   4.212  52.363  1.00  0.00    -0.140 NA
HETATM   12  O1  UNL     1      21.023   5.055  51.319  1.00  0.00    -0.194 OA
HETATM   13  C15 UNL     1      20.316   4.663  50.156  1.00  0.00     0.196 A 
HETATM   14  C16 UNL     1      19.398   5.387  49.594  1.00  0.00     0.046 A 
HETATM   15  N2  UNL     1      20.601   3.412  49.537  1.00  0.00    -0.205 N 
HETATM   16  C17 UNL     1      18.704   4.906  48.376  1.00  0.00     0.131 A 
HETATM   17  S1  UNL     1      19.472   3.272  48.175  1.00  0.00    -0.024 SA
HETATM   18  N3  UNL     1      21.467   2.402  49.744  1.00  0.00    -0.298 N 
HETATM   19  C18 UNL     1      21.624   1.492  48.709  1.00  0.00     0.174 C 
ENDBRANCH   7   8
BRANCH   1  20
HETATM   20  C5  UNL     1      25.318   2.605  51.849  1.00  0.00    -0.025 A 
HETATM   21  C4  UNL     1      25.167   2.551  53.219  1.00  0.00     0.013 A 
HETATM   22  C3  UNL     1      25.897   1.702  54.013  1.00  0.00     0.007 A 
HETATM   23  C2  UNL     1      26.839   0.836  53.500  1.00  0.00    -0.062 A 
HETATM   24  C1  UNL     1      27.525  -0.001  54.508  1.00  0.00     0.048 C 
HETATM   25  C20 UNL     1      27.024   0.854  52.134  1.00  0.00     0.007 A 
HETATM   26  C19 UNL     1      26.284   1.714  51.339  1.00  0.00     0.013 A 
ENDBRANCH   1  20
TORSDOF 2
ENDMDL
MODEL 4
REMARK VINA RESULT:      -7.7      2.913      4.390
REMARK  2 active torsions:
REMARK  status: ('A' for Active; 'I' for Inactive)
REMARK    1  A    between atoms: C5_5  and  C6_6 
REMARK    2  A    between atoms: C11_12  and  C12_13 
ROOT
HETATM    1  C6  UNL     1      22.464   0.774  52.112  1.00  0.00    -0.015 A 
HETATM    2  C7  UNL     1      23.359   0.088  52.947  1.00  0.00     0.036 A 
HETATM    3  C8  UNL     1      24.710   0.369  53.002  1.00  0.00     0.035 A 
HETATM    4 CL1  UNL     1      25.837  -0.481  54.038  1.00  0.00    -0.084 Cl
HETATM    5  C9  UNL     1      25.188   1.375  52.192  1.00  0.00     0.024 A 
HETATM    6  C10 UNL     1      24.298   2.026  51.391  1.00  0.00     0.012 A 
HETATM    7  C11 UNL     1      22.933   1.781  51.301  1.00  0.00    -0.012 A 
ENDROOT
BRANCH   7   8
HETATM    8  C12 UNL     1      22.001   2.531  50.421  1.00  0.00     0.109 C 
HETATM    9  C13 UNL     1      21.223   1.738  49.425  1.00  0.00     0.052 C 
HETATM   10  C14 UNL     1      21.042   3.166  51.327  1.00  0.00     0.157 C 
HETATM   11  N1  UNL     1      21.111   4.117  52.234  1.00  0.00    -0.140 NA
HETATM   12  O1  UNL     1      22.362   4.715  52.448  1.00  0.00    -0.194 OA
HETATM   13  C15 UNL     1      23.237   5.206  51.448  1.00  0.00     0.196 A 
HETATM   14  C16 UNL     1      23.961   6.274  51.585  1.00  0.00     0.046 A 
HETATM   15  N2  UNL     1      23.359   4.516  50.207  1.00  0.00    -0.205 N 
HETATM   16  C17 UNL     1      24.853   6.722  50.490  1.00  0.00     0.131 A 
HETATM   17  S1  UNL     1      24.481   5.476  49.222  1.00  0.00    -0.024 SA
HETATM   18  N3  UNL     1      22.851   3.391  49.669  1.00  0.00    -0.298 N 
HETATM   19  C18 UNL     1      23.476   2.907  48.529  1.00  0.00     0.174 C 
ENDBRANCH   7   8
BRANCH   1  20
HETATM   20  C5  UNL     1      21.126   0.235  52.254  1.00  0.00    -0.025 A 
HETATM   21  C4  UNL     1      19.931   0.321  51.571  1.00  0.00     0.013 A 
HETATM   22  C3  UNL     1      18.785  -0.301  51.999  1.00  0.00     0.007 A 
HETATM   23  C2  UNL     1      18.741  -1.062  53.146  1.00  0.00    -0.062 A 
HETATM   24  C1  UNL     1      17.420  -1.654  53.447  1.00  0.00     0.048 C 
HETATM   25  C20 UNL     1      19.913  -1.178  53.864  1.00  0.00     0.007 A 
HETATM   26  C19 UNL     1      21.065  -0.547  53.426  1.00  0.00     0.013 A 
ENDBRANCH   1  20
TORSDOF 2
ENDMDL
MODEL 5
REMARK VINA RESULT:      -7.7      3.430      6.628
REMARK  2 active torsions:
REMARK  status: ('A' for Active; 'I' for Inactive)
REMARK    1  A    between atoms: C5_5  and  C6_6 
REMARK    2  A    between atoms: C11_12  and  C12_13 
ROOT
HETATM    1  C6  UNL     1      25.266   3.429  50.629  1.00  0.00    -0.015 A 
HETATM    2  C7  UNL     1      26.222   2.522  51.113  1.00  0.00     0.036 A 
HETATM    3  C8  UNL     1      25.894   1.384  51.822  1.00  0.00     0.035 A 
HETATM    4 CL1  UNL     1      27.077   0.246  52.432  1.00  0.00    -0.084 Cl
HETATM    5  C9  UNL     1      24.559   1.138  52.057  1.00  0.00     0.024 A 
HETATM    6  C10 UNL     1      23.652   2.033  51.575  1.00  0.00     0.012 A 
HETATM    7  C11 UNL     1      23.932   3.190  50.858  1.00  0.00    -0.012 A 
ENDROOT
BRANCH   7   8
HETATM    8  C12 UNL     1      22.903   4.128  50.341  1.00  0.00     0.109 C 
HETATM    9  C13 UNL     1      23.112   5.581  50.610  1.00  0.00     0.052 C 
HETATM   10  C14 UNL     1      22.905   3.942  48.889  1.00  0.00     0.157 C 
HETATM   11  N1  UNL     1      22.566   2.962  48.078  1.00  0.00    -0.140 NA
HETATM   12  O1  UNL     1      22.078   1.782  48.660  1.00  0.00    -0.194 OA
HETATM   13  C15 UNL     1      21.075   1.692  49.656  1.00  0.00     0.196 A 
HETATM   14  C16 UNL     1      20.188   0.748  49.701  1.00  0.00     0.046 A 
HETATM   15  N2  UNL     1      21.005   2.674  50.686  1.00  0.00    -0.205 N 
HETATM   16  C17 UNL     1      19.170   0.724  50.779  1.00  0.00     0.131 A 
HETATM   17  S1  UNL     1      19.594   2.246  51.674  1.00  0.00    -0.024 SA
HETATM   18  N3  UNL     1      21.716   3.761  51.041  1.00  0.00    -0.298 N 
HETATM   19  C18 UNL     1      21.488   4.271  52.310  1.00  0.00     0.174 C 
ENDBRANCH   7   8
BRANCH   1  20
HETATM   20  C5  UNL     1      25.916   4.536  49.955  1.00  0.00    -0.025 A 
HETATM   21  C4  UNL     1      25.706   5.893  49.823  1.00  0.00     0.013 A 
HETATM   22  C3  UNL     1      26.510   6.696  49.052  1.00  0.00     0.007 A 
HETATM   23  C2  UNL     1      27.590   6.206  48.351  1.00  0.00    -0.062 A 
HETATM   24  C1  UNL     1      28.338   7.221  47.577  1.00  0.00     0.048 C 
HETATM   25  C20 UNL     1      27.839   4.853  48.453  1.00  0.00     0.007 A 
HETATM   26  C19 UNL     1      27.025   4.050  49.232  1.00  0.00     0.013 A 
ENDBRANCH   1  20
TORSDOF 2
ENDMDL
MODEL 6
REMARK VINA RESULT:      -7.6      4.002      5.891
REMARK  2 active torsions:
REMARK  status: ('A' for Active; 'I' for Inactive)
REMARK    1  A    between atoms: C5_5  and  C6_6 
REMARK    2  A    between atoms: C11_12  and  C12_13 
ROOT
HETATM    1  C6  UNL     1      23.197   3.990  51.200  1.00  0.00    -0.015 A 
HETATM    2  C7  UNL     1      23.733   5.286  51.256  1.00  0.00     0.036 A 
HETATM    3  C8  UNL     1      23.085   6.395  50.749  1.00  0.00     0.035 A 
HETATM    4 CL1  UNL     1      23.743   8.017  50.812  1.00  0.00    -0.084 Cl
HETATM    5  C9  UNL     1      21.854   6.205  50.162  1.00  0.00     0.024 A 
HETATM    6  C10 UNL     1      21.356   4.937  50.121  1.00  0.00     0.012 A 
HETATM    7  C11 UNL     1      21.968   3.792  50.617  1.00  0.00    -0.012 A 
ENDROOT
BRANCH   7   8
HETATM    8  C12 UNL     1      21.375   2.432  50.561  1.00  0.00     0.109 C 
HETATM    9  C13 UNL     1      22.251   1.330  50.068  1.00  0.00     0.052 C 
HETATM   10  C14 UNL     1      21.001   2.116  51.941  1.00  0.00     0.157 C 
HETATM   11  N1  UNL     1      20.110   2.580  52.792  1.00  0.00    -0.140 NA
HETATM   12  O1  UNL     1      19.282   3.624  52.353  1.00  0.00    -0.194 OA
HETATM   13  C15 UNL     1      18.567   3.668  51.131  1.00  0.00     0.196 A 
HETATM   14  C16 UNL     1      17.383   4.185  51.009  1.00  0.00     0.046 A 
HETATM   15  N2  UNL     1      19.145   3.126  49.947  1.00  0.00    -0.205 N 
HETATM   16  C17 UNL     1      16.700   4.193  49.693  1.00  0.00     0.131 A 
HETATM   17  S1  UNL     1      17.921   3.315  48.675  1.00  0.00    -0.024 SA
HETATM   18  N3  UNL     1      20.317   2.553  49.614  1.00  0.00    -0.298 N 
HETATM   19  C18 UNL     1      20.597   2.445  48.261  1.00  0.00     0.174 C 
ENDBRANCH   7   8
BRANCH   1  20
HETATM   20  C5  UNL     1      24.119   3.037  51.785  1.00  0.00    -0.025 A 
HETATM   21  C4  UNL     1      24.204   2.310  52.954  1.00  0.00     0.013 A 
HETATM   22  C3  UNL     1      25.267   1.491  53.243  1.00  0.00     0.007 A 
HETATM   23  C2  UNL     1      26.332   1.330  52.384  1.00  0.00    -0.062 A 
HETATM   24  C1  UNL     1      27.382   0.407  52.864  1.00  0.00     0.048 C 
HETATM   25  C20 UNL     1      26.291   2.038  51.200  1.00  0.00     0.007 A 
HETATM   26  C19 UNL     1      25.216   2.863  50.916  1.00  0.00     0.013 A 
ENDBRANCH   1  20
TORSDOF 2
ENDMDL
MODEL 7
REMARK VINA RESULT:      -7.5      5.032      6.595
REMARK  2 active torsions:
REMARK  status: ('A' for Active; 'I' for Inactive)
REMARK    1  A    between atoms: C5_5  and  C6_6 
REMARK    2  A    between atoms: C11_12  and  C12_13 
ROOT
HETATM    1  C6  UNL     1      25.423   6.732  48.632  1.00  0.00    -0.015 A 
HETATM    2  C7  UNL     1      25.462   5.421  49.134  1.00  0.00     0.036 A 
HETATM    3  C8  UNL     1      26.599   4.638  49.118  1.00  0.00     0.035 A 
HETATM    4 CL1  UNL     1      26.660   3.003  49.740  1.00  0.00    -0.084 Cl
HETATM    5  C9  UNL     1      27.744   5.183  48.582  1.00  0.00     0.024 A 
HETATM    6  C10 UNL     1      27.680   6.458  48.102  1.00  0.00     0.012 A 
HETATM    7  C11 UNL     1      26.562   7.283  48.096  1.00  0.00    -0.012 A 
ENDROOT
BRANCH   7   8
HETATM    8  C12 UNL     1      26.548   8.673  47.574  1.00  0.00     0.109 C 
HETATM    9  C13 UNL     1      25.553   8.987  46.507  1.00  0.00     0.052 C 
HETATM   10  C14 UNL     1      26.237   9.517  48.730  1.00  0.00     0.157 C 
HETATM   11  N1  UNL     1      26.864   9.834  49.843  1.00  0.00    -0.140 NA
HETATM   12  O1  UNL     1      28.133   9.274  50.051  1.00  0.00    -0.194 OA
HETATM   13  C15 UNL     1      29.199   9.245  49.118  1.00  0.00     0.196 A 
HETATM   14  C16 UNL     1      30.446   9.385  49.446  1.00  0.00     0.046 A 
HETATM   15  N2  UNL     1      28.927   9.054  47.732  1.00  0.00    -0.205 N 
HETATM   16  C17 UNL     1      31.504   9.343  48.408  1.00  0.00     0.131 A 
HETATM   17  S1  UNL     1      30.497   9.150  46.909  1.00  0.00    -0.024 SA
HETATM   18  N3  UNL     1      27.833   8.834  46.980  1.00  0.00    -0.298 N 
HETATM   19  C18 UNL     1      28.045   8.391  45.683  1.00  0.00     0.174 C 
ENDBRANCH   7   8
BRANCH   1  20
HETATM   20  C5  UNL     1      24.088   7.281  48.760  1.00  0.00    -0.025 A 
HETATM   21  C4  UNL     1      23.446   8.173  49.594  1.00  0.00     0.013 A 
HETATM   22  C3  UNL     1      22.110   8.467  49.477  1.00  0.00     0.007 A 
HETATM   23  C2  UNL     1      21.307   7.893  48.516  1.00  0.00    -0.062 A 
HETATM   24  C1  UNL     1      19.895   8.332  48.545  1.00  0.00     0.048 C 
HETATM   25  C20 UNL     1      21.906   6.994  47.659  1.00  0.00     0.007 A 
HETATM   26  C19 UNL     1      23.253   6.702  47.782  1.00  0.00     0.013 A 
ENDBRANCH   1  20
TORSDOF 2
ENDMDL
MODEL 8
REMARK VINA RESULT:      -7.3      4.205      6.992
REMARK  2 active torsions:
REMARK  status: ('A' for Active; 'I' for Inactive)
REMARK    1  A    between atoms: C5_5  and  C6_6 
REMARK    2  A    between atoms: C11_12  and  C12_13 
ROOT
HETATM    1  C6  UNL     1      27.952   6.303  48.199  1.00  0.00    -0.015 A 
HETATM    2  C7  UNL     1      29.090   5.483  48.245  1.00  0.00     0.036 A 
HETATM    3  C8  UNL     1      30.336   5.892  47.814  1.00  0.00     0.035 A 
HETATM    4 CL1  UNL     1      31.762   4.878  47.866  1.00  0.00    -0.084 Cl
HETATM    5  C9  UNL     1      30.453   7.171  47.317  1.00  0.00     0.024 A 
HETATM    6  C10 UNL     1      29.333   7.947  47.284  1.00  0.00     0.012 A 
HETATM    7  C11 UNL     1      28.061   7.581  47.706  1.00  0.00    -0.012 A 
ENDROOT
BRANCH   7   8
HETATM    8  C12 UNL     1      26.873   8.472  47.662  1.00  0.00     0.109 C 
HETATM    9  C13 UNL     1      25.659   7.950  46.968  1.00  0.00     0.052 C 
HETATM   10  C14 UNL     1      26.515   8.708  49.062  1.00  0.00     0.157 C 
HETATM   11  N1  UNL     1      27.078   9.339  50.071  1.00  0.00    -0.140 NA
HETATM   12  O1  UNL     1      28.315   9.959  49.834  1.00  0.00    -0.194 OA
HETATM   13  C15 UNL     1      28.629  10.812  48.748  1.00  0.00     0.196 A 
HETATM   14  C16 UNL     1      29.400  11.850  48.848  1.00  0.00     0.046 A 
HETATM   15  N2  UNL     1      28.090  10.547  47.456  1.00  0.00    -0.205 N 
HETATM   16  C17 UNL     1      29.682  12.693  47.661  1.00  0.00     0.131 A 
HETATM   17  S1  UNL     1      28.660  11.863  46.410  1.00  0.00    -0.024 SA
HETATM   18  N3  UNL     1      27.311   9.597  46.906  1.00  0.00    -0.298 N 
HETATM   19  C18 UNL     1      27.274   9.545  45.521  1.00  0.00     0.174 C 
ENDBRANCH   7   8
BRANCH   1  20
HETATM   20  C5  UNL     1      26.792   5.585  48.691  1.00  0.00    -0.025 A 
HETATM   21  C4  UNL     1      25.464   5.870  48.930  1.00  0.00     0.013 A 
HETATM   22  C3  UNL     1      24.592   4.950  49.458  1.00  0.00     0.007 A 
HETATM   23  C2  UNL     1      24.978   3.669  49.788  1.00  0.00    -0.062 A 
HETATM   24  C1  UNL     1      23.901   2.820  50.342  1.00  0.00     0.048 C 
HETATM   25  C20 UNL     1      26.299   3.338  49.565  1.00  0.00     0.007 A 
HETATM   26  C19 UNL     1      27.172   4.272  49.034  1.00  0.00     0.013 A 
ENDBRANCH   1  20
TORSDOF 2
ENDMDL
MODEL 9
REMARK VINA RESULT:      -7.3      5.809      8.687
REMARK  2 active torsions:
REMARK  status: ('A' for Active; 'I' for Inactive)
REMARK    1  A    between atoms: C5_5  and  C6_6 
REMARK    2  A    between atoms: C11_12  and  C12_13 
ROOT
HETATM    1  C6  UNL     1      29.140   6.335  48.064  1.00  0.00    -0.015 A 
HETATM    2  C7  UNL     1      28.602   5.099  48.456  1.00  0.00     0.036 A 
HETATM    3  C8  UNL     1      27.272   4.921  48.780  1.00  0.00     0.035 A 
HETATM    4 CL1  UNL     1      26.590   3.386  49.272  1.00  0.00    -0.084 Cl
HETATM    5  C9  UNL     1      26.444   6.019  48.710  1.00  0.00     0.024 A 
HETATM    6  C10 UNL     1      26.990   7.207  48.326  1.00  0.00     0.012 A 
HETATM    7  C11 UNL     1      28.319   7.436  47.990  1.00  0.00    -0.012 A 
ENDROOT
BRANCH   7   8
HETATM    8  C12 UNL     1      28.863   8.749  47.562  1.00  0.00     0.109 C 
HETATM    9  C13 UNL     1      30.100   9.227  48.247  1.00  0.00     0.052 C 
HETATM   10  C14 UNL     1      29.178   8.593  46.140  1.00  0.00     0.157 C 
HETATM   11  N1  UNL     1      28.467   8.416  45.046  1.00  0.00    -0.140 NA
HETATM   12  O1  UNL     1      27.073   8.350  45.186  1.00  0.00    -0.194 OA
HETATM   13  C15 UNL     1      26.261   9.254  45.915  1.00  0.00     0.196 A 
HETATM   14  C16 UNL     1      25.077   9.624  45.536  1.00  0.00     0.046 A 
HETATM   15  N2  UNL     1      26.734   9.808  47.140  1.00  0.00    -0.205 N 
HETATM   16  C17 UNL     1      24.290  10.575  46.357  1.00  0.00     0.131 A 
HETATM   17  S1  UNL     1      25.469  10.923  47.692  1.00  0.00    -0.024 SA
HETATM   18  N3  UNL     1      27.837   9.677  47.901  1.00  0.00    -0.298 N 
HETATM   19  C18 UNL     1      27.765  10.172  49.194  1.00  0.00     0.174 C 
ENDBRANCH   7   8
BRANCH   1  20
HETATM   20  C5  UNL     1      30.563   6.211  47.820  1.00  0.00    -0.025 A 
HETATM   21  C4  UNL     1      31.393   6.168  46.719  1.00  0.00     0.013 A 
HETATM   22  C3  UNL     1      32.751   5.997  46.819  1.00  0.00     0.007 A 
HETATM   23  C2  UNL     1      33.391   5.856  48.031  1.00  0.00    -0.062 A 
HETATM   24  C1  UNL     1      34.857   5.682  47.941  1.00  0.00     0.048 C 
HETATM   25  C20 UNL     1      32.602   5.893  49.162  1.00  0.00     0.007 A 
HETATM   26  C19 UNL     1      31.233   6.066  49.052  1.00  0.00     0.013 A 
ENDBRANCH   1  20
TORSDOF 2
ENDMDL
