MODEL 1
REMARK VINA RESULT:      -7.7      0.000      0.000
REMARK  4 active torsions:
REMARK  status: ('A' for Active; 'I' for Inactive)
REMARK    1  A    between atoms: C10_12  and  C11_13 
REMARK    2  A    between atoms: C12_14  and  O1_15 
REMARK    3  A    between atoms: C12_14  and  C13_16 
REMARK    4  A    between atoms: C13_16  and  O2_17 
ROOT
HETATM    1  C1  UNL     1      23.289   2.862  48.411  1.00  0.00     0.050 C 
HETATM    2  C2  UNL     1      23.187   3.000  49.848  1.00  0.00    -0.031 A 
HETATM    3  C3  UNL     1      22.639   2.051  50.660  1.00  0.00     0.038 A 
HETATM    4  C4  UNL     1      22.614   2.342  52.006  1.00  0.00     0.034 A 
HETATM    5  C5  UNL     1      23.042   3.442  52.713  1.00  0.00     0.032 A 
HETATM    6  C6  UNL     1      23.620   4.493  52.044  1.00  0.00     0.034 A 
HETATM    7  C7  UNL     1      23.409   3.751  50.929  1.00  0.00     0.059 A 
HETATM    8  N1  UNL     1      24.565   4.342  50.216  1.00  0.00    -0.258 NA
HETATM    9  C8  UNL     1      25.727   3.688  50.390  1.00  0.00     0.275 C 
HETATM   10  N2  UNL     1      26.759   2.789  50.770  1.00  0.00    -0.273 NA
HETATM   11  C9  UNL     1      26.782   1.826  51.586  1.00  0.00     0.098 C 
HETATM   12  C10 UNL     1      26.349   0.829  52.604  1.00  0.00     0.075 C 
HETATM   13  C14 UNL     1      24.852   0.854  52.676  1.00  0.00     0.004 C 
HETATM   14  C15 UNL     1      23.546   0.760  52.706  1.00  0.00     0.088 C 
HETATM   15  N3  UNL     1      22.226   1.326  52.922  1.00  0.00    -0.361 N 
HETATM   16  C16 UNL     1      21.459   0.536  53.853  1.00  0.00     0.155 C 
ENDROOT
BRANCH  12  17
HETATM   17  C11 UNL     1      26.784  -0.550  52.195  1.00  0.00     0.021 C 
HETATM   18  C12 UNL     1      27.373  -1.366  53.041  1.00  0.00     0.064 C 
BRANCH  18  19
HETATM   19  O1  UNL     1      27.566  -0.878  54.324  1.00  0.00    -0.363 OA
HETATM   20  H11 UNL     1      27.519   0.115  54.519  1.00  0.00     0.217 HD
ENDBRANCH  18  19
BRANCH  18  21
HETATM   21  C13 UNL     1      27.820  -2.729  52.683  1.00  0.00     0.228 C 
BRANCH  21  22
HETATM   22  O2  UNL     1      28.838  -3.203  53.465  1.00  0.00    -0.394 OA
HETATM   23  H14 UNL     1      29.722  -3.188  53.033  1.00  0.00     0.209 HD
ENDBRANCH  21  22
ENDBRANCH  18  21
ENDBRANCH  12  17
TORSDOF 4
ENDMDL
MODEL 2
REMARK VINA RESULT:      -7.5      1.596      2.062
REMARK  4 active torsions:
REMARK  status: ('A' for Active; 'I' for Inactive)
REMARK    1  A    between atoms: C10_12  and  C11_13 
REMARK    2  A    between atoms: C12_14  and  O1_15 
REMARK    3  A    between atoms: C12_14  and  C13_16 
REMARK    4  A    between atoms: C13_16  and  O2_17 
ROOT
HETATM    1  C1  UNL     1      21.541   1.231  48.761  1.00  0.00     0.050 C 
HETATM    2  C2  UNL     1      21.391   1.310  50.198  1.00  0.00    -0.031 A 
HETATM    3  C3  UNL     1      21.355   0.218  51.015  1.00  0.00     0.038 A 
HETATM    4  C4  UNL     1      21.201   0.468  52.360  1.00  0.00     0.034 A 
HETATM    5  C5  UNL     1      21.065   1.644  53.063  1.00  0.00     0.032 A 
HETATM    6  C6  UNL     1      21.081   2.841  52.390  1.00  0.00     0.034 A 
HETATM    7  C7  UNL     1      21.238   2.082  51.277  1.00  0.00     0.059 A 
HETATM    8  N1  UNL     1      21.980   3.143  50.558  1.00  0.00    -0.258 NA
HETATM    9  C8  UNL     1      23.314   3.111  50.727  1.00  0.00     0.275 C 
HETATM   10  N2  UNL     1      24.648   2.802  51.103  1.00  0.00    -0.273 NA
HETATM   11  C9  UNL     1      25.123   1.965  51.921  1.00  0.00     0.098 C 
HETATM   12  C10 UNL     1      25.212   0.885  52.943  1.00  0.00     0.075 C 
HETATM   13  C14 UNL     1      23.878   0.206  53.021  1.00  0.00     0.004 C 
HETATM   14  C15 UNL     1      22.767  -0.490  53.058  1.00  0.00     0.088 C 
HETATM   15  N3  UNL     1      21.337  -0.607  53.279  1.00  0.00    -0.361 N 
HETATM   16  C16 UNL     1      21.033  -1.661  54.216  1.00  0.00     0.155 C 
ENDROOT
BRANCH  12  17
HETATM   17  C11 UNL     1      26.240  -0.131  52.533  1.00  0.00     0.021 C 
HETATM   18  C12 UNL     1      27.103  -0.622  53.395  1.00  0.00     0.064 C 
BRANCH  18  19
HETATM   19  O1  UNL     1      27.005  -0.148  54.693  1.00  0.00    -0.363 OA
HETATM   20  H11 UNL     1      27.808  -0.143  55.311  1.00  0.00     0.217 HD
ENDBRANCH  18  19
BRANCH  18  21
HETATM   21  C13 UNL     1      28.134  -1.620  53.038  1.00  0.00     0.228 C 
BRANCH  21  22
HETATM   22  O2  UNL     1      27.677  -2.910  53.026  1.00  0.00    -0.394 OA
HETATM   23  H14 UNL     1      26.823  -3.043  53.494  1.00  0.00     0.209 HD
ENDBRANCH  21  22
ENDBRANCH  18  21
ENDBRANCH  12  17
TORSDOF 4
ENDMDL
MODEL 3
REMARK VINA RESULT:      -7.4      3.439      6.150
REMARK  4 active torsions:
REMARK  status: ('A' for Active; 'I' for Inactive)
REMARK    1  A    between atoms: C10_12  and  C11_13 
REMARK    2  A    between atoms: C12_14  and  O1_15 
REMARK    3  A    between atoms: C12_14  and  C13_16 
REMARK    4  A    between atoms: C13_16  and  O2_17 
ROOT
HETATM    1  C1  UNL     1      26.908  -2.078  52.369  1.00  0.00     0.050 C 
HETATM    2  C2  UNL     1      26.699  -0.679  52.676  1.00  0.00    -0.031 A 
HETATM    3  C3  UNL     1      26.417   0.266  51.733  1.00  0.00     0.038 A 
HETATM    4  C4  UNL     1      26.252   1.553  52.193  1.00  0.00     0.034 A 
HETATM    5  C5  UNL     1      26.326   2.090  53.458  1.00  0.00     0.032 A 
HETATM    6  C6  UNL     1      26.601   1.272  54.526  1.00  0.00     0.034 A 
HETATM    7  C7  UNL     1      26.653   0.278  53.604  1.00  0.00     0.059 A 
HETATM    8  N1  UNL     1      26.228  -0.756  54.575  1.00  0.00    -0.258 NA
HETATM    9  C8  UNL     1      24.899  -0.943  54.653  1.00  0.00     0.275 C 
HETATM   10  N2  UNL     1      23.488  -0.892  54.492  1.00  0.00    -0.273 NA
HETATM   11  C9  UNL     1      22.740  -0.118  53.833  1.00  0.00     0.098 C 
HETATM   12  C10 UNL     1      22.288   0.989  52.943  1.00  0.00     0.075 C 
HETATM   13  C14 UNL     1      23.483   1.514  52.207  1.00  0.00     0.004 C 
HETATM   14  C15 UNL     1      24.471   1.943  51.461  1.00  0.00     0.088 C 
HETATM   15  N3  UNL     1      25.780   2.549  51.294  1.00  0.00    -0.361 N 
HETATM   16  C16 UNL     1      25.730   3.674  50.394  1.00  0.00     0.155 C 
ENDROOT
BRANCH  12  17
HETATM   17  C11 UNL     1      21.297   0.472  51.939  1.00  0.00     0.021 C 
HETATM   18  C12 UNL     1      20.151   1.080  51.728  1.00  0.00     0.064 C 
BRANCH  18  19
HETATM   19  O1  UNL     1      19.915   2.217  52.484  1.00  0.00    -0.363 OA
HETATM   20  H11 UNL     1      19.114   2.810  52.303  1.00  0.00     0.217 HD
ENDBRANCH  18  19
BRANCH  18  21
HETATM   21  C13 UNL     1      19.145   0.608  50.752  1.00  0.00     0.228 C 
BRANCH  21  22
HETATM   22  O2  UNL     1      19.403   0.983  49.462  1.00  0.00    -0.394 OA
HETATM   23  H14 UNL     1      20.297   1.370  49.323  1.00  0.00     0.209 HD
ENDBRANCH  21  22
ENDBRANCH  18  21
ENDBRANCH  12  17
TORSDOF 4
ENDMDL
MODEL 4
REMARK VINA RESULT:      -7.1      1.535      3.836
REMARK  4 active torsions:
REMARK  status: ('A' for Active; 'I' for Inactive)
REMARK    1  A    between atoms: C10_12  and  C11_13 
REMARK    2  A    between atoms: C12_14  and  O1_15 
REMARK    3  A    between atoms: C12_14  and  C13_16 
REMARK    4  A    between atoms: C13_16  and  O2_17 
ROOT
HETATM    1  C1  UNL     1      22.361   4.786  52.525  1.00  0.00     0.050 C 
HETATM    2  C2  UNL     1      23.031   4.270  51.350  1.00  0.00    -0.031 A 
HETATM    3  C3  UNL     1      24.273   4.670  50.954  1.00  0.00     0.038 A 
HETATM    4  C4  UNL     1      24.765   4.083  49.809  1.00  0.00     0.034 A 
HETATM    5  C5  UNL     1      24.226   3.147  48.956  1.00  0.00     0.032 A 
HETATM    6  C6  UNL     1      22.977   2.637  49.212  1.00  0.00     0.034 A 
HETATM    7  C7  UNL     1      22.991   3.455  50.294  1.00  0.00     0.059 A 
HETATM    8  N1  UNL     1      22.099   2.569  51.078  1.00  0.00    -0.258 NA
HETATM    9  C8  UNL     1      22.733   1.640  51.814  1.00  0.00     0.275 C 
HETATM   10  N2  UNL     1      23.687   0.805  52.456  1.00  0.00    -0.273 NA
HETATM   11  C9  UNL     1      24.940   0.703  52.332  1.00  0.00     0.098 C 
HETATM   12  C10 UNL     1      26.334   0.933  51.861  1.00  0.00     0.075 C 
HETATM   13  C14 UNL     1      26.362   2.218  51.090  1.00  0.00     0.004 C 
HETATM   14  C15 UNL     1      26.466   3.383  50.498  1.00  0.00     0.088 C 
HETATM   15  N3  UNL     1      26.119   4.318  49.443  1.00  0.00    -0.361 N 
HETATM   16  C16 UNL     1      27.294   4.823  48.778  1.00  0.00     0.155 C 
ENDROOT
BRANCH  12  17
HETATM   17  C11 UNL     1      27.262   1.060  53.036  1.00  0.00     0.021 C 
HETATM   18  C12 UNL     1      27.919   0.025  53.509  1.00  0.00     0.064 C 
BRANCH  18  19
HETATM   19  O1  UNL     1      27.704  -1.182  52.862  1.00  0.00    -0.363 OA
HETATM   20  H11 UNL     1      26.782  -1.601  52.828  1.00  0.00     0.217 HD
ENDBRANCH  18  19
BRANCH  18  21
HETATM   21  C13 UNL     1      28.840   0.101  54.663  1.00  0.00     0.228 C 
BRANCH  21  22
HETATM   22  O2  UNL     1      29.046   1.372  55.126  1.00  0.00    -0.394 OA
HETATM   23  H14 UNL     1      29.620   1.426  55.923  1.00  0.00     0.209 HD
ENDBRANCH  21  22
ENDBRANCH  18  21
ENDBRANCH  12  17
TORSDOF 4
ENDMDL
MODEL 5
REMARK VINA RESULT:      -7.0      3.543      6.030
REMARK  4 active torsions:
REMARK  status: ('A' for Active; 'I' for Inactive)
REMARK    1  A    between atoms: C10_12  and  C11_13 
REMARK    2  A    between atoms: C12_14  and  O1_15 
REMARK    3  A    between atoms: C12_14  and  C13_16 
REMARK    4  A    between atoms: C13_16  and  O2_17 
ROOT
HETATM    1  C1  UNL     1      27.334  -1.951  52.690  1.00  0.00     0.050 C 
HETATM    2  C2  UNL     1      26.760  -0.635  52.874  1.00  0.00    -0.031 A 
HETATM    3  C3  UNL     1      25.923  -0.045  51.972  1.00  0.00     0.038 A 
HETATM    4  C4  UNL     1      25.469   1.214  52.297  1.00  0.00     0.034 A 
HETATM    5  C5  UNL     1      25.708   2.021  53.386  1.00  0.00     0.032 A 
HETATM    6  C6  UNL     1      26.532   1.576  54.391  1.00  0.00     0.034 A 
HETATM    7  C7  UNL     1      26.655   0.455  53.637  1.00  0.00     0.059 A 
HETATM    8  N1  UNL     1      26.895  -0.411  54.814  1.00  0.00    -0.258 NA
HETATM    9  C8  UNL     1      25.786  -0.940  55.359  1.00  0.00     0.275 C 
HETATM   10  N2  UNL     1      24.456  -1.325  55.679  1.00  0.00    -0.273 NA
HETATM   11  C9  UNL     1      23.338  -0.960  55.221  1.00  0.00     0.098 C 
HETATM   12  C10 UNL     1      22.308  -0.256  54.407  1.00  0.00     0.075 C 
HETATM   13  C14 UNL     1      22.998   0.404  53.250  1.00  0.00     0.004 C 
HETATM   14  C15 UNL     1      23.532   0.912  52.167  1.00  0.00     0.088 C 
HETATM   15  N3  UNL     1      24.457   1.807  51.495  1.00  0.00    -0.361 N 
HETATM   16  C16 UNL     1      23.779   2.640  50.532  1.00  0.00     0.155 C 
ENDROOT
BRANCH  12  17
HETATM   17  C11 UNL     1      21.311  -1.242  53.868  1.00  0.00     0.021 C 
HETATM   18  C12 UNL     1      20.017  -1.025  53.946  1.00  0.00     0.064 C 
BRANCH  18  19
HETATM   19  O1  UNL     1      19.634   0.162  54.551  1.00  0.00    -0.363 OA
HETATM   20  H11 UNL     1      20.243   0.972  54.548  1.00  0.00     0.217 HD
ENDBRANCH  18  19
BRANCH  18  21
HETATM   21  C13 UNL     1      18.999  -1.966  53.432  1.00  0.00     0.228 C 
BRANCH  21  22
HETATM   22  O2  UNL     1      17.777  -1.846  54.036  1.00  0.00    -0.394 OA
HETATM   23  H14 UNL     1      17.563  -2.570  54.666  1.00  0.00     0.209 HD
ENDBRANCH  21  22
ENDBRANCH  18  21
ENDBRANCH  12  17
TORSDOF 4
ENDMDL
MODEL 6
REMARK VINA RESULT:      -6.4      3.953      5.870
REMARK  4 active torsions:
REMARK  status: ('A' for Active; 'I' for Inactive)
REMARK    1  A    between atoms: C10_12  and  C11_13 
REMARK    2  A    between atoms: C12_14  and  O1_15 
REMARK    3  A    between atoms: C12_14  and  C13_16 
REMARK    4  A    between atoms: C13_16  and  O2_17 
ROOT
HETATM    1  C1  UNL     1      20.391   1.333  48.960  1.00  0.00     0.050 C 
HETATM    2  C2  UNL     1      20.917   1.329  50.309  1.00  0.00    -0.031 A 
HETATM    3  C3  UNL     1      22.206   1.006  50.615  1.00  0.00     0.038 A 
HETATM    4  C4  UNL     1      22.543   1.047  51.950  1.00  0.00     0.034 A 
HETATM    5  C5  UNL     1      21.807   1.352  53.071  1.00  0.00     0.032 A 
HETATM    6  C6  UNL     1      20.485   1.701  52.939  1.00  0.00     0.034 A 
HETATM    7  C7  UNL     1      20.688   1.518  51.611  1.00  0.00     0.059 A 
HETATM    8  N1  UNL     1      19.650   2.504  51.232  1.00  0.00    -0.258 NA
HETATM    9  C8  UNL     1      20.096   3.765  51.092  1.00  0.00     0.275 C 
HETATM   10  N2  UNL     1      20.871   4.954  51.028  1.00  0.00    -0.273 NA
HETATM   11  C9  UNL     1      22.073   5.195  51.330  1.00  0.00     0.098 C 
HETATM   12  C10 UNL     1      23.475   5.010  51.798  1.00  0.00     0.075 C 
HETATM   13  C14 UNL     1      23.750   3.539  51.879  1.00  0.00     0.004 C 
HETATM   14  C15 UNL     1      24.078   2.270  51.868  1.00  0.00     0.088 C 
HETATM   15  N3  UNL     1      23.908   0.900  52.318  1.00  0.00    -0.361 N 
HETATM   16  C16 UNL     1      25.148   0.346  52.803  1.00  0.00     0.155 C 
ENDROOT
BRANCH  12  17
HETATM   17  C11 UNL     1      24.433   5.621  50.815  1.00  0.00     0.021 C 
HETATM   18  C12 UNL     1      24.766   6.892  50.878  1.00  0.00     0.064 C 
BRANCH  18  19
HETATM   19  O1  UNL     1      24.182   7.625  51.898  1.00  0.00    -0.363 OA
HETATM   20  H11 UNL     1      24.533   8.541  52.152  1.00  0.00     0.217 HD
ENDBRANCH  18  19
BRANCH  18  21
HETATM   21  C13 UNL     1      25.702   7.537  49.933  1.00  0.00     0.228 C 
BRANCH  21  22
HETATM   22  O2  UNL     1      26.780   8.128  50.534  1.00  0.00    -0.394 OA
HETATM   23  H14 UNL     1      27.643   7.706  50.325  1.00  0.00     0.209 HD
ENDBRANCH  21  22
ENDBRANCH  18  21
ENDBRANCH  12  17
TORSDOF 4
ENDMDL
MODEL 7
REMARK VINA RESULT:      -6.2      6.196      7.810
REMARK  4 active torsions:
REMARK  status: ('A' for Active; 'I' for Inactive)
REMARK    1  A    between atoms: C10_12  and  C11_13 
REMARK    2  A    between atoms: C12_14  and  O1_15 
REMARK    3  A    between atoms: C12_14  and  C13_16 
REMARK    4  A    between atoms: C13_16  and  O2_17 
ROOT
HETATM    1  C1  UNL     1      26.882   9.825  46.058  1.00  0.00     0.050 C 
HETATM    2  C2  UNL     1      26.807   9.118  47.319  1.00  0.00    -0.031 A 
HETATM    3  C3  UNL     1      26.375   7.830  47.437  1.00  0.00     0.038 A 
HETATM    4  C4  UNL     1      26.360   7.308  48.711  1.00  0.00     0.034 A 
HETATM    5  C5  UNL     1      26.701   7.853  49.928  1.00  0.00     0.032 A 
HETATM    6  C6  UNL     1      27.158   9.147  49.987  1.00  0.00     0.034 A 
HETATM    7  C7  UNL     1      26.987   9.147  48.641  1.00  0.00     0.059 A 
HETATM    8  N1  UNL     1      28.061  10.142  48.421  1.00  0.00    -0.258 NA
HETATM    9  C8  UNL     1      29.284   9.618  48.232  1.00  0.00     0.275 C 
HETATM   10  N2  UNL     1      30.408   8.763  48.071  1.00  0.00    -0.273 NA
HETATM   11  C9  UNL     1      30.545   7.515  48.202  1.00  0.00     0.098 C 
HETATM   12  C10 UNL     1      30.238   6.082  48.467  1.00  0.00     0.075 C 
HETATM   13  C14 UNL     1      28.748   5.920  48.494  1.00  0.00     0.004 C 
HETATM   14  C15 UNL     1      27.457   5.703  48.426  1.00  0.00     0.088 C 
HETATM   15  N3  UNL     1      26.096   5.921  48.883  1.00  0.00    -0.361 N 
HETATM   16  C16 UNL     1      25.434   4.676  49.183  1.00  0.00     0.155 C 
ENDROOT
BRANCH  12  17
HETATM   17  C11 UNL     1      30.790   5.222  47.365  1.00  0.00     0.021 C 
HETATM   18  C12 UNL     1      31.781   4.385  47.576  1.00  0.00     0.064 C 
BRANCH  18  19
HETATM   19  O1  UNL     1      32.280   4.345  48.869  1.00  0.00    -0.363 OA
HETATM   20  H11 UNL     1      33.131   4.836  49.117  1.00  0.00     0.217 HD
ENDBRANCH  18  19
BRANCH  18  21
HETATM   21  C13 UNL     1      32.359   3.522  46.524  1.00  0.00     0.228 C 
BRANCH  21  22
HETATM   22  O2  UNL     1      31.576   2.450  46.193  1.00  0.00    -0.394 OA
HETATM   23  H14 UNL     1      31.134   2.525  45.316  1.00  0.00     0.209 HD
ENDBRANCH  21  22
ENDBRANCH  18  21
ENDBRANCH  12  17
TORSDOF 4
ENDMDL
MODEL 8
REMARK VINA RESULT:      -6.1      3.469      6.168
REMARK  4 active torsions:
REMARK  status: ('A' for Active; 'I' for Inactive)
REMARK    1  A    between atoms: C10_12  and  C11_13 
REMARK    2  A    between atoms: C12_14  and  O1_15 
REMARK    3  A    between atoms: C12_14  and  C13_16 
REMARK    4  A    between atoms: C13_16  and  O2_17 
ROOT
HETATM    1  C1  UNL     1      26.420  -2.381  51.841  1.00  0.00     0.050 C 
HETATM    2  C2  UNL     1      26.553  -1.367  52.865  1.00  0.00    -0.031 A 
HETATM    3  C3  UNL     1      27.614  -0.513  52.948  1.00  0.00     0.038 A 
HETATM    4  C4  UNL     1      27.589   0.390  53.987  1.00  0.00     0.034 A 
HETATM    5  C5  UNL     1      26.676   0.600  54.995  1.00  0.00     0.032 A 
HETATM    6  C6  UNL     1      25.545  -0.177  55.057  1.00  0.00     0.034 A 
HETATM    7  C7  UNL     1      26.041  -0.785  53.951  1.00  0.00     0.059 A 
HETATM    8  N1  UNL     1      24.696  -1.142  53.444  1.00  0.00    -0.258 NA
HETATM    9  C8  UNL     1      24.134  -0.220  52.643  1.00  0.00     0.275 C 
HETATM   10  N2  UNL     1      23.836   0.925  51.857  1.00  0.00    -0.273 NA
HETATM   11  C9  UNL     1      24.438   2.024  51.703  1.00  0.00     0.098 C 
HETATM   12  C10 UNL     1      25.450   3.109  51.834  1.00  0.00     0.075 C 
HETATM   13  C14 UNL     1      26.666   2.535  52.498  1.00  0.00     0.004 C 
HETATM   14  C15 UNL     1      27.790   2.064  52.978  1.00  0.00     0.088 C 
HETATM   15  N3  UNL     1      28.566   1.422  54.024  1.00  0.00    -0.361 N 
HETATM   16  C16 UNL     1      29.726   2.203  54.377  1.00  0.00     0.155 C 
ENDROOT
BRANCH  12  17
HETATM   17  C11 UNL     1      25.843   3.617  50.476  1.00  0.00     0.021 C 
HETATM   18  C12 UNL     1      25.609   4.858  50.111  1.00  0.00     0.064 C 
BRANCH  18  19
HETATM   19  O1  UNL     1      24.983   5.661  51.051  1.00  0.00    -0.363 OA
HETATM   20  H11 UNL     1      24.122   6.149  50.832  1.00  0.00     0.217 HD
ENDBRANCH  18  19
BRANCH  18  21
HETATM   21  C13 UNL     1      25.975   5.401  48.786  1.00  0.00     0.228 C 
BRANCH  21  22
HETATM   22  O2  UNL     1      27.312   5.324  48.503  1.00  0.00    -0.394 OA
HETATM   23  H14 UNL     1      27.521   4.901  47.640  1.00  0.00     0.209 HD
ENDBRANCH  21  22
ENDBRANCH  18  21
ENDBRANCH  12  17
TORSDOF 4
ENDMDL
MODEL 9
REMARK VINA RESULT:      -6.1      8.809     11.737
REMARK  4 active torsions:
REMARK  status: ('A' for Active; 'I' for Inactive)
REMARK    1  A    between atoms: C10_12  and  C11_13 
REMARK    2  A    between atoms: C12_14  and  O1_15 
REMARK    3  A    between atoms: C12_14  and  C13_16 
REMARK    4  A    between atoms: C13_16  and  O2_17 
ROOT
HETATM    1  C1  UNL     1      33.047   4.650  44.906  1.00  0.00     0.050 C 
HETATM    2  C2  UNL     1      33.568   5.622  45.843  1.00  0.00    -0.031 A 
HETATM    3  C3  UNL     1      33.447   6.970  45.678  1.00  0.00     0.038 A 
HETATM    4  C4  UNL     1      34.004   7.757  46.661  1.00  0.00     0.034 A 
HETATM    5  C5  UNL     1      34.687   7.437  47.812  1.00  0.00     0.032 A 
HETATM    6  C6  UNL     1      34.897   6.117  48.130  1.00  0.00     0.034 A 
HETATM    7  C7  UNL     1      34.228   5.852  46.980  1.00  0.00     0.059 A 
HETATM    8  N1  UNL     1      33.720   4.554  47.478  1.00  0.00    -0.258 NA
HETATM    9  C8  UNL     1      32.536   4.618  48.112  1.00  0.00     0.275 C 
HETATM   10  N2  UNL     1      31.312   5.023  48.709  1.00  0.00    -0.273 NA
HETATM   11  C9  UNL     1      30.809   6.163  48.913  1.00  0.00     0.098 C 
HETATM   12  C10 UNL     1      30.629   7.642  48.941  1.00  0.00     0.075 C 
HETATM   13  C14 UNL     1      31.643   8.253  48.021  1.00  0.00     0.004 C 
HETATM   14  C15 UNL     1      32.436   8.833  47.154  1.00  0.00     0.088 C 
HETATM   15  N3  UNL     1      33.756   9.157  46.643  1.00  0.00    -0.361 N 
HETATM   16  C16 UNL     1      33.922  10.579  46.472  1.00  0.00     0.155 C 
ENDROOT
BRANCH  12  17
HETATM   17  C11 UNL     1      29.257   8.005  48.448  1.00  0.00     0.021 C 
HETATM   18  C12 UNL     1      28.506   8.876  49.084  1.00  0.00     0.064 C 
BRANCH  18  19
HETATM   19  O1  UNL     1      29.054   9.433  50.229  1.00  0.00    -0.363 OA
HETATM   20  H11 UNL     1      29.081   8.918  51.101  1.00  0.00     0.217 HD
ENDBRANCH  18  19
BRANCH  18  21
HETATM   21  C13 UNL     1      27.150   9.262  48.639  1.00  0.00     0.228 C 
BRANCH  21  22
HETATM   22  O2  UNL     1      26.585  10.262  49.383  1.00  0.00    -0.394 OA
HETATM   23  H14 UNL     1      26.957  10.354  50.289  1.00  0.00     0.209 HD
ENDBRANCH  21  22
ENDBRANCH  18  21
ENDBRANCH  12  17
TORSDOF 4
ENDMDL
