MODEL 1
REMARK VINA RESULT:      -9.0      0.000      0.000
REMARK  3 active torsions:
REMARK  status: ('A' for Active; 'I' for Inactive)
REMARK    1  A    between atoms: O1_1  and  C1_2 
REMARK    2  A    between atoms: C3_6  and  N3_7 
REMARK    3  A    between atoms: N3_7  and  C4_8 
ROOT
HETATM    1  C1  UNL     1      27.284   0.526  53.893  1.00  0.00     0.397 C 
HETATM    2  N1  UNL     1      27.347   1.868  53.207  1.00  0.00    -0.225 NA
HETATM    3  C2  UNL     1      27.013   1.839  51.933  1.00  0.00     0.234 C 
HETATM    4  N2  UNL     1      26.851   2.628  50.775  1.00  0.00    -0.227 NA
HETATM    5  C3  UNL     1      25.666   3.225  50.718  1.00  0.00     0.134 C 
HETATM    6  C10 UNL     1      24.482   3.284  51.585  1.00  0.00     0.347 C 
HETATM    7  N4  UNL     1      24.315   2.281  52.562  1.00  0.00     0.094 N 
HETATM    8  C11 UNL     1      23.952   0.964  52.129  1.00  0.00     0.311 C 
HETATM    9  C12 UNL     1      23.837   0.104  53.364  1.00  0.00     0.003 A 
HETATM   10  C13 UNL     1      22.558  -0.377  53.676  1.00  0.00     0.012 A 
HETATM   11  C14 UNL     1      22.305  -1.168  54.772  1.00  0.00     0.001 A 
HETATM   12  C15 UNL     1      23.320  -1.527  55.628  1.00  0.00     0.003 A 
HETATM   13  C16 UNL     1      24.552  -1.055  55.314  1.00  0.00     0.037 A 
HETATM   14  C17 UNL     1      24.842  -0.265  54.232  1.00  0.00     0.082 A 
HETATM   15  O2  UNL     1      26.040   0.124  54.036  1.00  0.00    -0.300 OA
HETATM   16  H11 UNL     1      23.560   2.592  53.226  1.00  0.00     0.316 HD
ENDROOT
BRANCH   5  17
HETATM   17  N3  UNL     1      25.593   3.996  49.522  1.00  0.00    -0.343 N 
HETATM   18  H4  UNL     1      24.837   3.750  48.809  1.00  0.00     0.167 HD
BRANCH  17  19
HETATM   19  C4  UNL     1      26.447   5.103  49.168  1.00  0.00     0.034 A 
HETATM   20  C5  UNL     1      27.662   4.988  48.568  1.00  0.00     0.029 A 
HETATM   21  C6  UNL     1      28.441   6.078  48.238  1.00  0.00     0.004 A 
HETATM   22  C7  UNL     1      28.009   7.348  48.508  1.00  0.00     0.019 A 
HETATM   23  C8  UNL     1      26.786   7.478  49.113  1.00  0.00     0.013 A 
HETATM   24 BR1  UNL     1      26.133   9.232  49.514  1.00  0.00    -0.051 Br
HETATM   25  C9  UNL     1      26.035   6.389  49.430  1.00  0.00     0.048 A 
ENDBRANCH  17  19
ENDBRANCH   5  17
BRANCH   1  26
HETATM   26  O1  UNL     1      28.134  -0.277  53.118  1.00  0.00    -0.353 OA
HETATM   27  H1  UNL     1      29.089  -0.138  53.335  1.00  0.00     0.214 HD
ENDBRANCH   1  26
TORSDOF 3
ENDMDL
MODEL 2
REMARK VINA RESULT:      -8.5      1.867      2.322
REMARK  3 active torsions:
REMARK  status: ('A' for Active; 'I' for Inactive)
REMARK    1  A    between atoms: O1_1  and  C1_2 
REMARK    2  A    between atoms: C3_6  and  N3_7 
REMARK    3  A    between atoms: N3_7  and  C4_8 
ROOT
HETATM    1  C1  UNL     1      25.903  -0.610  54.189  1.00  0.00     0.397 C 
HETATM    2  N1  UNL     1      26.557   0.702  53.834  1.00  0.00    -0.225 NA
HETATM    3  C2  UNL     1      26.590   0.957  52.542  1.00  0.00     0.234 C 
HETATM    4  N2  UNL     1      26.998   1.896  51.572  1.00  0.00    -0.227 NA
HETATM    5  C3  UNL     1      26.114   2.871  51.393  1.00  0.00     0.134 C 
HETATM    6  C10 UNL     1      24.816   3.228  51.981  1.00  0.00     0.347 C 
HETATM    7  N4  UNL     1      24.092   2.229  52.663  1.00  0.00     0.094 N 
HETATM    8  C11 UNL     1      23.475   1.190  51.892  1.00  0.00     0.311 C 
HETATM    9  C12 UNL     1      22.772   0.272  52.862  1.00  0.00     0.003 A 
HETATM   10  C13 UNL     1      21.373   0.232  52.785  1.00  0.00     0.012 A 
HETATM   11  C14 UNL     1      20.603  -0.556  53.608  1.00  0.00     0.001 A 
HETATM   12  C15 UNL     1      21.187  -1.355  54.562  1.00  0.00     0.003 A 
HETATM   13  C16 UNL     1      22.540  -1.307  54.626  1.00  0.00     0.037 A 
HETATM   14  C17 UNL     1      23.340  -0.535  53.823  1.00  0.00     0.082 A 
HETATM   15  O2  UNL     1      24.606  -0.567  53.975  1.00  0.00    -0.300 OA
HETATM   16  H11 UNL     1      23.318   2.695  53.202  1.00  0.00     0.316 HD
ENDROOT
BRANCH   5  17
HETATM   17  N3  UNL     1      26.608   3.768  50.401  1.00  0.00    -0.343 N 
HETATM   18  H4  UNL     1      27.652   3.747  50.179  1.00  0.00     0.167 HD
BRANCH  17  19
HETATM   19  C4  UNL     1      25.828   4.716  49.644  1.00  0.00     0.034 A 
HETATM   20  C5  UNL     1      26.248   5.957  49.281  1.00  0.00     0.029 A 
HETATM   21  C6  UNL     1      25.469   6.828  48.547  1.00  0.00     0.004 A 
HETATM   22  C7  UNL     1      24.212   6.465  48.146  1.00  0.00     0.019 A 
HETATM   23  C8  UNL     1      23.776   5.217  48.505  1.00  0.00     0.013 A 
HETATM   24 BR1  UNL     1      22.025   4.659  47.970  1.00  0.00    -0.051 Br
HETATM   25  C9  UNL     1      24.561   4.375  49.230  1.00  0.00     0.048 A 
ENDBRANCH  17  19
ENDBRANCH   5  17
BRANCH   1  26
HETATM   26  O1  UNL     1      26.644  -1.551  53.458  1.00  0.00    -0.353 OA
HETATM   27  H1  UNL     1      26.068  -2.180  52.957  1.00  0.00     0.214 HD
ENDBRANCH   1  26
TORSDOF 3
ENDMDL
MODEL 3
REMARK VINA RESULT:      -8.0      4.518      8.360
REMARK  3 active torsions:
REMARK  status: ('A' for Active; 'I' for Inactive)
REMARK    1  A    between atoms: O1_1  and  C1_2 
REMARK    2  A    between atoms: C3_6  and  N3_7 
REMARK    3  A    between atoms: N3_7  and  C4_8 
ROOT
HETATM    1  C1  UNL     1      24.857   8.668  49.722  1.00  0.00     0.397 C 
HETATM    2  N1  UNL     1      23.950   8.107  50.788  1.00  0.00    -0.225 NA
HETATM    3  C2  UNL     1      23.125   7.174  50.358  1.00  0.00     0.234 C 
HETATM    4  N2  UNL     1      22.100   6.286  50.746  1.00  0.00    -0.227 NA
HETATM    5  C3  UNL     1      22.564   5.155  51.264  1.00  0.00     0.134 C 
HETATM    6  C10 UNL     1      23.895   4.606  51.555  1.00  0.00     0.347 C 
HETATM    7  N4  UNL     1      25.010   5.167  50.898  1.00  0.00     0.094 N 
HETATM    8  C11 UNL     1      25.185   4.893  49.502  1.00  0.00     0.311 C 
HETATM    9  C12 UNL     1      26.442   5.603  49.063  1.00  0.00     0.003 A 
HETATM   10  C13 UNL     1      27.514   4.792  48.666  1.00  0.00     0.012 A 
HETATM   11  C14 UNL     1      28.720   5.302  48.245  1.00  0.00     0.001 A 
HETATM   12  C15 UNL     1      28.928   6.660  48.196  1.00  0.00     0.003 A 
HETATM   13  C16 UNL     1      27.883   7.433  48.582  1.00  0.00     0.037 A 
HETATM   14  C17 UNL     1      26.668   6.961  49.007  1.00  0.00     0.082 A 
HETATM   15  O2  UNL     1      25.755   7.784  49.349  1.00  0.00    -0.300 OA
HETATM   16  H11 UNL     1      25.881   4.823  51.378  1.00  0.00     0.316 HD
ENDROOT
BRANCH   5  17
HETATM   17  N3  UNL     1      21.463   4.325  51.626  1.00  0.00    -0.343 N 
HETATM   18  H4  UNL     1      20.576   4.795  51.989  1.00  0.00     0.167 HD
BRANCH  17  19
HETATM   19  C4  UNL     1      21.418   2.886  51.545  1.00  0.00     0.034 A 
HETATM   20  C5  UNL     1      21.443   2.169  50.389  1.00  0.00     0.029 A 
HETATM   21  C6  UNL     1      21.408   0.790  50.360  1.00  0.00     0.004 A 
HETATM   22  C7  UNL     1      21.344   0.073  51.523  1.00  0.00     0.019 A 
HETATM   23  C8  UNL     1      21.318   0.782  52.695  1.00  0.00     0.013 A 
HETATM   24 BR1  UNL     1      21.229  -0.172  54.353  1.00  0.00    -0.051 Br
HETATM   25  C9  UNL     1      21.353   2.142  52.700  1.00  0.00     0.048 A 
ENDBRANCH  17  19
ENDBRANCH   5  17
BRANCH   1  26
HETATM   26  O1  UNL     1      23.964   9.128  48.743  1.00  0.00    -0.353 OA
HETATM   27  H1  UNL     1      23.321   8.432  48.459  1.00  0.00     0.214 HD
ENDBRANCH   1  26
TORSDOF 3
ENDMDL
MODEL 4
REMARK VINA RESULT:      -8.0      2.685      4.068
REMARK  3 active torsions:
REMARK  status: ('A' for Active; 'I' for Inactive)
REMARK    1  A    between atoms: O1_1  and  C1_2 
REMARK    2  A    between atoms: C3_6  and  N3_7 
REMARK    3  A    between atoms: N3_7  and  C4_8 
ROOT
HETATM    1  C1  UNL     1      23.435   4.379  52.807  1.00  0.00     0.397 C 
HETATM    2  N1  UNL     1      23.447   5.157  51.514  1.00  0.00    -0.225 NA
HETATM    3  C2  UNL     1      24.606   5.714  51.230  1.00  0.00     0.234 C 
HETATM    4  N2  UNL     1      25.295   6.503  50.286  1.00  0.00    -0.227 NA
HETATM    5  C3  UNL     1      25.776   5.794  49.271  1.00  0.00     0.134 C 
HETATM    6  C10 UNL     1      25.745   4.379  48.876  1.00  0.00     0.347 C 
HETATM    7  N4  UNL     1      25.449   3.415  49.862  1.00  0.00     0.094 N 
HETATM    8  C11 UNL     1      26.442   3.132  50.856  1.00  0.00     0.311 C 
HETATM    9  C12 UNL     1      25.873   2.073  51.767  1.00  0.00     0.003 A 
HETATM   10  C13 UNL     1      26.506   0.823  51.749  1.00  0.00     0.012 A 
HETATM   11  C14 UNL     1      26.092  -0.235  52.524  1.00  0.00     0.001 A 
HETATM   12  C15 UNL     1      25.015  -0.107  53.368  1.00  0.00     0.003 A 
HETATM   13  C16 UNL     1      24.411   1.108  53.377  1.00  0.00     0.037 A 
HETATM   14  C17 UNL     1      24.795   2.184  52.619  1.00  0.00     0.082 A 
HETATM   15  O2  UNL     1      24.149   3.280  52.706  1.00  0.00    -0.300 OA
HETATM   16  H11 UNL     1      25.249   2.502  49.377  1.00  0.00     0.316 HD
ENDROOT
BRANCH   5  17
HETATM   17  N3  UNL     1      26.450   6.670  48.372  1.00  0.00    -0.343 N 
HETATM   18  H4  UNL     1      25.890   7.101  47.572  1.00  0.00     0.167 HD
BRANCH  17  19
HETATM   19  C4  UNL     1      27.841   7.050  48.435  1.00  0.00     0.034 A 
HETATM   20  C5  UNL     1      28.298   8.270  48.828  1.00  0.00     0.029 A 
HETATM   21  C6  UNL     1      29.640   8.586  48.882  1.00  0.00     0.004 A 
HETATM   22  C7  UNL     1      30.585   7.661  48.534  1.00  0.00     0.019 A 
HETATM   23  C8  UNL     1      30.139   6.428  48.137  1.00  0.00     0.013 A 
HETATM   24 BR1  UNL     1      31.420   5.095  47.639  1.00  0.00    -0.051 Br
HETATM   25  C9  UNL     1      28.810   6.138  48.090  1.00  0.00     0.048 A 
ENDBRANCH  17  19
ENDBRANCH   5  17
BRANCH   1  26
HETATM   26  O1  UNL     1      23.842   5.325  53.760  1.00  0.00    -0.353 OA
HETATM   27  H1  UNL     1      23.132   5.531  54.417  1.00  0.00     0.214 HD
ENDBRANCH   1  26
TORSDOF 3
ENDMDL
MODEL 5
REMARK VINA RESULT:      -7.9      6.037      8.291
REMARK  3 active torsions:
REMARK  status: ('A' for Active; 'I' for Inactive)
REMARK    1  A    between atoms: O1_1  and  C1_2 
REMARK    2  A    between atoms: C3_6  and  N3_7 
REMARK    3  A    between atoms: N3_7  and  C4_8 
ROOT
HETATM    1  C1  UNL     1      27.073   9.237  50.055  1.00  0.00     0.397 C 
HETATM    2  N1  UNL     1      28.029   9.717  48.991  1.00  0.00    -0.225 NA
HETATM    3  C2  UNL     1      29.229   9.179  49.060  1.00  0.00     0.234 C 
HETATM    4  N2  UNL     1      30.505   9.149  48.460  1.00  0.00    -0.227 NA
HETATM    5  C3  UNL     1      30.569   8.320  47.424  1.00  0.00     0.134 C 
HETATM    6  C10 UNL     1      29.621   7.439  46.729  1.00  0.00     0.347 C 
HETATM    7  N4  UNL     1      28.444   7.056  47.404  1.00  0.00     0.094 N 
HETATM    8  C11 UNL     1      28.553   6.116  48.481  1.00  0.00     0.311 C 
HETATM    9  C12 UNL     1      27.160   5.883  49.012  1.00  0.00     0.003 A 
HETATM   10  C13 UNL     1      26.629   4.598  48.839  1.00  0.00     0.012 A 
HETATM   11  C14 UNL     1      25.372   4.245  49.270  1.00  0.00     0.001 A 
HETATM   12  C15 UNL     1      24.565   5.160  49.903  1.00  0.00     0.003 A 
HETATM   13  C16 UNL     1      25.090   6.400  50.065  1.00  0.00     0.037 A 
HETATM   14  C17 UNL     1      26.338   6.788  49.649  1.00  0.00     0.082 A 
HETATM   15  O2  UNL     1      26.728   7.985  49.852  1.00  0.00    -0.300 OA
HETATM   16  H11 UNL     1      27.789   6.625  46.702  1.00  0.00     0.316 HD
ENDROOT
BRANCH   5  17
HETATM   17  N3  UNL     1      31.887   8.355  46.883  1.00  0.00    -0.343 N 
HETATM   18  H4  UNL     1      32.065   8.971  46.030  1.00  0.00     0.167 HD
BRANCH  17  19
HETATM   19  C4  UNL     1      33.033   7.637  47.384  1.00  0.00     0.034 A 
HETATM   20  C5  UNL     1      34.120   8.211  47.966  1.00  0.00     0.029 A 
HETATM   21  C6  UNL     1      35.190   7.482  48.441  1.00  0.00     0.004 A 
HETATM   22  C7  UNL     1      35.199   6.117  48.341  1.00  0.00     0.019 A 
HETATM   23  C8  UNL     1      34.110   5.525  47.757  1.00  0.00     0.013 A 
HETATM   24 BR1  UNL     1      34.070   3.618  47.591  1.00  0.00    -0.051 Br
HETATM   25  C9  UNL     1      33.066   6.265  47.295  1.00  0.00     0.048 A 
ENDBRANCH  17  19
ENDBRANCH   5  17
BRANCH   1  26
HETATM   26  O1  UNL     1      27.743   9.532  51.252  1.00  0.00    -0.353 OA
HETATM   27  H1  UNL     1      27.236   9.246  52.051  1.00  0.00     0.214 HD
ENDBRANCH   1  26
TORSDOF 3
ENDMDL
MODEL 6
REMARK VINA RESULT:      -7.7      7.420      9.738
REMARK  3 active torsions:
REMARK  status: ('A' for Active; 'I' for Inactive)
REMARK    1  A    between atoms: O1_1  and  C1_2 
REMARK    2  A    between atoms: C3_6  and  N3_7 
REMARK    3  A    between atoms: N3_7  and  C4_8 
ROOT
HETATM    1  C1  UNL     1      29.556   5.426  48.065  1.00  0.00     0.397 C 
HETATM    2  N1  UNL     1      29.229   6.870  47.777  1.00  0.00    -0.225 NA
HETATM    3  C2  UNL     1      29.490   7.691  48.773  1.00  0.00     0.234 C 
HETATM    4  N2  UNL     1      29.451   9.040  49.184  1.00  0.00    -0.227 NA
HETATM    5  C3  UNL     1      30.513   9.732  48.787  1.00  0.00     0.134 C 
HETATM    6  C10 UNL     1      31.717   9.440  47.998  1.00  0.00     0.347 C 
HETATM    7  N4  UNL     1      32.105   8.093  47.842  1.00  0.00     0.094 N 
HETATM    8  C11 UNL     1      32.661   7.411  48.973  1.00  0.00     0.311 C 
HETATM    9  C12 UNL     1      32.990   6.006  48.529  1.00  0.00     0.003 A 
HETATM   10  C13 UNL     1      34.347   5.658  48.504  1.00  0.00     0.012 A 
HETATM   11  C14 UNL     1      34.791   4.415  48.118  1.00  0.00     0.001 A 
HETATM   12  C15 UNL     1      33.902   3.441  47.731  1.00  0.00     0.003 A 
HETATM   13  C16 UNL     1      32.592   3.791  47.761  1.00  0.00     0.037 A 
HETATM   14  C17 UNL     1      32.112   5.018  48.139  1.00  0.00     0.082 A 
HETATM   15  O2  UNL     1      30.856   5.237  48.125  1.00  0.00    -0.300 OA
HETATM   16  H11 UNL     1      32.833   8.048  47.083  1.00  0.00     0.316 HD
ENDROOT
BRANCH   5  17
HETATM   17  N3  UNL     1      30.387  11.076  49.243  1.00  0.00    -0.343 N 
HETATM   18  H4  UNL     1      30.895  11.354  50.140  1.00  0.00     0.167 HD
BRANCH  17  19
HETATM   19  C4  UNL     1      29.634  12.127  48.603  1.00  0.00     0.034 A 
HETATM   20  C5  UNL     1      28.523  12.717  49.121  1.00  0.00     0.029 A 
HETATM   21  C6  UNL     1      27.841  13.728  48.475  1.00  0.00     0.004 A 
HETATM   22  C7  UNL     1      28.268  14.187  47.259  1.00  0.00     0.019 A 
HETATM   23  C8  UNL     1      29.386  13.602  46.726  1.00  0.00     0.013 A 
HETATM   24 BR1  UNL     1      30.026  14.206  45.026  1.00  0.00    -0.051 Br
HETATM   25  C9  UNL     1      30.043  12.606  47.380  1.00  0.00     0.048 A 
ENDBRANCH  17  19
ENDBRANCH   5  17
BRANCH   1  26
HETATM   26  O1  UNL     1      28.812   5.147  49.221  1.00  0.00    -0.353 OA
HETATM   27  H1  UNL     1      27.897   5.520  49.182  1.00  0.00     0.214 HD
ENDBRANCH   1  26
TORSDOF 3
ENDMDL
MODEL 7
REMARK VINA RESULT:      -7.6      2.854      4.115
REMARK  3 active torsions:
REMARK  status: ('A' for Active; 'I' for Inactive)
REMARK    1  A    between atoms: O1_1  and  C1_2 
REMARK    2  A    between atoms: C3_6  and  N3_7 
REMARK    3  A    between atoms: N3_7  and  C4_8 
ROOT
HETATM    1  C1  UNL     1      20.437   2.900  51.495  1.00  0.00     0.397 C 
HETATM    2  N1  UNL     1      21.165   3.945  50.687  1.00  0.00    -0.225 NA
HETATM    3  C2  UNL     1      21.861   4.798  51.410  1.00  0.00     0.234 C 
HETATM    4  N2  UNL     1      22.710   5.922  51.349  1.00  0.00    -0.227 NA
HETATM    5  C3  UNL     1      23.980   5.600  51.129  1.00  0.00     0.134 C 
HETATM    6  C10 UNL     1      24.719   4.350  50.908  1.00  0.00     0.347 C 
HETATM    7  N4  UNL     1      24.121   3.138  51.310  1.00  0.00     0.094 N 
HETATM    8  C11 UNL     1      24.032   2.856  52.713  1.00  0.00     0.311 C 
HETATM    9  C12 UNL     1      23.363   1.511  52.856  1.00  0.00     0.003 A 
HETATM   10  C13 UNL     1      24.144   0.475  53.384  1.00  0.00     0.012 A 
HETATM   11  C14 UNL     1      23.667  -0.802  53.567  1.00  0.00     0.001 A 
HETATM   12  C15 UNL     1      22.373  -1.122  53.230  1.00  0.00     0.003 A 
HETATM   13  C16 UNL     1      21.628  -0.111  52.720  1.00  0.00     0.037 A 
HETATM   14  C17 UNL     1      22.069   1.173  52.524  1.00  0.00     0.082 A 
HETATM   15  O2  UNL     1      21.278   2.044  52.033  1.00  0.00    -0.300 OA
HETATM   16  H11 UNL     1      24.667   2.346  50.885  1.00  0.00     0.316 HD
ENDROOT
BRANCH   5  17
HETATM   17  N3  UNL     1      24.759   6.793  51.083  1.00  0.00    -0.343 N 
HETATM   18  H4  UNL     1      24.871   7.357  51.982  1.00  0.00     0.167 HD
BRANCH  17  19
HETATM   19  C4  UNL     1      25.434   7.326  49.924  1.00  0.00     0.034 A 
HETATM   20  C5  UNL     1      25.025   7.155  48.638  1.00  0.00     0.029 A 
HETATM   21  C6  UNL     1      25.698   7.693  47.560  1.00  0.00     0.004 A 
HETATM   22  C7  UNL     1      26.830   8.438  47.749  1.00  0.00     0.019 A 
HETATM   23  C8  UNL     1      27.252   8.617  49.040  1.00  0.00     0.013 A 
HETATM   24 BR1  UNL     1      28.832   9.651  49.363  1.00  0.00    -0.051 Br
HETATM   25  C9  UNL     1      26.574   8.077  50.088  1.00  0.00     0.048 A 
ENDBRANCH  17  19
ENDBRANCH   5  17
BRANCH   1  26
HETATM   26  O1  UNL     1      19.645   3.659  52.371  1.00  0.00    -0.353 OA
HETATM   27  H1  UNL     1      18.863   3.155  52.708  1.00  0.00     0.214 HD
ENDBRANCH   1  26
TORSDOF 3
ENDMDL
MODEL 8
REMARK VINA RESULT:      -7.6      3.711      7.976
REMARK  3 active torsions:
REMARK  status: ('A' for Active; 'I' for Inactive)
REMARK    1  A    between atoms: O1_1  and  C1_2 
REMARK    2  A    between atoms: C3_6  and  N3_7 
REMARK    3  A    between atoms: N3_7  and  C4_8 
ROOT
HETATM    1  C1  UNL     1      26.711   2.442  51.122  1.00  0.00     0.397 C 
HETATM    2  N1  UNL     1      25.388   1.732  51.266  1.00  0.00    -0.225 NA
HETATM    3  C2  UNL     1      24.522   2.354  52.040  1.00  0.00     0.234 C 
HETATM    4  N2  UNL     1      23.220   2.294  52.578  1.00  0.00    -0.227 NA
HETATM    5  C3  UNL     1      22.296   2.767  51.748  1.00  0.00     0.134 C 
HETATM    6  C10 UNL     1      22.297   3.319  50.387  1.00  0.00     0.347 C 
HETATM    7  N4  UNL     1      23.513   3.801  49.860  1.00  0.00     0.094 N 
HETATM    8  C11 UNL     1      24.037   5.031  50.376  1.00  0.00     0.311 C 
HETATM    9  C12 UNL     1      25.325   5.311  49.641  1.00  0.00     0.003 A 
HETATM   10  C13 UNL     1      25.340   6.438  48.808  1.00  0.00     0.012 A 
HETATM   11  C14 UNL     1      26.443   6.810  48.076  1.00  0.00     0.001 A 
HETATM   12  C15 UNL     1      27.604   6.075  48.133  1.00  0.00     0.003 A 
HETATM   13  C16 UNL     1      27.576   4.988  48.943  1.00  0.00     0.037 A 
HETATM   14  C17 UNL     1      26.496   4.586  49.686  1.00  0.00     0.082 A 
HETATM   15  O2  UNL     1      26.584   3.542  50.413  1.00  0.00    -0.300 OA
HETATM   16  H11 UNL     1      23.388   3.945  48.825  1.00  0.00     0.316 HD
ENDROOT
BRANCH   5  17
HETATM   17  N3  UNL     1      21.019   2.667  52.371  1.00  0.00    -0.343 N 
HETATM   18  H4  UNL     1      20.613   3.540  52.832  1.00  0.00     0.167 HD
BRANCH  17  19
HETATM   19  C4  UNL     1      20.194   1.485  52.440  1.00  0.00     0.034 A 
HETATM   20  C5  UNL     1      20.291   0.523  53.396  1.00  0.00     0.029 A 
HETATM   21  C6  UNL     1      19.472  -0.588  53.428  1.00  0.00     0.004 A 
HETATM   22  C7  UNL     1      18.507  -0.766  52.475  1.00  0.00     0.019 A 
HETATM   23  C8  UNL     1      18.399   0.196  51.506  1.00  0.00     0.013 A 
HETATM   24 BR1  UNL     1      17.065  -0.004  50.147  1.00  0.00    -0.051 Br
HETATM   25  C9  UNL     1      19.218   1.283  51.493  1.00  0.00     0.048 A 
ENDBRANCH  17  19
ENDBRANCH   5  17
BRANCH   1  26
HETATM   26  O1  UNL     1      27.153   2.580  52.447  1.00  0.00    -0.353 OA
HETATM   27  H1  UNL     1      28.131   2.711  52.508  1.00  0.00     0.214 HD
ENDBRANCH   1  26
TORSDOF 3
ENDMDL
MODEL 9
REMARK VINA RESULT:      -7.5      3.927      8.254
REMARK  3 active torsions:
REMARK  status: ('A' for Active; 'I' for Inactive)
REMARK    1  A    between atoms: O1_1  and  C1_2 
REMARK    2  A    between atoms: C3_6  and  N3_7 
REMARK    3  A    between atoms: N3_7  and  C4_8 
ROOT
HETATM    1  C1  UNL     1      22.511   6.406  49.073  1.00  0.00     0.397 C 
HETATM    2  N1  UNL     1      21.808   5.832  50.278  1.00  0.00    -0.225 NA
HETATM    3  C2  UNL     1      21.569   4.539  50.198  1.00  0.00     0.234 C 
HETATM    4  N2  UNL     1      21.010   3.436  50.876  1.00  0.00    -0.227 NA
HETATM    5  C3  UNL     1      21.853   2.878  51.738  1.00  0.00     0.134 C 
HETATM    6  C10 UNL     1      23.229   3.147  52.178  1.00  0.00     0.347 C 
HETATM    7  N4  UNL     1      24.053   3.942  51.356  1.00  0.00     0.094 N 
HETATM    8  C11 UNL     1      24.539   3.377  50.131  1.00  0.00     0.311 C 
HETATM    9  C12 UNL     1      25.388   4.429  49.461  1.00  0.00     0.003 A 
HETATM   10  C13 UNL     1      26.757   4.150  49.346  1.00  0.00     0.012 A 
HETATM   11  C14 UNL     1      27.649   5.018  48.762  1.00  0.00     0.001 A 
HETATM   12  C15 UNL     1      27.226   6.224  48.255  1.00  0.00     0.003 A 
HETATM   13  C16 UNL     1      25.900   6.481  48.373  1.00  0.00     0.037 A 
HETATM   14  C17 UNL     1      24.981   5.642  48.948  1.00  0.00     0.082 A 
HETATM   15  O2  UNL     1      23.756   5.990  49.007  1.00  0.00    -0.300 OA
HETATM   16  H11 UNL     1      24.903   4.217  51.911  1.00  0.00     0.316 HD
ENDROOT
BRANCH   5  17
HETATM   17  N3  UNL     1      21.207   1.778  52.373  1.00  0.00    -0.343 N 
HETATM   18  H4  UNL     1      20.157   1.656  52.223  1.00  0.00     0.167 HD
BRANCH  17  19
HETATM   19  C4  UNL     1      21.837   0.787  53.210  1.00  0.00     0.034 A 
HETATM   20  C5  UNL     1      21.225   0.124  54.228  1.00  0.00     0.029 A 
HETATM   21  C6  UNL     1      21.865  -0.826  54.997  1.00  0.00     0.004 A 
HETATM   22  C7  UNL     1      23.174  -1.145  54.758  1.00  0.00     0.019 A 
HETATM   23  C8  UNL     1      23.803  -0.484  53.735  1.00  0.00     0.013 A 
HETATM   24 BR1  UNL     1      25.635  -0.892  53.358  1.00  0.00    -0.051 Br
HETATM   25  C9  UNL     1      23.152   0.449  52.990  1.00  0.00     0.048 A 
ENDBRANCH  17  19
ENDBRANCH   5  17
BRANCH   1  26
HETATM   26  O1  UNL     1      21.663   6.065  48.008  1.00  0.00    -0.353 OA
HETATM   27  H1  UNL     1      21.155   5.234  48.179  1.00  0.00     0.214 HD
ENDBRANCH   1  26
TORSDOF 3
ENDMDL
