MODEL 1
REMARK VINA RESULT:     -10.7      0.000      0.000
REMARK  5 active torsions:
REMARK  status: ('A' for Active; 'I' for Inactive)
REMARK    1  A    between atoms: C6_7  and  C7_8 
REMARK    2  A    between atoms: C7_8  and  C8_9 
REMARK    3  A    between atoms: C8_9  and  N2_10 
REMARK    4  A    between atoms: C15_21  and  N5_22 
REMARK    5  A    between atoms: N5_22  and  C16_23 
ROOT
HETATM    1  N2  UNL     1      23.379   0.466  53.139  1.00  0.00    -0.314 N 
HETATM    2  C9  UNL     1      22.755  -0.425  54.073  1.00  0.00     0.248 C 
HETATM    3  O1  UNL     1      23.541  -1.045  54.869  1.00  0.00    -0.271 OA
HETATM    4  C10 UNL     1      21.265  -0.604  54.094  1.00  0.00     0.279 C 
HETATM    5  O2  UNL     1      20.789  -0.550  52.742  1.00  0.00    -0.340 OA
HETATM    6  C11 UNL     1      21.361   0.305  51.824  1.00  0.00     0.098 A 
HETATM    7  C12 UNL     1      20.623   0.645  50.709  1.00  0.00     0.071 A 
HETATM    8  C13 UNL     1      21.205   1.499  49.802  1.00  0.00     0.075 A 
HETATM    9  N3  UNL     1      20.471   1.827  48.735  1.00  0.00    -0.241 NA
HETATM   10  C14 UNL     1      20.928   2.651  47.803  1.00  0.00     0.235 A 
HETATM   11  N4  UNL     1      22.147   3.164  47.931  1.00  0.00    -0.224 NA
HETATM   12  C15 UNL     1      22.997   2.924  48.946  1.00  0.00     0.138 A 
HETATM   13  C23 UNL     1      22.464   2.062  49.883  1.00  0.00     0.041 A 
HETATM   14  C24 UNL     1      23.115   1.661  51.029  1.00  0.00     0.050 A 
HETATM   15  C25 UNL     1      22.628   0.825  51.983  1.00  0.00     0.071 A 
ENDROOT
BRANCH   1  16
HETATM   16  C8  UNL     1      24.717   0.974  53.370  1.00  0.00     0.135 C 
BRANCH  16  17
HETATM   17  C7  UNL     1      25.784   0.117  52.733  1.00  0.00     0.060 C 
BRANCH  17  18
HETATM   18  C6  UNL     1      26.846  -0.317  53.712  1.00  0.00     0.250 C 
HETATM   19  C2  UNL     1      27.624  -1.421  53.079  1.00  0.00    -0.057 C 
HETATM   20  C1  UNL     1      26.908  -2.264  52.344  1.00  0.00     0.016 C 
HETATM   21  C3  UNL     1      29.062  -1.807  53.081  1.00  0.00     0.037 C 
HETATM   22  C4  UNL     1      29.808  -0.604  53.658  1.00  0.00     0.034 C 
HETATM   23  C5  UNL     1      28.945   0.111  54.644  1.00  0.00     0.271 C 
HETATM   24  N1  UNL     1      27.775   0.717  54.037  1.00  0.00     0.092 N 
HETATM   25  H9  UNL     1      28.114   1.270  53.230  1.00  0.00     0.316 HD
ENDBRANCH  17  18
ENDBRANCH  16  17
ENDBRANCH   1  16
BRANCH  12  26
HETATM   26  N5  UNL     1      24.299   3.465  49.114  1.00  0.00    -0.357 N 
HETATM   27  H19 UNL     1      24.779   3.236  48.210  1.00  0.00     0.162 HD
BRANCH  26  28
HETATM   28  C16 UNL     1      25.278   4.155  49.804  1.00  0.00     0.174 A 
HETATM   29  C17 UNL     1      26.469   4.502  49.261  1.00  0.00    -0.141 A 
HETATM   30  C18 UNL     1      27.357   4.785  48.848  1.00  0.00     0.045 A 
HETATM   31  C19 UNL     1      28.447   5.162  48.331  1.00  0.00     0.023 A 
HETATM   32  C20 UNL     1      27.524   6.345  48.240  1.00  0.00     0.036 A 
HETATM   33  C21 UNL     1      25.993   6.654  48.670  1.00  0.00    -0.021 A 
HETATM   34  C22 UNL     1      24.955   5.841  49.323  1.00  0.00     0.006 A 
ENDBRANCH  26  28
ENDBRANCH  12  26
TORSDOF 5
ENDMDL
MODEL 2
REMARK VINA RESULT:     -10.6      2.462      6.221
REMARK  5 active torsions:
REMARK  status: ('A' for Active; 'I' for Inactive)
REMARK    1  A    between atoms: C6_7  and  C7_8 
REMARK    2  A    between atoms: C7_8  and  C8_9 
REMARK    3  A    between atoms: C8_9  and  N2_10 
REMARK    4  A    between atoms: C15_21  and  N5_22 
REMARK    5  A    between atoms: N5_22  and  C16_23 
ROOT
HETATM    1  N2  UNL     1      20.637   0.491  51.012  1.00  0.00    -0.314 N 
HETATM    2  C9  UNL     1      19.207   0.515  50.931  1.00  0.00     0.248 C 
HETATM    3  O1  UNL     1      18.706   1.295  50.050  1.00  0.00    -0.271 OA
HETATM    4  C10 UNL     1      18.366  -0.335  51.839  1.00  0.00     0.279 C 
HETATM    5  O2  UNL     1      19.001  -0.378  53.125  1.00  0.00    -0.340 OA
HETATM    6  C11 UNL     1      20.375  -0.414  53.234  1.00  0.00     0.098 A 
HETATM    7  C12 UNL     1      20.919  -0.890  54.409  1.00  0.00     0.071 A 
HETATM    8  C13 UNL     1      22.291  -0.921  54.505  1.00  0.00     0.075 A 
HETATM    9  N3  UNL     1      22.798  -1.395  55.646  1.00  0.00    -0.241 NA
HETATM   10  C14 UNL     1      24.106  -1.481  55.842  1.00  0.00     0.235 A 
HETATM   11  N4  UNL     1      24.934  -1.083  54.881  1.00  0.00    -0.224 NA
HETATM   12  C15 UNL     1      24.569  -0.585  53.687  1.00  0.00     0.138 A 
HETATM   13  C23 UNL     1      23.198  -0.522  53.543  1.00  0.00     0.041 A 
HETATM   14  C24 UNL     1      22.555  -0.068  52.412  1.00  0.00     0.050 A 
HETATM   15  C25 UNL     1      21.212   0.002  52.220  1.00  0.00     0.071 A 
ENDROOT
BRANCH   1  16
HETATM   16  C8  UNL     1      21.456   0.945  49.905  1.00  0.00     0.135 C 
BRANCH  16  17
HETATM   17  C7  UNL     1      21.312   2.426  49.644  1.00  0.00     0.060 C 
BRANCH  17  18
HETATM   18  C6  UNL     1      22.518   3.215  50.086  1.00  0.00     0.250 C 
HETATM   19  C2  UNL     1      22.201   3.827  51.409  1.00  0.00    -0.057 C 
HETATM   20  C1  UNL     1      20.950   4.250  51.547  1.00  0.00     0.016 C 
HETATM   21  C3  UNL     1      22.987   4.080  52.648  1.00  0.00     0.037 C 
HETATM   22  C4  UNL     1      24.270   3.264  52.492  1.00  0.00     0.034 C 
HETATM   23  C5  UNL     1      24.646   3.168  51.050  1.00  0.00     0.271 C 
HETATM   24  N1  UNL     1      23.687   2.414  50.266  1.00  0.00     0.092 N 
HETATM   25  H9  UNL     1      23.532   1.521  50.766  1.00  0.00     0.316 HD
ENDBRANCH  17  18
ENDBRANCH  16  17
ENDBRANCH   1  16
BRANCH  12  26
HETATM   26  N5  UNL     1      25.429  -0.162  52.640  1.00  0.00    -0.357 N 
HETATM   27  H19 UNL     1      24.783  -0.045  51.822  1.00  0.00     0.162 HD
BRANCH  26  28
HETATM   28  C16 UNL     1      26.651   0.209  52.109  1.00  0.00     0.174 A 
HETATM   29  C17 UNL     1      27.496   1.075  52.717  1.00  0.00    -0.141 A 
HETATM   30  C18 UNL     1      28.144   1.708  53.184  1.00  0.00     0.045 A 
HETATM   31  C19 UNL     1      28.962   2.470  53.772  1.00  0.00     0.023 A 
HETATM   32  C20 UNL     1      29.406   1.071  54.097  1.00  0.00     0.036 A 
HETATM   33  C21 UNL     1      28.891  -0.420  53.730  1.00  0.00    -0.021 A 
HETATM   34  C22 UNL     1      27.768  -0.919  52.921  1.00  0.00     0.006 A 
ENDBRANCH  26  28
ENDBRANCH  12  26
TORSDOF 5
ENDMDL
MODEL 3
REMARK VINA RESULT:     -10.4      2.049      6.383
REMARK  5 active torsions:
REMARK  status: ('A' for Active; 'I' for Inactive)
REMARK    1  A    between atoms: C6_7  and  C7_8 
REMARK    2  A    between atoms: C7_8  and  C8_9 
REMARK    3  A    between atoms: C8_9  and  N2_10 
REMARK    4  A    between atoms: C15_21  and  N5_22 
REMARK    5  A    between atoms: N5_22  and  C16_23 
ROOT
HETATM    1  N2  UNL     1      22.924   0.195  53.085  1.00  0.00    -0.314 N 
HETATM    2  C9  UNL     1      22.140  -0.707  53.875  1.00  0.00     0.248 C 
HETATM    3  O1  UNL     1      20.870  -0.580  53.780  1.00  0.00    -0.271 OA
HETATM    4  C10 UNL     1      22.793  -1.732  54.758  1.00  0.00     0.279 C 
HETATM    5  O2  UNL     1      23.979  -1.148  55.316  1.00  0.00    -0.340 OA
HETATM    6  C11 UNL     1      24.760  -0.287  54.576  1.00  0.00     0.098 A 
HETATM    7  C12 UNL     1      26.071  -0.107  54.963  1.00  0.00     0.071 A 
HETATM    8  C13 UNL     1      26.840   0.755  54.216  1.00  0.00     0.075 A 
HETATM    9  N3  UNL     1      28.110   0.907  54.600  1.00  0.00    -0.241 NA
HETATM   10  C14 UNL     1      28.943   1.704  53.946  1.00  0.00     0.235 A 
HETATM   11  N4  UNL     1      28.505   2.370  52.883  1.00  0.00    -0.224 NA
HETATM   12  C15 UNL     1      27.257   2.317  52.384  1.00  0.00     0.138 A 
HETATM   13  C23 UNL     1      26.439   1.472  53.105  1.00  0.00     0.041 A 
HETATM   14  C24 UNL     1      25.119   1.221  52.802  1.00  0.00     0.050 A 
HETATM   15  C25 UNL     1      24.280   0.390  53.475  1.00  0.00     0.071 A 
ENDROOT
BRANCH   1  16
HETATM   16  C8  UNL     1      22.352   0.874  51.938  1.00  0.00     0.135 C 
BRANCH  16  17
HETATM   17  C7  UNL     1      22.036   2.323  52.217  1.00  0.00     0.060 C 
BRANCH  17  18
HETATM   18  C6  UNL     1      20.555   2.591  52.305  1.00  0.00     0.250 C 
HETATM   19  C2  UNL     1      20.271   3.835  51.534  1.00  0.00    -0.057 C 
HETATM   20  C1  UNL     1      21.199   4.780  51.629  1.00  0.00     0.016 C 
HETATM   21  C3  UNL     1      19.153   4.276  50.654  1.00  0.00     0.037 C 
HETATM   22  C4  UNL     1      18.344   3.013  50.357  1.00  0.00     0.034 C 
HETATM   23  C5  UNL     1      18.419   2.071  51.514  1.00  0.00     0.271 C 
HETATM   24  N1  UNL     1      19.756   1.554  51.735  1.00  0.00     0.092 N 
HETATM   25  H9  UNL     1      20.089   1.196  50.823  1.00  0.00     0.316 HD
ENDBRANCH  17  18
ENDBRANCH  16  17
ENDBRANCH   1  16
BRANCH  12  26
HETATM   26  N5  UNL     1      26.764   3.008  51.246  1.00  0.00    -0.357 N 
HETATM   27  H19 UNL     1      26.597   3.981  51.601  1.00  0.00     0.162 HD
BRANCH  26  28
HETATM   28  C16 UNL     1      26.408   3.114  49.914  1.00  0.00     0.174 A 
HETATM   29  C17 UNL     1      25.124   3.181  49.488  1.00  0.00    -0.141 A 
HETATM   30  C18 UNL     1      24.160   3.257  49.167  1.00  0.00     0.045 A 
HETATM   31  C19 UNL     1      22.967   3.378  48.767  1.00  0.00     0.023 A 
HETATM   32  C20 UNL     1      23.514   4.776  48.843  1.00  0.00     0.036 A 
HETATM   33  C21 UNL     1      24.930   5.443  49.259  1.00  0.00    -0.021 A 
HETATM   34  C22 UNL     1      26.206   4.874  49.719  1.00  0.00     0.006 A 
ENDBRANCH  26  28
ENDBRANCH  12  26
TORSDOF 5
ENDMDL
MODEL 4
REMARK VINA RESULT:     -10.3      2.365      5.297
REMARK  5 active torsions:
REMARK  status: ('A' for Active; 'I' for Inactive)
REMARK    1  A    between atoms: C6_7  and  C7_8 
REMARK    2  A    between atoms: C7_8  and  C8_9 
REMARK    3  A    between atoms: C8_9  and  N2_10 
REMARK    4  A    between atoms: C15_21  and  N5_22 
REMARK    5  A    between atoms: N5_22  and  C16_23 
ROOT
HETATM    1  N2  UNL     1      24.345  -0.017  53.274  1.00  0.00    -0.314 N 
HETATM    2  C9  UNL     1      25.184  -0.563  54.299  1.00  0.00     0.248 C 
HETATM    3  O1  UNL     1      26.431  -0.643  54.023  1.00  0.00    -0.271 OA
HETATM    4  C10 UNL     1      24.610  -1.010  55.613  1.00  0.00     0.279 C 
HETATM    5  O2  UNL     1      23.326  -1.598  55.361  1.00  0.00    -0.340 OA
HETATM    6  C11 UNL     1      22.492  -1.087  54.389  1.00  0.00     0.098 A 
HETATM    7  C12 UNL     1      21.145  -1.375  54.475  1.00  0.00     0.071 A 
HETATM    8  C13 UNL     1      20.324  -0.859  53.500  1.00  0.00     0.075 A 
HETATM    9  N3  UNL     1      19.022  -1.139  53.607  1.00  0.00    -0.241 NA
HETATM   10  C14 UNL     1      18.139  -0.684  52.729  1.00  0.00     0.235 A 
HETATM   11  N4  UNL     1      18.559   0.068  51.716  1.00  0.00    -0.224 NA
HETATM   12  C15 UNL     1      19.833   0.428  51.482  1.00  0.00     0.138 A 
HETATM   13  C23 UNL     1      20.703  -0.074  52.428  1.00  0.00     0.041 A 
HETATM   14  C24 UNL     1      22.061   0.156  52.436  1.00  0.00     0.050 A 
HETATM   15  C25 UNL     1      22.953  -0.307  53.350  1.00  0.00     0.071 A 
ENDROOT
BRANCH   1  16
HETATM   16  C8  UNL     1      24.900   0.796  52.209  1.00  0.00     0.135 C 
BRANCH  16  17
HETATM   17  C7  UNL     1      24.841   2.274  52.513  1.00  0.00     0.060 C 
BRANCH  17  18
HETATM   18  C6  UNL     1      24.718   3.120  51.272  1.00  0.00     0.250 C 
HETATM   19  C2  UNL     1      23.652   4.134  51.517  1.00  0.00    -0.057 C 
HETATM   20  C1  UNL     1      22.613   3.699  52.219  1.00  0.00     0.016 C 
HETATM   21  C3  UNL     1      23.479   5.566  51.144  1.00  0.00     0.037 C 
HETATM   22  C4  UNL     1      24.850   6.029  50.653  1.00  0.00     0.034 C 
HETATM   23  C5  UNL     1      25.579   4.892  50.015  1.00  0.00     0.271 C 
HETATM   24  N1  UNL     1      25.911   3.837  50.954  1.00  0.00     0.092 N 
HETATM   25  H9  UNL     1      26.376   4.293  51.758  1.00  0.00     0.316 HD
ENDBRANCH  17  18
ENDBRANCH  16  17
ENDBRANCH   1  16
BRANCH  12  26
HETATM   26  N5  UNL     1      20.308   1.237  50.416  1.00  0.00    -0.357 N 
HETATM   27  H19 UNL     1      21.171   1.683  50.810  1.00  0.00     0.162 HD
BRANCH  26  28
HETATM   28  C16 UNL     1      20.275   1.741  49.129  1.00  0.00     0.174 A 
HETATM   29  C17 UNL     1      20.664   2.999  48.810  1.00  0.00    -0.141 A 
HETATM   30  C18 UNL     1      20.978   3.936  48.564  1.00  0.00     0.045 A 
HETATM   31  C19 UNL     1      21.393   5.088  48.250  1.00  0.00     0.023 A 
HETATM   32  C20 UNL     1      22.538   4.154  47.971  1.00  0.00     0.036 A 
HETATM   33  C21 UNL     1      22.790   2.560  48.108  1.00  0.00    -0.021 A 
HETATM   34  C22 UNL     1      21.942   1.450  48.571  1.00  0.00     0.006 A 
ENDBRANCH  26  28
ENDBRANCH  12  26
TORSDOF 5
ENDMDL
MODEL 5
REMARK VINA RESULT:     -10.3      2.512      6.670
REMARK  5 active torsions:
REMARK  status: ('A' for Active; 'I' for Inactive)
REMARK    1  A    between atoms: C6_7  and  C7_8 
REMARK    2  A    between atoms: C7_8  and  C8_9 
REMARK    3  A    between atoms: C8_9  and  N2_10 
REMARK    4  A    between atoms: C15_21  and  N5_22 
REMARK    5  A    between atoms: N5_22  and  C16_23 
ROOT
HETATM    1  N2  UNL     1      22.578   4.017  51.631  1.00  0.00    -0.314 N 
HETATM    2  C9  UNL     1      21.585   4.998  51.306  1.00  0.00     0.248 C 
HETATM    3  O1  UNL     1      22.008   6.193  51.141  1.00  0.00    -0.271 OA
HETATM    4  C10 UNL     1      20.138   4.619  51.174  1.00  0.00     0.279 C 
HETATM    5  O2  UNL     1      19.847   3.617  52.159  1.00  0.00    -0.340 OA
HETATM    6  C11 UNL     1      20.778   2.653  52.484  1.00  0.00     0.098 A 
HETATM    7  C12 UNL     1      20.328   1.491  53.073  1.00  0.00     0.071 A 
HETATM    8  C13 UNL     1      21.267   0.537  53.392  1.00  0.00     0.075 A 
HETATM    9  N3  UNL     1      20.809  -0.587  53.951  1.00  0.00    -0.241 NA
HETATM   10  C14 UNL     1      21.624  -1.576  54.288  1.00  0.00     0.235 A 
HETATM   11  N4  UNL     1      22.929  -1.448  54.067  1.00  0.00    -0.224 NA
HETATM   12  C15 UNL     1      23.529  -0.378  53.516  1.00  0.00     0.138 A 
HETATM   13  C23 UNL     1      22.630   0.616  53.185  1.00  0.00     0.041 A 
HETATM   14  C24 UNL     1      22.975   1.811  52.593  1.00  0.00     0.050 A 
HETATM   15  C25 UNL     1      22.126   2.812  52.241  1.00  0.00     0.071 A 
ENDROOT
BRANCH   1  16
HETATM   16  C8  UNL     1      23.980   4.252  51.346  1.00  0.00     0.135 C 
BRANCH  16  17
HETATM   17  C7  UNL     1      24.321   4.051  49.889  1.00  0.00     0.060 C 
BRANCH  17  18
HETATM   18  C6  UNL     1      25.105   5.201  49.310  1.00  0.00     0.250 C 
HETATM   19  C2  UNL     1      24.156   6.054  48.537  1.00  0.00    -0.057 C 
HETATM   20  C1  UNL     1      23.217   5.392  47.872  1.00  0.00     0.016 C 
HETATM   21  C3  UNL     1      24.016   7.523  48.333  1.00  0.00     0.037 C 
HETATM   22  C4  UNL     1      24.911   8.170  49.390  1.00  0.00     0.034 C 
HETATM   23  C5  UNL     1      26.082   7.291  49.680  1.00  0.00     0.271 C 
HETATM   24  N1  UNL     1      25.705   6.035  50.301  1.00  0.00     0.092 N 
HETATM   25  H9  UNL     1      25.094   6.273  51.101  1.00  0.00     0.316 HD
ENDBRANCH  17  18
ENDBRANCH  16  17
ENDBRANCH   1  16
BRANCH  12  26
HETATM   26  N5  UNL     1      24.916  -0.217  53.258  1.00  0.00    -0.357 N 
HETATM   27  H19 UNL     1      25.372  -0.581  54.130  1.00  0.00     0.162 HD
BRANCH  26  28
HETATM   28  C16 UNL     1      26.002   0.129  52.477  1.00  0.00     0.174 A 
HETATM   29  C17 UNL     1      26.957   1.005  52.873  1.00  0.00    -0.141 A 
HETATM   30  C18 UNL     1      27.690   1.644  53.178  1.00  0.00     0.045 A 
HETATM   31  C19 UNL     1      28.615   2.415  53.563  1.00  0.00     0.023 A 
HETATM   32  C20 UNL     1      29.111   1.021  53.828  1.00  0.00     0.036 A 
HETATM   33  C21 UNL     1      28.528  -0.475  53.617  1.00  0.00    -0.021 A 
HETATM   34  C22 UNL     1      27.260  -0.985  53.071  1.00  0.00     0.006 A 
ENDBRANCH  26  28
ENDBRANCH  12  26
TORSDOF 5
ENDMDL
MODEL 6
REMARK VINA RESULT:     -10.0      2.001      6.297
REMARK  5 active torsions:
REMARK  status: ('A' for Active; 'I' for Inactive)
REMARK    1  A    between atoms: C6_7  and  C7_8 
REMARK    2  A    between atoms: C7_8  and  C8_9 
REMARK    3  A    between atoms: C8_9  and  N2_10 
REMARK    4  A    between atoms: C15_21  and  N5_22 
REMARK    5  A    between atoms: N5_22  and  C16_23 
ROOT
HETATM    1  N2  UNL     1      22.481   0.501  52.873  1.00  0.00    -0.314 N 
HETATM    2  C9  UNL     1      21.610  -0.400  53.568  1.00  0.00     0.248 C 
HETATM    3  O1  UNL     1      20.363  -0.114  53.534  1.00  0.00    -0.271 OA
HETATM    4  C10 UNL     1      22.152  -1.601  54.288  1.00  0.00     0.279 C 
HETATM    5  O2  UNL     1      23.410  -1.238  54.875  1.00  0.00    -0.340 OA
HETATM    6  C11 UNL     1      24.275  -0.384  54.225  1.00  0.00     0.098 A 
HETATM    7  C12 UNL     1      25.605  -0.410  54.586  1.00  0.00     0.071 A 
HETATM    8  C13 UNL     1      26.457   0.447  53.930  1.00  0.00     0.075 A 
HETATM    9  N3  UNL     1      27.744   0.398  54.286  1.00  0.00    -0.241 NA
HETATM   10  C14 UNL     1      28.654   1.171  53.711  1.00  0.00     0.235 A 
HETATM   11  N4  UNL     1      28.278   2.018  52.758  1.00  0.00    -0.224 NA
HETATM   12  C15 UNL     1      27.024   2.177  52.300  1.00  0.00     0.138 A 
HETATM   13  C23 UNL     1      26.124   1.345  52.935  1.00  0.00     0.041 A 
HETATM   14  C24 UNL     1      24.778   1.292  52.648  1.00  0.00     0.050 A 
HETATM   15  C25 UNL     1      23.858   0.484  53.237  1.00  0.00     0.071 A 
ENDROOT
BRANCH   1  16
HETATM   16  C8  UNL     1      21.973   1.386  51.843  1.00  0.00     0.135 C 
BRANCH  16  17
HETATM   17  C7  UNL     1      21.840   2.814  52.317  1.00  0.00     0.060 C 
BRANCH  17  18
HETATM   18  C6  UNL     1      20.422   3.320  52.252  1.00  0.00     0.250 C 
HETATM   19  C2  UNL     1      20.353   4.344  51.170  1.00  0.00    -0.057 C 
HETATM   20  C1  UNL     1      21.421   5.126  51.067  1.00  0.00     0.016 C 
HETATM   21  C3  UNL     1      19.331   4.703  50.147  1.00  0.00     0.037 C 
HETATM   22  C4  UNL     1      18.332   3.547  50.145  1.00  0.00     0.034 C 
HETATM   23  C5  UNL     1      18.238   2.945  51.509  1.00  0.00     0.271 C 
HETATM   24  N1  UNL     1      19.471   2.305  51.928  1.00  0.00     0.092 N 
HETATM   25  H9  UNL     1      19.752   1.672  51.160  1.00  0.00     0.316 HD
ENDBRANCH  17  18
ENDBRANCH  16  17
ENDBRANCH   1  16
BRANCH  12  26
HETATM   26  N5  UNL     1      26.595   3.064  51.277  1.00  0.00    -0.357 N 
HETATM   27  H19 UNL     1      27.100   3.957  51.499  1.00  0.00     0.162 HD
BRANCH  26  28
HETATM   28  C16 UNL     1      25.899   3.393  50.129  1.00  0.00     0.174 A 
HETATM   29  C17 UNL     1      25.349   4.612  49.914  1.00  0.00    -0.141 A 
HETATM   30  C18 UNL     1      24.954   5.535  49.739  1.00  0.00     0.045 A 
HETATM   31  C19 UNL     1      24.488   6.687  49.507  1.00  0.00     0.023 A 
HETATM   32  C20 UNL     1      25.822   6.642  48.816  1.00  0.00     0.036 A 
HETATM   33  C21 UNL     1      27.001   5.545  48.646  1.00  0.00    -0.021 A 
HETATM   34  C22 UNL     1      27.162   4.166  49.136  1.00  0.00     0.006 A 
ENDBRANCH  26  28
ENDBRANCH  12  26
TORSDOF 5
ENDMDL
MODEL 7
REMARK VINA RESULT:     -10.0      1.487      5.937
REMARK  5 active torsions:
REMARK  status: ('A' for Active; 'I' for Inactive)
REMARK    1  A    between atoms: C6_7  and  C7_8 
REMARK    2  A    between atoms: C7_8  and  C8_9 
REMARK    3  A    between atoms: C8_9  and  N2_10 
REMARK    4  A    between atoms: C15_21  and  N5_22 
REMARK    5  A    between atoms: N5_22  and  C16_23 
ROOT
HETATM    1  N2  UNL     1      22.491   0.435  53.026  1.00  0.00    -0.314 N 
HETATM    2  C9  UNL     1      21.673  -0.451  53.801  1.00  0.00     0.248 C 
HETATM    3  O1  UNL     1      20.419  -0.200  53.804  1.00  0.00    -0.271 OA
HETATM    4  C10 UNL     1      22.278  -1.599  54.556  1.00  0.00     0.279 C 
HETATM    5  O2  UNL     1      23.547  -1.175  55.072  1.00  0.00    -0.340 OA
HETATM    6  C11 UNL     1      24.361  -0.332  54.345  1.00  0.00     0.098 A 
HETATM    7  C12 UNL     1      25.705  -0.306  54.653  1.00  0.00     0.071 A 
HETATM    8  C13 UNL     1      26.506   0.539  53.920  1.00  0.00     0.075 A 
HETATM    9  N3  UNL     1      27.806   0.541  54.224  1.00  0.00    -0.241 NA
HETATM   10  C14 UNL     1      28.671   1.308  53.574  1.00  0.00     0.235 A 
HETATM   11  N4  UNL     1      28.233   2.095  52.597  1.00  0.00    -0.224 NA
HETATM   12  C15 UNL     1      26.958   2.198  52.184  1.00  0.00     0.138 A 
HETATM   13  C23 UNL     1      26.108   1.376  52.896  1.00  0.00     0.041 A 
HETATM   14  C24 UNL     1      24.753   1.273  52.668  1.00  0.00     0.050 A 
HETATM   15  C25 UNL     1      23.881   0.473  53.334  1.00  0.00     0.071 A 
ENDROOT
BRANCH   1  16
HETATM   16  C8  UNL     1      21.917   1.254  51.976  1.00  0.00     0.135 C 
BRANCH  16  17
HETATM   17  C7  UNL     1      21.187   0.440  50.936  1.00  0.00     0.060 C 
BRANCH  17  18
HETATM   18  C6  UNL     1      21.335   1.002  49.545  1.00  0.00     0.250 C 
HETATM   19  C2  UNL     1      20.106   1.790  49.239  1.00  0.00    -0.057 C 
HETATM   20  C1  UNL     1      18.977   1.275  49.710  1.00  0.00     0.016 C 
HETATM   21  C3  UNL     1      19.846   3.059  48.505  1.00  0.00     0.037 C 
HETATM   22  C4  UNL     1      21.216   3.710  48.315  1.00  0.00     0.034 C 
HETATM   23  C5  UNL     1      22.271   2.661  48.191  1.00  0.00     0.271 C 
HETATM   24  N1  UNL     1      22.445   1.890  49.407  1.00  0.00     0.092 N 
HETATM   25  H9  UNL     1      22.558   2.572  50.176  1.00  0.00     0.316 HD
ENDBRANCH  17  18
ENDBRANCH  16  17
ENDBRANCH   1  16
BRANCH  12  26
HETATM   26  N5  UNL     1      26.464   3.021  51.137  1.00  0.00    -0.357 N 
HETATM   27  H19 UNL     1      26.551   3.992  51.525  1.00  0.00     0.162 HD
BRANCH  26  28
HETATM   28  C16 UNL     1      25.957   3.251  49.872  1.00  0.00     0.174 A 
HETATM   29  C17 UNL     1      25.238   4.352  49.545  1.00  0.00    -0.141 A 
HETATM   30  C18 UNL     1      24.718   5.190  49.290  1.00  0.00     0.045 A 
HETATM   31  C19 UNL     1      24.096   6.241  48.964  1.00  0.00     0.023 A 
HETATM   32  C20 UNL     1      25.524   6.469  48.552  1.00  0.00     0.036 A 
HETATM   33  C21 UNL     1      26.899   5.618  48.626  1.00  0.00    -0.021 A 
HETATM   34  C22 UNL     1      27.219   4.279  49.145  1.00  0.00     0.006 A 
ENDBRANCH  26  28
ENDBRANCH  12  26
TORSDOF 5
ENDMDL
MODEL 8
REMARK VINA RESULT:      -9.7      2.611      6.705
REMARK  5 active torsions:
REMARK  status: ('A' for Active; 'I' for Inactive)
REMARK    1  A    between atoms: C6_7  and  C7_8 
REMARK    2  A    between atoms: C7_8  and  C8_9 
REMARK    3  A    between atoms: C8_9  and  N2_10 
REMARK    4  A    between atoms: C15_21  and  N5_22 
REMARK    5  A    between atoms: N5_22  and  C16_23 
ROOT
HETATM    1  N2  UNL     1      25.141   2.412  51.409  1.00  0.00    -0.314 N 
HETATM    2  C9  UNL     1      26.568   2.469  51.532  1.00  0.00     0.248 C 
HETATM    3  O1  UNL     1      27.194   3.017  50.561  1.00  0.00    -0.271 OA
HETATM    4  C10 UNL     1      27.263   1.910  52.740  1.00  0.00     0.279 C 
HETATM    5  O2  UNL     1      26.564   0.725  53.149  1.00  0.00    -0.340 OA
HETATM    6  C11 UNL     1      25.191   0.646  53.053  1.00  0.00     0.098 A 
HETATM    7  C12 UNL     1      24.540  -0.284  53.837  1.00  0.00     0.071 A 
HETATM    8  C13 UNL     1      23.171  -0.354  53.732  1.00  0.00     0.075 A 
HETATM    9  N3  UNL     1      22.558  -1.252  54.508  1.00  0.00    -0.241 NA
HETATM   10  C14 UNL     1      21.240  -1.396  54.497  1.00  0.00     0.235 A 
HETATM   11  N4  UNL     1      20.510  -0.630  53.693  1.00  0.00    -0.224 NA
HETATM   12  C15 UNL     1      20.987   0.311  52.859  1.00  0.00     0.138 A 
HETATM   13  C23 UNL     1      22.362   0.415  52.918  1.00  0.00     0.041 A 
HETATM   14  C24 UNL     1      23.106   1.310  52.181  1.00  0.00     0.050 A 
HETATM   15  C25 UNL     1      24.457   1.455  52.212  1.00  0.00     0.071 A 
ENDROOT
BRANCH   1  16
HETATM   16  C8  UNL     1      24.434   3.295  50.502  1.00  0.00     0.135 C 
BRANCH  16  17
HETATM   17  C7  UNL     1      24.360   4.715  51.011  1.00  0.00     0.060 C 
BRANCH  17  18
HETATM   18  C6  UNL     1      24.846   5.723  50.001  1.00  0.00     0.250 C 
HETATM   19  C2  UNL     1      24.213   7.033  50.325  1.00  0.00    -0.057 C 
HETATM   20  C1  UNL     1      22.957   6.961  50.750  1.00  0.00     0.016 C 
HETATM   21  C3  UNL     1      24.678   8.448  50.280  1.00  0.00     0.037 C 
HETATM   22  C4  UNL     1      26.196   8.373  50.112  1.00  0.00     0.034 C 
HETATM   23  C5  UNL     1      26.568   7.155  49.333  1.00  0.00     0.271 C 
HETATM   24  N1  UNL     1      26.260   5.922  50.033  1.00  0.00     0.092 N 
HETATM   25  H9  UNL     1      26.668   6.010  50.980  1.00  0.00     0.316 HD
ENDBRANCH  17  18
ENDBRANCH  16  17
ENDBRANCH   1  16
BRANCH  12  26
HETATM   26  N5  UNL     1      20.231   1.150  51.999  1.00  0.00    -0.357 N 
HETATM   27  H19 UNL     1      19.862   1.893  52.640  1.00  0.00     0.162 HD
BRANCH  26  28
HETATM   28  C16 UNL     1      19.736   1.545  50.770  1.00  0.00     0.174 A 
HETATM   29  C17 UNL     1      20.257   2.567  50.049  1.00  0.00    -0.141 A 
HETATM   30  C18 UNL     1      20.661   3.319  49.493  1.00  0.00     0.045 A 
HETATM   31  C19 UNL     1      21.178   4.233  48.789  1.00  0.00     0.023 A 
HETATM   32  C20 UNL     1      21.750   2.945  48.266  1.00  0.00     0.036 A 
HETATM   33  C21 UNL     1      21.589   1.375  48.630  1.00  0.00    -0.021 A 
HETATM   34  C22 UNL     1      20.791   0.660  49.639  1.00  0.00     0.006 A 
ENDBRANCH  26  28
ENDBRANCH  12  26
TORSDOF 5
ENDMDL
MODEL 9
REMARK VINA RESULT:      -9.7      2.571      6.508
REMARK  5 active torsions:
REMARK  status: ('A' for Active; 'I' for Inactive)
REMARK    1  A    between atoms: C6_7  and  C7_8 
REMARK    2  A    between atoms: C7_8  and  C8_9 
REMARK    3  A    between atoms: C8_9  and  N2_10 
REMARK    4  A    between atoms: C15_21  and  N5_22 
REMARK    5  A    between atoms: N5_22  and  C16_23 
ROOT
HETATM    1  N2  UNL     1      21.423   3.304  51.654  1.00  0.00    -0.314 N 
HETATM    2  C9  UNL     1      20.216   2.760  52.205  1.00  0.00     0.248 C 
HETATM    3  O1  UNL     1      19.209   3.547  52.238  1.00  0.00    -0.271 OA
HETATM    4  C10 UNL     1      20.164   1.346  52.707  1.00  0.00     0.279 C 
HETATM    5  O2  UNL     1      21.423   1.045  53.326  1.00  0.00    -0.340 OA
HETATM    6  C11 UNL     1      22.601   1.544  52.812  1.00  0.00     0.098 A 
HETATM    7  C12 UNL     1      23.775   0.901  53.143  1.00  0.00     0.071 A 
HETATM    8  C13 UNL     1      24.943   1.408  52.624  1.00  0.00     0.075 A 
HETATM    9  N3  UNL     1      26.068   0.764  52.946  1.00  0.00    -0.241 NA
HETATM   10  C14 UNL     1      27.249   1.160  52.493  1.00  0.00     0.235 A 
HETATM   11  N4  UNL     1      27.317   2.224  51.699  1.00  0.00    -0.224 NA
HETATM   12  C15 UNL     1      26.273   2.968  51.294  1.00  0.00     0.138 A 
HETATM   13  C23 UNL     1      25.074   2.507  51.797  1.00  0.00     0.041 A 
HETATM   14  C24 UNL     1      23.847   3.074  51.527  1.00  0.00     0.050 A 
HETATM   15  C25 UNL     1      22.642   2.649  51.989  1.00  0.00     0.071 A 
ENDROOT
BRANCH   1  16
HETATM   16  C8  UNL     1      21.391   4.471  50.794  1.00  0.00     0.135 C 
BRANCH  16  17
HETATM   17  C7  UNL     1      21.972   5.698  51.456  1.00  0.00     0.060 C 
BRANCH  17  18
HETATM   18  C6  UNL     1      21.545   6.979  50.785  1.00  0.00     0.250 C 
HETATM   19  C2  UNL     1      22.777   7.678  50.316  1.00  0.00    -0.057 C 
HETATM   20  C1  UNL     1      23.821   7.583  51.129  1.00  0.00     0.016 C 
HETATM   21  C3  UNL     1      23.115   8.483  49.109  1.00  0.00     0.037 C 
HETATM   22  C4  UNL     1      21.974   8.236  48.121  1.00  0.00     0.034 C 
HETATM   23  C5  UNL     1      20.698   7.995  48.858  1.00  0.00     0.271 C 
HETATM   24  N1  UNL     1      20.720   6.772  49.638  1.00  0.00     0.092 N 
HETATM   25  H9  UNL     1      21.037   6.020  49.001  1.00  0.00     0.316 HD
ENDBRANCH  17  18
ENDBRANCH  16  17
ENDBRANCH   1  16
BRANCH  12  26
HETATM   26  N5  UNL     1      26.314   4.102  50.440  1.00  0.00    -0.357 N 
HETATM   27  H19 UNL     1      26.671   4.867  51.063  1.00  0.00     0.162 HD
BRANCH  26  28
HETATM   28  C16 UNL     1      26.171   4.749  49.227  1.00  0.00     0.174 A 
HETATM   29  C17 UNL     1      26.411   6.071  49.054  1.00  0.00    -0.141 A 
HETATM   30  C18 UNL     1      26.614   7.060  48.915  1.00  0.00     0.045 A 
HETATM   31  C19 UNL     1      26.892   8.279  48.733  1.00  0.00     0.023 A 
HETATM   32  C20 UNL     1      28.114   7.516  48.305  1.00  0.00     0.036 A 
HETATM   33  C21 UNL     1      28.538   5.955  48.236  1.00  0.00    -0.021 A 
HETATM   34  C22 UNL     1      27.833   4.711  48.585  1.00  0.00     0.006 A 
ENDBRANCH  26  28
ENDBRANCH  12  26
TORSDOF 5
ENDMDL
