MODEL 1
REMARK VINA RESULT:      -8.9      0.000      0.000
REMARK  2 active torsions:
REMARK  status: ('A' for Active; 'I' for Inactive)
REMARK    1  A    between atoms: S1_2  and  C2_4 
REMARK    2  A    between atoms: C5_7  and  C6_8 
ROOT
HETATM    1  C6  UNL     1      22.811  -0.385  53.982  1.00  0.00    -0.015 A 
HETATM    2  C7  UNL     1      22.466  -1.228  54.930  1.00  0.00     0.150 A 
HETATM    3  O2  UNL     1      21.145  -1.593  54.860  1.00  0.00    -0.326 OA
HETATM    4  C8  UNL     1      20.535  -0.940  53.765  1.00  0.00     0.061 A 
HETATM    5  C9  UNL     1      19.248  -1.137  53.519  1.00  0.00     0.033 C 
HETATM    6  C10 UNL     1      18.246  -0.720  52.564  1.00  0.00     0.005 C 
HETATM    7  C11 UNL     1      18.223   0.056  51.477  1.00  0.00     0.037 C 
HETATM    8  C12 UNL     1      19.110   0.868  50.669  1.00  0.00     0.075 A 
HETATM    9  C13 UNL     1      19.778   1.710  49.850  1.00  0.00     0.040 A 
HETATM   10  C14 UNL     1      21.128   1.498  49.945  1.00  0.00     0.035 A 
HETATM   11  C15 UNL     1      21.210   0.501  50.853  1.00  0.00     0.054 A 
HETATM   12  O3  UNL     1      20.031   0.177  51.235  1.00  0.00    -0.315 OA
HETATM   13  C16 UNL     1      21.937  -0.490  51.714  1.00  0.00     0.081 C 
HETATM   14  C17 UNL     1      21.609  -0.161  53.180  1.00  0.00     0.085 A 
ENDROOT
BRANCH   1  15
HETATM   15  C5  UNL     1      24.174   0.082  53.942  1.00  0.00    -0.027 A 
HETATM   16  C4  UNL     1      25.206  -0.578  54.526  1.00  0.00     0.013 A 
HETATM   17  C3  UNL     1      26.515  -0.152  54.530  1.00  0.00     0.022 A 
HETATM   18  C2  UNL     1      26.836   1.026  53.903  1.00  0.00     0.031 A 
HETATM   19  C19 UNL     1      25.829   1.740  53.292  1.00  0.00     0.022 A 
HETATM   20  C18 UNL     1      24.537   1.258  53.325  1.00  0.00     0.013 A 
BRANCH  18  21
HETATM   21  S1  UNL     1      28.515   1.591  53.896  1.00  0.00     0.045 S 
HETATM   22  C1  UNL     1      29.588   0.182  53.589  1.00  0.00     0.133 C 
HETATM   23  O1  UNL     1      28.693   2.552  52.715  1.00  0.00    -0.253 OA
ENDBRANCH  18  21
ENDBRANCH   1  15
TORSDOF 2
ENDMDL
MODEL 2
REMARK VINA RESULT:      -8.8      4.237      6.256
REMARK  2 active torsions:
REMARK  status: ('A' for Active; 'I' for Inactive)
REMARK    1  A    between atoms: S1_2  and  C2_4 
REMARK    2  A    between atoms: C5_7  and  C6_8 
ROOT
HETATM    1  C6  UNL     1      24.242   3.063  50.124  1.00  0.00    -0.015 A 
HETATM    2  C7  UNL     1      23.044   3.021  49.587  1.00  0.00     0.150 A 
HETATM    3  O2  UNL     1      22.226   2.097  50.187  1.00  0.00    -0.326 OA
HETATM    4  C8  UNL     1      22.932   1.452  51.229  1.00  0.00     0.061 A 
HETATM    5  C9  UNL     1      22.334   0.505  51.937  1.00  0.00     0.033 C 
HETATM    6  C10 UNL     1      22.629  -0.378  53.041  1.00  0.00     0.005 C 
HETATM    7  C11 UNL     1      23.675  -0.589  53.847  1.00  0.00     0.037 C 
HETATM    8  C12 UNL     1      25.018  -0.098  54.080  1.00  0.00     0.075 A 
HETATM    9  C13 UNL     1      26.299   0.196  54.391  1.00  0.00     0.040 A 
HETATM   10  C14 UNL     1      26.640   1.427  53.899  1.00  0.00     0.035 A 
HETATM   11  C15 UNL     1      25.503   1.831  53.291  1.00  0.00     0.054 A 
HETATM   12  O3  UNL     1      24.607   0.925  53.424  1.00  0.00    -0.315 OA
HETATM   13  C16 UNL     1      24.654   2.786  52.505  1.00  0.00     0.081 C 
HETATM   14  C17 UNL     1      24.239   2.078  51.205  1.00  0.00     0.085 A 
ENDROOT
BRANCH   1  15
HETATM   15  C5  UNL     1      25.204   3.991  49.583  1.00  0.00    -0.027 A 
HETATM   16  C4  UNL     1      26.514   3.688  49.403  1.00  0.00     0.013 A 
HETATM   17  C3  UNL     1      27.466   4.553  48.912  1.00  0.00     0.022 A 
HETATM   18  C2  UNL     1      27.094   5.829  48.570  1.00  0.00     0.031 A 
HETATM   19  C19 UNL     1      25.776   6.195  48.731  1.00  0.00     0.022 A 
HETATM   20  C18 UNL     1      24.873   5.279  49.228  1.00  0.00     0.013 A 
BRANCH  18  21
HETATM   21  S1  UNL     1      28.304   6.957  47.936  1.00  0.00     0.045 S 
HETATM   22  C1  UNL     1      28.267   8.451  48.936  1.00  0.00     0.133 C 
HETATM   23  O1  UNL     1      29.691   6.330  48.123  1.00  0.00    -0.253 OA
ENDBRANCH  18  21
ENDBRANCH   1  15
TORSDOF 2
ENDMDL
MODEL 3
REMARK VINA RESULT:      -8.6      1.459      3.245
REMARK  2 active torsions:
REMARK  status: ('A' for Active; 'I' for Inactive)
REMARK    1  A    between atoms: S1_2  and  C2_4 
REMARK    2  A    between atoms: C5_7  and  C6_8 
ROOT
HETATM    1  C6  UNL     1      23.576   1.466  51.491  1.00  0.00    -0.015 A 
HETATM    2  C7  UNL     1      23.687   2.284  50.468  1.00  0.00     0.150 A 
HETATM    3  O2  UNL     1      22.505   2.452  49.792  1.00  0.00    -0.326 OA
HETATM    4  C8  UNL     1      21.496   1.678  50.411  1.00  0.00     0.061 A 
HETATM    5  C9  UNL     1      20.271   1.678  49.909  1.00  0.00     0.033 C 
HETATM    6  C10 UNL     1      18.981   1.087  50.186  1.00  0.00     0.005 C 
HETATM    7  C11 UNL     1      18.480   0.276  51.123  1.00  0.00     0.037 C 
HETATM    8  C12 UNL     1      18.889  -0.428  52.321  1.00  0.00     0.075 A 
HETATM    9  C13 UNL     1      19.115  -1.193  53.411  1.00  0.00     0.040 A 
HETATM   10  C14 UNL     1      20.253  -0.785  54.054  1.00  0.00     0.035 A 
HETATM   11  C15 UNL     1      20.675   0.246  53.289  1.00  0.00     0.054 A 
HETATM   12  O3  UNL     1      19.861   0.409  52.312  1.00  0.00    -0.315 OA
HETATM   13  C16 UNL     1      21.605   1.361  52.913  1.00  0.00     0.081 C 
HETATM   14  C17 UNL     1      22.176   1.042  51.522  1.00  0.00     0.085 A 
ENDROOT
BRANCH   1  15
HETATM   15  C5  UNL     1      24.747   1.200  52.287  1.00  0.00    -0.027 A 
HETATM   16  C4  UNL     1      25.681   2.141  52.580  1.00  0.00     0.013 A 
HETATM   17  C3  UNL     1      26.822   1.920  53.315  1.00  0.00     0.022 A 
HETATM   18  C2  UNL     1      27.067   0.662  53.806  1.00  0.00     0.031 A 
HETATM   19  C19 UNL     1      26.155  -0.336  53.541  1.00  0.00     0.022 A 
HETATM   20  C18 UNL     1      25.030  -0.048  52.797  1.00  0.00     0.013 A 
BRANCH  18  21
HETATM   21  S1  UNL     1      28.531   0.356  54.756  1.00  0.00     0.045 S 
HETATM   22  C1  UNL     1      29.667  -0.613  53.755  1.00  0.00     0.133 C 
HETATM   23  O1  UNL     1      29.216   1.701  55.030  1.00  0.00    -0.253 OA
ENDBRANCH  18  21
ENDBRANCH   1  15
TORSDOF 2
ENDMDL
MODEL 4
REMARK VINA RESULT:      -8.6      2.798      7.661
REMARK  2 active torsions:
REMARK  status: ('A' for Active; 'I' for Inactive)
REMARK    1  A    between atoms: S1_2  and  C2_4 
REMARK    2  A    between atoms: C5_7  and  C6_8 
ROOT
HETATM    1  C6  UNL     1      24.496   1.532  53.143  1.00  0.00    -0.015 A 
HETATM    2  C7  UNL     1      24.673   2.812  53.382  1.00  0.00     0.150 A 
HETATM    3  O2  UNL     1      25.981   3.125  53.657  1.00  0.00    -0.326 OA
HETATM    4  C8  UNL     1      26.766   1.950  53.599  1.00  0.00     0.061 A 
HETATM    5  C9  UNL     1      28.065   2.018  53.849  1.00  0.00     0.033 C 
HETATM    6  C10 UNL     1      29.211   1.139  53.898  1.00  0.00     0.005 C 
HETATM    7  C11 UNL     1      29.432  -0.160  53.678  1.00  0.00     0.037 C 
HETATM    8  C12 UNL     1      28.722  -1.361  53.285  1.00  0.00     0.075 A 
HETATM    9  C13 UNL     1      28.207  -2.575  52.995  1.00  0.00     0.040 A 
HETATM   10  C14 UNL     1      26.999  -2.444  52.364  1.00  0.00     0.035 A 
HETATM   11  C15 UNL     1      26.838  -1.103  52.303  1.00  0.00     0.054 A 
HETATM   12  O3  UNL     1      27.850  -0.530  52.842  1.00  0.00    -0.315 OA
HETATM   13  C16 UNL     1      26.108   0.158  51.947  1.00  0.00     0.081 C 
HETATM   14  C17 UNL     1      25.816   0.911  53.255  1.00  0.00     0.085 A 
ENDROOT
BRANCH   1  15
HETATM   15  C5  UNL     1      23.165   1.068  52.842  1.00  0.00    -0.027 A 
HETATM   16  C4  UNL     1      22.494   1.406  51.712  1.00  0.00     0.013 A 
HETATM   17  C3  UNL     1      21.216   1.003  51.401  1.00  0.00     0.022 A 
HETATM   18  C2  UNL     1      20.538   0.197  52.280  1.00  0.00     0.031 A 
HETATM   19  C19 UNL     1      21.168  -0.179  53.446  1.00  0.00     0.022 A 
HETATM   20  C18 UNL     1      22.451   0.260  53.698  1.00  0.00     0.013 A 
BRANCH  18  21
HETATM   21  S1  UNL     1      18.891  -0.333  51.899  1.00  0.00     0.045 S 
HETATM   22  C1  UNL     1      18.248  -1.251  53.305  1.00  0.00     0.133 C 
HETATM   23  O1  UNL     1      18.010   0.913  51.739  1.00  0.00    -0.253 OA
ENDBRANCH  18  21
ENDBRANCH   1  15
TORSDOF 2
ENDMDL
MODEL 5
REMARK VINA RESULT:      -8.5      3.038      7.082
REMARK  2 active torsions:
REMARK  status: ('A' for Active; 'I' for Inactive)
REMARK    1  A    between atoms: S1_2  and  C2_4 
REMARK    2  A    between atoms: C5_7  and  C6_8 
ROOT
HETATM    1  C6  UNL     1      22.718  -0.275  53.423  1.00  0.00    -0.015 A 
HETATM    2  C7  UNL     1      22.933  -1.024  54.482  1.00  0.00     0.150 A 
HETATM    3  O2  UNL     1      24.246  -1.014  54.880  1.00  0.00    -0.326 OA
HETATM    4  C8  UNL     1      24.993  -0.183  54.013  1.00  0.00     0.061 A 
HETATM    5  C9  UNL     1      26.296  -0.040  54.205  1.00  0.00     0.033 C 
HETATM    6  C10 UNL     1      27.411   0.669  53.620  1.00  0.00     0.005 C 
HETATM    7  C11 UNL     1      27.576   1.528  52.609  1.00  0.00     0.037 C 
HETATM    8  C12 UNL     1      26.805   2.209  51.588  1.00  0.00     0.075 A 
HETATM    9  C13 UNL     1      26.253   2.869  50.547  1.00  0.00     0.040 A 
HETATM   10  C14 UNL     1      24.898   2.977  50.713  1.00  0.00     0.035 A 
HETATM   11  C15 UNL     1      24.692   2.351  51.893  1.00  0.00     0.054 A 
HETATM   12  O3  UNL     1      25.812   1.931  52.352  1.00  0.00    -0.315 OA
HETATM   13  C16 UNL     1      23.851   1.840  53.025  1.00  0.00     0.081 C 
HETATM   14  C17 UNL     1      24.010   0.312  53.070  1.00  0.00     0.085 A 
ENDROOT
BRANCH   1  15
HETATM   15  C5  UNL     1      21.377  -0.199  52.899  1.00  0.00    -0.027 A 
HETATM   16  C4  UNL     1      20.285  -0.635  53.576  1.00  0.00     0.013 A 
HETATM   17  C3  UNL     1      18.994  -0.601  53.099  1.00  0.00     0.022 A 
HETATM   18  C2  UNL     1      18.758  -0.094  51.846  1.00  0.00     0.031 A 
HETATM   19  C19 UNL     1      19.830   0.364  51.111  1.00  0.00     0.022 A 
HETATM   20  C18 UNL     1      21.098   0.301  51.647  1.00  0.00     0.013 A 
BRANCH  18  21
HETATM   21  S1  UNL     1      17.104  -0.041  51.215  1.00  0.00     0.045 S 
HETATM   22  C1  UNL     1      16.134  -1.303  52.052  1.00  0.00     0.133 C 
HETATM   23  O1  UNL     1      16.490   1.314  51.590  1.00  0.00    -0.253 OA
ENDBRANCH  18  21
ENDBRANCH   1  15
TORSDOF 2
ENDMDL
MODEL 6
REMARK VINA RESULT:      -8.0      4.551      6.312
REMARK  2 active torsions:
REMARK  status: ('A' for Active; 'I' for Inactive)
REMARK    1  A    between atoms: S1_2  and  C2_4 
REMARK    2  A    between atoms: C5_7  and  C6_8 
ROOT
HETATM    1  C6  UNL     1      23.245   4.145  51.531  1.00  0.00    -0.015 A 
HETATM    2  C7  UNL     1      21.956   4.381  51.639  1.00  0.00     0.150 A 
HETATM    3  O2  UNL     1      21.265   3.318  52.163  1.00  0.00    -0.326 OA
HETATM    4  C8  UNL     1      22.165   2.262  52.438  1.00  0.00     0.061 A 
HETATM    5  C9  UNL     1      21.706   1.124  52.937  1.00  0.00     0.033 C 
HETATM    6  C10 UNL     1      22.214  -0.159  53.365  1.00  0.00     0.005 C 
HETATM    7  C11 UNL     1      23.418  -0.733  53.451  1.00  0.00     0.037 C 
HETATM    8  C12 UNL     1      24.814  -0.438  53.197  1.00  0.00     0.075 A 
HETATM    9  C13 UNL     1      26.141  -0.352  52.960  1.00  0.00     0.040 A 
HETATM   10  C14 UNL     1      26.525   0.958  52.858  1.00  0.00     0.035 A 
HETATM   11  C15 UNL     1      25.364   1.624  53.045  1.00  0.00     0.054 A 
HETATM   12  O3  UNL     1      24.417   0.781  53.235  1.00  0.00    -0.315 OA
HETATM   13  C16 UNL     1      24.511   2.853  53.157  1.00  0.00     0.081 C 
HETATM   14  C17 UNL     1      23.455   2.791  52.042  1.00  0.00     0.085 A 
ENDROOT
BRANCH   1  15
HETATM   15  C5  UNL     1      24.089   5.182  50.991  1.00  0.00    -0.027 A 
HETATM   16  C4  UNL     1      25.099   4.942  50.116  1.00  0.00     0.013 A 
HETATM   17  C3  UNL     1      25.939   5.900  49.598  1.00  0.00     0.022 A 
HETATM   18  C2  UNL     1      25.771   7.209  49.972  1.00  0.00     0.031 A 
HETATM   19  C19 UNL     1      24.761   7.514  50.858  1.00  0.00     0.022 A 
HETATM   20  C18 UNL     1      23.953   6.506  51.341  1.00  0.00     0.013 A 
BRANCH  18  21
HETATM   21  S1  UNL     1      26.842   8.457  49.315  1.00  0.00     0.045 S 
HETATM   22  C1  UNL     1      26.094   9.120  47.820  1.00  0.00     0.133 C 
HETATM   23  O1  UNL     1      26.913   9.610  50.325  1.00  0.00    -0.253 OA
ENDBRANCH  18  21
ENDBRANCH   1  15
TORSDOF 2
ENDMDL
MODEL 7
REMARK VINA RESULT:      -7.9      3.639      5.530
REMARK  2 active torsions:
REMARK  status: ('A' for Active; 'I' for Inactive)
REMARK    1  A    between atoms: S1_2  and  C2_4 
REMARK    2  A    between atoms: C5_7  and  C6_8 
ROOT
HETATM    1  C6  UNL     1      25.535   1.969  52.138  1.00  0.00    -0.015 A 
HETATM    2  C7  UNL     1      26.712   1.423  52.348  1.00  0.00     0.150 A 
HETATM    3  O2  UNL     1      26.658   0.365  53.220  1.00  0.00    -0.326 OA
HETATM    4  C8  UNL     1      25.323   0.173  53.643  1.00  0.00     0.061 A 
HETATM    5  C9  UNL     1      25.042  -0.792  54.505  1.00  0.00     0.033 C 
HETATM    6  C10 UNL     1      23.891  -1.346  55.182  1.00  0.00     0.005 C 
HETATM    7  C11 UNL     1      22.576  -1.105  55.190  1.00  0.00     0.037 C 
HETATM    8  C12 UNL     1      21.601  -0.228  54.576  1.00  0.00     0.075 A 
HETATM    9  C13 UNL     1      20.577   0.543  54.149  1.00  0.00     0.040 A 
HETATM   10  C14 UNL     1      20.915   1.188  52.990  1.00  0.00     0.035 A 
HETATM   11  C15 UNL     1      22.177   0.758  52.766  1.00  0.00     0.054 A 
HETATM   12  O3  UNL     1      22.521  -0.048  53.700  1.00  0.00    -0.315 OA
HETATM   13  C16 UNL     1      23.470   0.691  52.008  1.00  0.00     0.081 C 
HETATM   14  C17 UNL     1      24.582   1.201  52.939  1.00  0.00     0.085 A 
ENDROOT
BRANCH   1  15
HETATM   15  C5  UNL     1      25.450   3.095  51.242  1.00  0.00    -0.027 A 
HETATM   16  C4  UNL     1      24.458   4.019  51.296  1.00  0.00     0.013 A 
HETATM   17  C3  UNL     1      24.330   5.093  50.444  1.00  0.00     0.022 A 
HETATM   18  C2  UNL     1      25.262   5.273  49.453  1.00  0.00     0.031 A 
HETATM   19  C19 UNL     1      26.294   4.366  49.349  1.00  0.00     0.022 A 
HETATM   20  C18 UNL     1      26.364   3.311  50.235  1.00  0.00     0.013 A 
BRANCH  18  21
HETATM   21  S1  UNL     1      25.117   6.648  48.347  1.00  0.00     0.045 S 
HETATM   22  C1  UNL     1      24.452   8.047  49.262  1.00  0.00     0.133 C 
HETATM   23  O1  UNL     1      26.525   7.047  47.887  1.00  0.00    -0.253 OA
ENDBRANCH  18  21
ENDBRANCH   1  15
TORSDOF 2
ENDMDL
MODEL 8
REMARK VINA RESULT:      -7.9      3.709      6.971
REMARK  2 active torsions:
REMARK  status: ('A' for Active; 'I' for Inactive)
REMARK    1  A    between atoms: S1_2  and  C2_4 
REMARK    2  A    between atoms: C5_7  and  C6_8 
ROOT
HETATM    1  C6  UNL     1      23.304   0.905  52.182  1.00  0.00    -0.015 A 
HETATM    2  C7  UNL     1      24.303   0.332  52.815  1.00  0.00     0.150 A 
HETATM    3  O2  UNL     1      25.521   0.868  52.479  1.00  0.00    -0.326 OA
HETATM    4  C8  UNL     1      25.334   1.900  51.531  1.00  0.00     0.061 A 
HETATM    5  C9  UNL     1      26.386   2.548  51.053  1.00  0.00     0.033 C 
HETATM    6  C10 UNL     1      26.676   3.621  50.129  1.00  0.00     0.005 C 
HETATM    7  C11 UNL     1      25.956   4.446  49.363  1.00  0.00     0.037 C 
HETATM    8  C12 UNL     1      24.576   4.740  49.032  1.00  0.00     0.075 A 
HETATM    9  C13 UNL     1      23.360   5.100  48.568  1.00  0.00     0.040 A 
HETATM   10  C14 UNL     1      22.377   4.672  49.420  1.00  0.00     0.035 A 
HETATM   11  C15 UNL     1      23.077   4.050  50.395  1.00  0.00     0.054 A 
HETATM   12  O3  UNL     1      24.328   4.117  50.126  1.00  0.00    -0.315 OA
HETATM   13  C16 UNL     1      23.227   3.283  51.675  1.00  0.00     0.081 C 
HETATM   14  C17 UNL     1      23.898   1.942  51.338  1.00  0.00     0.085 A 
ENDROOT
BRANCH   1  15
HETATM   15  C5  UNL     1      21.967   0.433  52.441  1.00  0.00    -0.027 A 
HETATM   16  C4  UNL     1      21.607  -0.198  53.588  1.00  0.00     0.013 A 
HETATM   17  C3  UNL     1      20.349  -0.683  53.862  1.00  0.00     0.022 A 
HETATM   18  C2  UNL     1      19.357  -0.533  52.925  1.00  0.00     0.031 A 
HETATM   19  C19 UNL     1      19.663   0.101  51.741  1.00  0.00     0.022 A 
HETATM   20  C18 UNL     1      20.944   0.563  51.528  1.00  0.00     0.013 A 
BRANCH  18  21
HETATM   21  S1  UNL     1      17.731  -1.149  53.259  1.00  0.00     0.045 S 
HETATM   22  C1  UNL     1      16.708  -0.873  51.807  1.00  0.00     0.133 C 
HETATM   23  O1  UNL     1      17.823  -2.667  53.456  1.00  0.00    -0.253 OA
ENDBRANCH  18  21
ENDBRANCH   1  15
TORSDOF 2
ENDMDL
MODEL 9
REMARK VINA RESULT:      -7.8      3.115      7.605
REMARK  2 active torsions:
REMARK  status: ('A' for Active; 'I' for Inactive)
REMARK    1  A    between atoms: S1_2  and  C2_4 
REMARK    2  A    between atoms: C5_7  and  C6_8 
ROOT
HETATM    1  C6  UNL     1      22.299   1.126  51.653  1.00  0.00    -0.015 A 
HETATM    2  C7  UNL     1      22.308   1.822  50.538  1.00  0.00     0.150 A 
HETATM    3  O2  UNL     1      23.532   2.380  50.271  1.00  0.00    -0.326 OA
HETATM    4  C8  UNL     1      24.441   2.032  51.298  1.00  0.00     0.061 A 
HETATM    5  C9  UNL     1      25.686   2.481  51.250  1.00  0.00     0.033 C 
HETATM    6  C10 UNL     1      26.906   2.389  52.019  1.00  0.00     0.005 C 
HETATM    7  C11 UNL     1      27.290   1.764  53.136  1.00  0.00     0.037 C 
HETATM    8  C12 UNL     1      26.764   0.876  54.152  1.00  0.00     0.075 A 
HETATM    9  C13 UNL     1      26.420   0.106  55.208  1.00  0.00     0.040 A 
HETATM   10  C14 UNL     1      25.288  -0.612  54.927  1.00  0.00     0.035 A 
HETATM   11  C15 UNL     1      24.993  -0.224  53.667  1.00  0.00     0.054 A 
HETATM   12  O3  UNL     1      25.866   0.626  53.270  1.00  0.00    -0.315 OA
HETATM   13  C16 UNL     1      24.179  -0.220  52.407  1.00  0.00     0.081 C 
HETATM   14  C17 UNL     1      23.655   1.209  52.196  1.00  0.00     0.085 A 
ENDROOT
BRANCH   1  15
HETATM   15  C5  UNL     1      21.070   0.487  52.053  1.00  0.00    -0.027 A 
HETATM   16  C4  UNL     1      20.941  -0.232  53.197  1.00  0.00     0.013 A 
HETATM   17  C3  UNL     1      19.793  -0.875  53.601  1.00  0.00     0.022 A 
HETATM   18  C2  UNL     1      18.674  -0.804  52.809  1.00  0.00     0.031 A 
HETATM   19  C19 UNL     1      18.745  -0.087  51.635  1.00  0.00     0.022 A 
HETATM   20  C18 UNL     1      19.927   0.534  51.288  1.00  0.00     0.013 A 
BRANCH  18  21
HETATM   21  S1  UNL     1      17.187  -1.624  53.311  1.00  0.00     0.045 S 
HETATM   22  C1  UNL     1      15.944  -1.382  52.034  1.00  0.00     0.133 C 
HETATM   23  O1  UNL     1      17.468  -3.130  53.379  1.00  0.00    -0.253 OA
ENDBRANCH  18  21
ENDBRANCH   1  15
TORSDOF 2
ENDMDL
