MODEL 1
REMARK VINA RESULT:      -9.0      0.000      0.000
REMARK  4 active torsions:
REMARK  status: ('A' for Active; 'I' for Inactive)
REMARK    1  A    between atoms: C5_5  and  C6_6 
REMARK    2  A    between atoms: N2_8  and  C7_9 
REMARK    3  A    between atoms: C8_11  and  O1_12 
REMARK    4  A    between atoms: C10_15  and  C11_16 
ROOT
HETATM    1  C6  UNL     1      24.112   0.023  52.742  1.00  0.00     0.069 C 
HETATM    2  N1  UNL     1      24.420   1.014  51.979  1.00  0.00    -0.173 NA
HETATM    3  N2  UNL     1      25.792   1.048  51.696  1.00  0.00    -0.236 N 
HETATM    4  C10 UNL     1      26.408  -0.156  52.143  1.00  0.00     0.151 C 
HETATM    5  C17 UNL     1      25.324  -0.749  53.016  1.00  0.00     0.094 C 
ENDROOT
BRANCH   1   6
HETATM    6  C5  UNL     1      22.742  -0.249  53.198  1.00  0.00     0.009 A 
HETATM    7  C4  UNL     1      22.474  -0.773  54.536  1.00  0.00     0.016 A 
HETATM    8  C3  UNL     1      21.161  -0.963  54.731  1.00  0.00     0.013 A 
HETATM    9  C2  UNL     1      20.542  -0.552  53.480  1.00  0.00    -0.027 A 
HETATM   10  C1  UNL     1      19.241  -0.607  53.297  1.00  0.00     0.025 C 
HETATM   11  C18 UNL     1      21.599  -0.118  52.574  1.00  0.00     0.032 A 
HETATM   12 BR1  UNL     1      21.372   0.513  50.815  1.00  0.00    -0.049 Br
ENDBRANCH   1   6
BRANCH   3  13
HETATM   13  C7  UNL     1      26.154   2.321  51.017  1.00  0.00     0.192 A 
HETATM   14  N3  UNL     1      26.807   3.093  50.516  1.00  0.00    -0.198 NA
HETATM   15  C8  UNL     1      26.446   4.262  50.008  1.00  0.00     0.171 A 
HETATM   16  C9  UNL     1      25.079   4.609  50.091  1.00  0.00     0.111 A 
HETATM   17  S1  UNL     1      24.399   3.071  50.975  1.00  0.00    -0.058 SA
BRANCH  15  18
HETATM   18  O1  UNL     1      27.421   5.098  49.419  1.00  0.00    -0.344 OA
HETATM   19  H5  UNL     1      27.205   5.764  48.688  1.00  0.00     0.219 HD
ENDBRANCH  15  18
ENDBRANCH   3  13
BRANCH   4  20
HETATM   20  C11 UNL     1      27.678   0.006  52.861  1.00  0.00    -0.033 A 
HETATM   21  C12 UNL     1      28.525  -1.100  52.999  1.00  0.00     0.009 A 
HETATM   22  C13 UNL     1      29.748  -1.127  53.653  1.00  0.00     0.001 A 
HETATM   23  C14 UNL     1      30.153   0.074  54.218  1.00  0.00     0.000 A 
HETATM   24  C15 UNL     1      29.355   1.192  54.108  1.00  0.00     0.001 A 
HETATM   25  C16 UNL     1      28.145   1.162  53.447  1.00  0.00     0.009 A 
ENDBRANCH   4  20
TORSDOF 4
ENDMDL
MODEL 2
REMARK VINA RESULT:      -9.0      2.746      5.658
REMARK  4 active torsions:
REMARK  status: ('A' for Active; 'I' for Inactive)
REMARK    1  A    between atoms: C5_5  and  C6_6 
REMARK    2  A    between atoms: N2_8  and  C7_9 
REMARK    3  A    between atoms: C8_11  and  O1_12 
REMARK    4  A    between atoms: C10_15  and  C11_16 
ROOT
HETATM    1  C6  UNL     1      25.877   2.587  51.605  1.00  0.00     0.069 C 
HETATM    2  N1  UNL     1      24.882   2.003  52.180  1.00  0.00    -0.173 NA
HETATM    3  N2  UNL     1      25.304   0.996  53.058  1.00  0.00    -0.236 N 
HETATM    4  C10 UNL     1      26.714   1.069  53.235  1.00  0.00     0.151 C 
HETATM    5  C17 UNL     1      27.117   2.001  52.113  1.00  0.00     0.094 C 
ENDROOT
BRANCH   1   6
HETATM    6  C5  UNL     1      25.721   3.677  50.634  1.00  0.00     0.009 A 
HETATM    7  C4  UNL     1      26.647   3.838  49.514  1.00  0.00     0.016 A 
HETATM    8  C3  UNL     1      26.328   4.906  48.767  1.00  0.00     0.013 A 
HETATM    9  C2  UNL     1      25.154   5.468  49.417  1.00  0.00    -0.027 A 
HETATM   10  C1  UNL     1      24.557   6.546  48.959  1.00  0.00     0.025 C 
HETATM   11  C18 UNL     1      24.838   4.641  50.575  1.00  0.00     0.032 A 
HETATM   12 BR1  UNL     1      23.418   4.908  51.783  1.00  0.00    -0.049 Br
ENDBRANCH   1   6
BRANCH   3  13
HETATM   13  C7  UNL     1      24.144   0.189  53.523  1.00  0.00     0.192 A 
HETATM   14  N3  UNL     1      23.587  -0.640  54.048  1.00  0.00    -0.198 NA
HETATM   15  C8  UNL     1      22.278  -0.832  54.110  1.00  0.00     0.171 A 
HETATM   16  C9  UNL     1      21.454   0.104  53.445  1.00  0.00     0.111 A 
HETATM   17  S1  UNL     1      22.778   1.265  52.735  1.00  0.00    -0.058 SA
BRANCH  15  18
HETATM   18  O1  UNL     1      21.768  -1.942  54.821  1.00  0.00    -0.344 OA
HETATM   19  H5  UNL     1      21.060  -1.856  55.540  1.00  0.00     0.219 HD
ENDBRANCH  15  18
ENDBRANCH   3  13
BRANCH   4  20
HETATM   20  C11 UNL     1      27.431  -0.211  53.183  1.00  0.00    -0.033 A 
HETATM   21  C12 UNL     1      28.760  -0.263  53.620  1.00  0.00     0.009 A 
HETATM   22  C13 UNL     1      29.583  -1.381  53.628  1.00  0.00     0.001 A 
HETATM   23  C14 UNL     1      29.011  -2.551  53.153  1.00  0.00     0.000 A 
HETATM   24  C15 UNL     1      27.705  -2.552  52.712  1.00  0.00     0.001 A 
HETATM   25  C16 UNL     1      26.931  -1.411  52.725  1.00  0.00     0.009 A 
ENDBRANCH   4  20
TORSDOF 4
ENDMDL
MODEL 3
REMARK VINA RESULT:      -8.9      2.472      6.230
REMARK  4 active torsions:
REMARK  status: ('A' for Active; 'I' for Inactive)
REMARK    1  A    between atoms: C5_5  and  C6_6 
REMARK    2  A    between atoms: N2_8  and  C7_9 
REMARK    3  A    between atoms: C8_11  and  O1_12 
REMARK    4  A    between atoms: C10_15  and  C11_16 
ROOT
HETATM    1  C6  UNL     1      25.376   0.520  52.945  1.00  0.00     0.069 C 
HETATM    2  N1  UNL     1      25.270   1.790  52.761  1.00  0.00    -0.173 NA
HETATM    3  N2  UNL     1      23.932   2.202  52.718  1.00  0.00    -0.236 N 
HETATM    4  C10 UNL     1      23.084   1.133  53.124  1.00  0.00     0.151 C 
HETATM    5  C17 UNL     1      24.033  -0.044  53.083  1.00  0.00     0.094 C 
ENDROOT
BRANCH   1   6
HETATM    6  C5  UNL     1      26.665  -0.180  53.027  1.00  0.00     0.009 A 
HETATM    7  C4  UNL     1      26.766  -1.621  52.802  1.00  0.00     0.016 A 
HETATM    8  C3  UNL     1      28.029  -2.049  52.945  1.00  0.00     0.013 A 
HETATM    9  C2  UNL     1      28.786  -0.852  53.275  1.00  0.00    -0.027 A 
HETATM   10  C1  UNL     1      30.081  -0.888  53.496  1.00  0.00     0.025 C 
HETATM   11  C18 UNL     1      27.860   0.274  53.306  1.00  0.00     0.032 A 
HETATM   12 BR1  UNL     1      28.295   2.067  53.685  1.00  0.00    -0.049 Br
ENDBRANCH   1   6
BRANCH   3  13
HETATM   13  C7  UNL     1      23.836   3.618  52.273  1.00  0.00     0.192 A 
HETATM   14  N3  UNL     1      23.531   4.705  52.293  1.00  0.00    -0.198 NA
HETATM   15  C8  UNL     1      23.854   5.658  51.432  1.00  0.00     0.171 A 
HETATM   16  C9  UNL     1      24.682   5.297  50.345  1.00  0.00     0.111 A 
HETATM   17  S1  UNL     1      24.926   3.450  50.716  1.00  0.00    -0.058 SA
BRANCH  15  18
HETATM   18  O1  UNL     1      23.367   6.971  51.629  1.00  0.00    -0.344 OA
HETATM   19  H5  UNL     1      23.720   7.585  52.351  1.00  0.00     0.219 HD
ENDBRANCH  15  18
ENDBRANCH   3  13
BRANCH   4  20
HETATM   20  C11 UNL     1      21.890   0.918  52.298  1.00  0.00    -0.033 A 
HETATM   21  C12 UNL     1      20.688   0.563  52.923  1.00  0.00     0.009 A 
HETATM   22  C13 UNL     1      19.475   0.311  52.298  1.00  0.00     0.001 A 
HETATM   23  C14 UNL     1      19.476   0.431  50.916  1.00  0.00     0.000 A 
HETATM   24  C15 UNL     1      20.634   0.780  50.254  1.00  0.00     0.001 A 
HETATM   25  C16 UNL     1      21.815   1.018  50.926  1.00  0.00     0.009 A 
ENDBRANCH   4  20
TORSDOF 4
ENDMDL
MODEL 4
REMARK VINA RESULT:      -8.7      3.441      7.143
REMARK  4 active torsions:
REMARK  status: ('A' for Active; 'I' for Inactive)
REMARK    1  A    between atoms: C5_5  and  C6_6 
REMARK    2  A    between atoms: N2_8  and  C7_9 
REMARK    3  A    between atoms: C8_11  and  O1_12 
REMARK    4  A    between atoms: C10_15  and  C11_16 
ROOT
HETATM    1  C6  UNL     1      25.636   1.059  52.412  1.00  0.00     0.069 C 
HETATM    2  N1  UNL     1      24.583   0.413  52.775  1.00  0.00    -0.173 NA
HETATM    3  N2  UNL     1      23.429   0.897  52.143  1.00  0.00    -0.236 N 
HETATM    4  C10 UNL     1      23.790   1.805  51.109  1.00  0.00     0.151 C 
HETATM    5  C17 UNL     1      25.248   2.063  51.422  1.00  0.00     0.094 C 
ENDROOT
BRANCH   1   6
HETATM    6  C5  UNL     1      26.981   0.763  52.922  1.00  0.00     0.009 A 
HETATM    7  C4  UNL     1      27.840   1.815  53.463  1.00  0.00     0.016 A 
HETATM    8  C3  UNL     1      29.026   1.324  53.852  1.00  0.00     0.013 A 
HETATM    9  C2  UNL     1      28.947  -0.099  53.557  1.00  0.00    -0.027 A 
HETATM   10  C1  UNL     1      29.947  -0.916  53.804  1.00  0.00     0.025 C 
HETATM   11  C18 UNL     1      27.636  -0.368  52.979  1.00  0.00     0.032 A 
HETATM   12 BR1  UNL     1      26.993  -2.043  52.405  1.00  0.00    -0.049 Br
ENDBRANCH   1   6
BRANCH   3  13
HETATM   13  C7  UNL     1      22.211   0.298  52.752  1.00  0.00     0.192 A 
HETATM   14  N3  UNL     1      21.112   0.102  52.923  1.00  0.00    -0.198 NA
HETATM   15  C8  UNL     1      20.558  -0.735  53.786  1.00  0.00     0.171 A 
HETATM   16  C9  UNL     1      21.427  -1.491  54.605  1.00  0.00     0.111 A 
HETATM   17  S1  UNL     1      23.105  -0.850  53.987  1.00  0.00    -0.058 SA
BRANCH  15  18
HETATM   18  O1  UNL     1      19.150  -0.838  53.853  1.00  0.00    -0.344 OA
HETATM   19  H5  UNL     1      18.611  -1.424  53.229  1.00  0.00     0.219 HD
ENDBRANCH  15  18
ENDBRANCH   3  13
BRANCH   4  20
HETATM   20  C11 UNL     1      23.004   3.043  51.045  1.00  0.00    -0.033 A 
HETATM   21  C12 UNL     1      23.014   3.910  52.144  1.00  0.00     0.009 A 
HETATM   22  C13 UNL     1      22.323   5.109  52.258  1.00  0.00     0.001 A 
HETATM   23  C14 UNL     1      21.555   5.464  51.159  1.00  0.00     0.000 A 
HETATM   24  C15 UNL     1      21.513   4.645  50.052  1.00  0.00     0.001 A 
HETATM   25  C16 UNL     1      22.219   3.461  49.993  1.00  0.00     0.009 A 
ENDBRANCH   4  20
TORSDOF 4
ENDMDL
MODEL 5
REMARK VINA RESULT:      -8.6      2.774      6.586
REMARK  4 active torsions:
REMARK  status: ('A' for Active; 'I' for Inactive)
REMARK    1  A    between atoms: C5_5  and  C6_6 
REMARK    2  A    between atoms: N2_8  and  C7_9 
REMARK    3  A    between atoms: C8_11  and  O1_12 
REMARK    4  A    between atoms: C10_15  and  C11_16 
ROOT
HETATM    1  C6  UNL     1      24.433   3.313  51.311  1.00  0.00     0.069 C 
HETATM    2  N1  UNL     1      25.414   2.522  51.578  1.00  0.00    -0.173 NA
HETATM    3  N2  UNL     1      24.971   1.232  51.903  1.00  0.00    -0.236 N 
HETATM    4  C10 UNL     1      23.583   1.112  51.616  1.00  0.00     0.151 C 
HETATM    5  C17 UNL     1      23.185   2.557  51.410  1.00  0.00     0.094 C 
ENDROOT
BRANCH   1   6
HETATM    6  C5  UNL     1      24.611   4.723  50.943  1.00  0.00     0.009 A 
HETATM    7  C4  UNL     1      23.748   5.769  51.490  1.00  0.00     0.016 A 
HETATM    8  C3  UNL     1      24.077   6.976  51.004  1.00  0.00     0.013 A 
HETATM    9  C2  UNL     1      25.192   6.717  50.107  1.00  0.00    -0.027 A 
HETATM   10  C1  UNL     1      25.781   7.682  49.435  1.00  0.00     0.025 C 
HETATM   11  C18 UNL     1      25.465   5.285  50.126  1.00  0.00     0.032 A 
HETATM   12 BR1  UNL     1      26.802   4.391  49.145  1.00  0.00    -0.049 Br
ENDBRANCH   1   6
BRANCH   3  13
HETATM   13  C7  UNL     1      26.095   0.413  52.431  1.00  0.00     0.192 A 
HETATM   14  N3  UNL     1      26.830  -0.441  52.494  1.00  0.00    -0.198 NA
HETATM   15  C8  UNL     1      27.799  -0.620  53.379  1.00  0.00     0.171 A 
HETATM   16  C9  UNL     1      27.955   0.369  54.378  1.00  0.00     0.111 A 
HETATM   17  S1  UNL     1      26.555   1.556  53.889  1.00  0.00    -0.058 SA
BRANCH  15  18
HETATM   18  O1  UNL     1      28.621  -1.766  53.293  1.00  0.00    -0.344 OA
HETATM   19  H5  UNL     1      29.624  -1.735  53.428  1.00  0.00     0.219 HD
ENDBRANCH  15  18
ENDBRANCH   3  13
BRANCH   4  20
HETATM   20  C11 UNL     1      22.773   0.451  52.648  1.00  0.00    -0.033 A 
HETATM   21  C12 UNL     1      21.568   1.041  53.046  1.00  0.00     0.009 A 
HETATM   22  C13 UNL     1      20.692   0.562  54.010  1.00  0.00     0.001 A 
HETATM   23  C14 UNL     1      21.068  -0.623  54.625  1.00  0.00     0.000 A 
HETATM   24  C15 UNL     1      22.245  -1.244  54.267  1.00  0.00     0.001 A 
HETATM   25  C16 UNL     1      23.081  -0.722  53.302  1.00  0.00     0.009 A 
ENDBRANCH   4  20
TORSDOF 4
ENDMDL
MODEL 6
REMARK VINA RESULT:      -8.5      3.085      7.437
REMARK  4 active torsions:
REMARK  status: ('A' for Active; 'I' for Inactive)
REMARK    1  A    between atoms: C5_5  and  C6_6 
REMARK    2  A    between atoms: N2_8  and  C7_9 
REMARK    3  A    between atoms: C8_11  and  O1_12 
REMARK    4  A    between atoms: C10_15  and  C11_16 
ROOT
HETATM    1  C6  UNL     1      25.218   3.555  50.252  1.00  0.00     0.069 C 
HETATM    2  N1  UNL     1      25.693   2.802  51.184  1.00  0.00    -0.173 NA
HETATM    3  N2  UNL     1      24.787   1.802  51.560  1.00  0.00    -0.236 N 
HETATM    4  C10 UNL     1      23.701   1.764  50.641  1.00  0.00     0.151 C 
HETATM    5  C17 UNL     1      23.890   3.062  49.887  1.00  0.00     0.094 C 
ENDROOT
BRANCH   1   6
HETATM    6  C5  UNL     1      25.956   4.684  49.672  1.00  0.00     0.009 A 
HETATM    7  C4  UNL     1      27.180   4.479  48.898  1.00  0.00     0.016 A 
HETATM    8  C3  UNL     1      27.694   5.646  48.482  1.00  0.00     0.013 A 
HETATM    9  C2  UNL     1      26.781   6.654  48.999  1.00  0.00    -0.027 A 
HETATM   10  C1  UNL     1      26.973   7.937  48.790  1.00  0.00     0.025 C 
HETATM   11  C18 UNL     1      25.721   5.970  49.730  1.00  0.00     0.032 A 
HETATM   12 BR1  UNL     1      24.270   6.785  50.612  1.00  0.00    -0.049 Br
ENDBRANCH   1   6
BRANCH   3  13
HETATM   13  C7  UNL     1      25.260   1.105  52.786  1.00  0.00     0.192 A 
HETATM   14  N3  UNL     1      25.198   0.506  53.741  1.00  0.00    -0.198 NA
HETATM   15  C8  UNL     1      26.192   0.120  54.527  1.00  0.00     0.171 A 
HETATM   16  C9  UNL     1      27.501   0.490  54.145  1.00  0.00     0.111 A 
HETATM   17  S1  UNL     1      27.123   1.444  52.547  1.00  0.00    -0.058 SA
BRANCH  15  18
HETATM   18  O1  UNL     1      25.910  -0.628  55.692  1.00  0.00    -0.344 OA
HETATM   19  H5  UNL     1      25.934  -0.229  56.622  1.00  0.00     0.219 HD
ENDBRANCH  15  18
ENDBRANCH   3  13
BRANCH   4  20
HETATM   20  C11 UNL     1      22.364   1.654  51.238  1.00  0.00    -0.033 A 
HETATM   21  C12 UNL     1      21.807   2.775  51.864  1.00  0.00     0.009 A 
HETATM   22  C13 UNL     1      20.568   2.843  52.486  1.00  0.00     0.001 A 
HETATM   23  C14 UNL     1      19.825   1.672  52.473  1.00  0.00     0.000 A 
HETATM   24  C15 UNL     1      20.330   0.541  51.869  1.00  0.00     0.001 A 
HETATM   25  C16 UNL     1      21.570   0.528  51.265  1.00  0.00     0.009 A 
ENDBRANCH   4  20
TORSDOF 4
ENDMDL
MODEL 7
REMARK VINA RESULT:      -8.5      3.053      6.502
REMARK  4 active torsions:
REMARK  status: ('A' for Active; 'I' for Inactive)
REMARK    1  A    between atoms: C5_5  and  C6_6 
REMARK    2  A    between atoms: N2_8  and  C7_9 
REMARK    3  A    between atoms: C8_11  and  O1_12 
REMARK    4  A    between atoms: C10_15  and  C11_16 
ROOT
HETATM    1  C6  UNL     1      25.937   1.589  51.700  1.00  0.00     0.069 C 
HETATM    2  N1  UNL     1      24.662   1.590  51.887  1.00  0.00    -0.173 NA
HETATM    3  N2  UNL     1      24.036   2.645  51.210  1.00  0.00    -0.236 N 
HETATM    4  C10 UNL     1      24.961   3.267  50.325  1.00  0.00     0.151 C 
HETATM    5  C17 UNL     1      26.277   2.690  50.800  1.00  0.00     0.094 C 
ENDROOT
BRANCH   1   6
HETATM    6  C5  UNL     1      26.839   0.595  52.296  1.00  0.00     0.009 A 
HETATM    7  C4  UNL     1      26.610  -0.840  52.130  1.00  0.00     0.016 A 
HETATM    8  C3  UNL     1      27.542  -1.560  52.771  1.00  0.00     0.013 A 
HETATM    9  C2  UNL     1      28.414  -0.568  53.382  1.00  0.00    -0.027 A 
HETATM   10  C1  UNL     1      29.455  -0.912  54.108  1.00  0.00     0.025 C 
HETATM   11  C18 UNL     1      27.907   0.754  53.036  1.00  0.00     0.032 A 
HETATM   12 BR1  UNL     1      28.645   2.405  53.561  1.00  0.00    -0.049 Br
ENDBRANCH   1   6
BRANCH   3  13
HETATM   13  C7  UNL     1      22.614   2.763  51.629  1.00  0.00     0.192 A 
HETATM   14  N3  UNL     1      21.584   3.214  51.726  1.00  0.00    -0.198 NA
HETATM   15  C8  UNL     1      20.527   2.709  52.345  1.00  0.00     0.171 A 
HETATM   16  C9  UNL     1      20.683   1.450  52.969  1.00  0.00     0.111 A 
HETATM   17  S1  UNL     1      22.504   1.100  52.560  1.00  0.00    -0.058 SA
BRANCH  15  18
HETATM   18  O1  UNL     1      19.314   3.432  52.359  1.00  0.00    -0.344 OA
HETATM   19  H5  UNL     1      18.962   3.931  51.551  1.00  0.00     0.219 HD
ENDBRANCH  15  18
ENDBRANCH   3  13
BRANCH   4  20
HETATM   20  C11 UNL     1      24.960   4.736  50.331  1.00  0.00    -0.033 A 
HETATM   21  C12 UNL     1      25.840   5.418  49.483  1.00  0.00     0.009 A 
HETATM   22  C13 UNL     1      25.979   6.795  49.371  1.00  0.00     0.001 A 
HETATM   23  C14 UNL     1      25.151   7.549  50.189  1.00  0.00     0.000 A 
HETATM   24  C15 UNL     1      24.266   6.924  51.041  1.00  0.00     0.001 A 
HETATM   25  C16 UNL     1      24.171   5.550  51.113  1.00  0.00     0.009 A 
ENDBRANCH   4  20
TORSDOF 4
ENDMDL
MODEL 8
REMARK VINA RESULT:      -8.1      4.000      7.109
REMARK  4 active torsions:
REMARK  status: ('A' for Active; 'I' for Inactive)
REMARK    1  A    between atoms: C5_5  and  C6_6 
REMARK    2  A    between atoms: N2_8  and  C7_9 
REMARK    3  A    between atoms: C8_11  and  O1_12 
REMARK    4  A    between atoms: C10_15  and  C11_16 
ROOT
HETATM    1  C6  UNL     1      24.501   3.980  50.453  1.00  0.00     0.069 C 
HETATM    2  N1  UNL     1      23.300   3.894  49.996  1.00  0.00    -0.173 NA
HETATM    3  N2  UNL     1      22.450   3.223  50.885  1.00  0.00    -0.236 N 
HETATM    4  C10 UNL     1      23.106   3.039  52.134  1.00  0.00     0.151 C 
HETATM    5  C17 UNL     1      24.540   3.366  51.779  1.00  0.00     0.094 C 
ENDROOT
BRANCH   1   6
HETATM    6  C5  UNL     1      25.597   4.631  49.724  1.00  0.00     0.009 A 
HETATM    7  C4  UNL     1      26.786   3.887  49.310  1.00  0.00     0.016 A 
HETATM    8  C3  UNL     1      27.662   4.681  48.678  1.00  0.00     0.013 A 
HETATM    9  C2  UNL     1      27.032   5.993  48.675  1.00  0.00    -0.027 A 
HETATM   10  C1  UNL     1      27.614   7.042  48.137  1.00  0.00     0.025 C 
HETATM   11  C18 UNL     1      25.744   5.876  49.347  1.00  0.00     0.032 A 
HETATM   12 BR1  UNL     1      24.505   7.266  49.635  1.00  0.00    -0.049 Br
ENDBRANCH   1   6
BRANCH   3  13
HETATM   13  C7  UNL     1      21.143   2.932  50.238  1.00  0.00     0.192 A 
HETATM   14  N3  UNL     1      20.410   2.461  49.519  1.00  0.00    -0.198 NA
HETATM   15  C8  UNL     1      19.100   2.643  49.453  1.00  0.00     0.171 A 
HETATM   16  C9  UNL     1      18.522   3.531  50.389  1.00  0.00     0.111 A 
HETATM   17  S1  UNL     1      20.074   4.058  51.349  1.00  0.00    -0.058 SA
BRANCH  15  18
HETATM   18  O1  UNL     1      18.348   1.959  48.472  1.00  0.00    -0.344 OA
HETATM   19  H5  UNL     1      17.339   2.007  48.420  1.00  0.00     0.219 HD
ENDBRANCH  15  18
ENDBRANCH   3  13
BRANCH   4  20
HETATM   20  C11 UNL     1      22.969   1.706  52.736  1.00  0.00    -0.033 A 
HETATM   21  C12 UNL     1      24.116   0.929  52.932  1.00  0.00     0.009 A 
HETATM   22  C13 UNL     1      24.167  -0.348  53.472  1.00  0.00     0.001 A 
HETATM   23  C14 UNL     1      22.946  -0.888  53.850  1.00  0.00     0.000 A 
HETATM   24  C15 UNL     1      21.788  -0.162  53.679  1.00  0.00     0.001 A 
HETATM   25  C16 UNL     1      21.795   1.105  53.135  1.00  0.00     0.009 A 
ENDBRANCH   4  20
TORSDOF 4
ENDMDL
MODEL 9
REMARK VINA RESULT:      -7.7      3.772      5.330
REMARK  4 active torsions:
REMARK  status: ('A' for Active; 'I' for Inactive)
REMARK    1  A    between atoms: C5_5  and  C6_6 
REMARK    2  A    between atoms: N2_8  and  C7_9 
REMARK    3  A    between atoms: C8_11  and  O1_12 
REMARK    4  A    between atoms: C10_15  and  C11_16 
ROOT
HETATM    1  C6  UNL     1      23.362   1.863  51.397  1.00  0.00     0.069 C 
HETATM    2  N1  UNL     1      22.756   2.000  50.269  1.00  0.00    -0.173 NA
HETATM    3  N2  UNL     1      23.450   2.857  49.404  1.00  0.00    -0.236 N 
HETATM    4  C10 UNL     1      24.739   3.140  49.937  1.00  0.00     0.151 C 
HETATM    5  C17 UNL     1      24.601   2.638  51.358  1.00  0.00     0.094 C 
ENDROOT
BRANCH   1   6
HETATM    6  C5  UNL     1      22.853   1.023  52.490  1.00  0.00     0.009 A 
HETATM    7  C4  UNL     1      21.463   1.112  52.935  1.00  0.00     0.016 A 
HETATM    8  C3  UNL     1      21.223   0.271  53.953  1.00  0.00     0.013 A 
HETATM    9  C2  UNL     1      22.496  -0.392  54.187  1.00  0.00    -0.027 A 
HETATM   10  C1  UNL     1      22.646  -1.295  55.131  1.00  0.00     0.025 C 
HETATM   11  C18 UNL     1      23.463   0.133  53.230  1.00  0.00     0.032 A 
HETATM   12 BR1  UNL     1      25.272  -0.368  53.082  1.00  0.00    -0.049 Br
ENDBRANCH   1   6
BRANCH   3  13
HETATM   13  C7  UNL     1      22.620   3.181  48.214  1.00  0.00     0.192 A 
HETATM   14  N3  UNL     1      22.293   3.185  47.133  1.00  0.00    -0.198 NA
HETATM   15  C8  UNL     1      21.230   3.773  46.604  1.00  0.00     0.171 A 
HETATM   16  C9  UNL     1      20.384   4.490  47.480  1.00  0.00     0.111 A 
HETATM   17  S1  UNL     1      21.298   4.215  49.122  1.00  0.00    -0.058 SA
BRANCH  15  18
HETATM   18  O1  UNL     1      20.990   3.663  45.216  1.00  0.00    -0.344 OA
HETATM   19  H5  UNL     1      21.129   2.804  44.700  1.00  0.00     0.219 HD
ENDBRANCH  15  18
ENDBRANCH   3  13
BRANCH   4  20
HETATM   20  C11 UNL     1      25.157   4.546  49.879  1.00  0.00    -0.033 A 
HETATM   21  C12 UNL     1      26.225   4.903  49.047  1.00  0.00     0.009 A 
HETATM   22  C13 UNL     1      26.755   6.175  48.882  1.00  0.00     0.001 A 
HETATM   23  C14 UNL     1      26.150   7.177  49.624  1.00  0.00     0.000 A 
HETATM   24  C15 UNL     1      25.094   6.878  50.458  1.00  0.00     0.001 A 
HETATM   25  C16 UNL     1      24.607   5.594  50.585  1.00  0.00     0.009 A 
ENDBRANCH   4  20
TORSDOF 4
ENDMDL
