MODEL 1
REMARK VINA RESULT:      -8.1      0.000      0.000
REMARK  6 active torsions:
REMARK  status: ('A' for Active; 'I' for Inactive)
REMARK    1  A    between atoms: C2_2  and  O1_3 
REMARK    2  A    between atoms: O1_3  and  C3_4 
REMARK    3  A    between atoms: C3_4  and  C4_6 
REMARK    4  A    between atoms: N1_9  and  C7_10 
REMARK    5  A    between atoms: C7_10  and  C8_11 
REMARK    6  A    between atoms: C12_15  and  C13_16 
ROOT
HETATM    1  C8  UNL     1      23.395   2.413  51.622  1.00  0.00     0.072 C 
HETATM    2  C9  UNL     1      22.825   3.451  52.495  1.00  0.00    -0.015 C 
HETATM    3  C10 UNL     1      23.019   4.778  52.550  1.00  0.00    -0.000 C 
HETATM    4  C11 UNL     1      23.865   5.705  51.766  1.00  0.00     0.039 C 
HETATM    5  C12 UNL     1      24.201   5.649  50.469  1.00  0.00     0.100 C 
HETATM    6  O4  UNL     1      23.962   4.816  49.359  1.00  0.00    -0.308 OA
HETATM    7  C14 UNL     1      23.228   3.618  49.253  1.00  0.00     0.083 A 
HETATM    8  C15 UNL     1      22.719   3.540  47.975  1.00  0.00     0.038 A 
HETATM    9  C16 UNL     1      21.955   2.472  47.575  1.00  0.00     0.003 A 
HETATM   10  C17 UNL     1      21.682   1.435  48.474  1.00  0.00     0.001 A 
HETATM   11  C18 UNL     1      22.218   1.579  49.720  1.00  0.00     0.011 A 
HETATM   12  C19 UNL     1      22.990   2.612  50.197  1.00  0.00    -0.015 A 
ENDROOT
BRANCH   1  13
HETATM   13  C7  UNL     1      23.345   1.024  52.068  1.00  0.00     0.285 C 
BRANCH  13  14
HETATM   14  N1  UNL     1      24.653   0.405  52.312  1.00  0.00     0.089 N 
HETATM   15  C6  UNL     1      24.705   0.066  53.716  1.00  0.00     0.273 C 
HETATM   16  C5  UNL     1      26.014  -0.249  54.300  1.00  0.00     0.045 C 
HETATM   17  C4  UNL     1      26.952   0.915  54.029  1.00  0.00     0.089 C 
HETATM   18  C21 UNL     1      27.073   0.941  52.521  1.00  0.00     0.045 C 
HETATM   19  C20 UNL     1      25.744   1.196  51.865  1.00  0.00     0.273 C 
BRANCH  17  20
HETATM   20  C3  UNL     1      28.284   0.633  54.596  1.00  0.00     0.263 C 
HETATM   21  O2  UNL     1      29.090   1.461  55.033  1.00  0.00    -0.265 OA
BRANCH  20  22
HETATM   22  O1  UNL     1      28.966  -0.541  54.789  1.00  0.00    -0.322 OA
BRANCH  22  23
HETATM   23  C2  UNL     1      29.743  -1.138  53.766  1.00  0.00     0.174 C 
HETATM   24  C1  UNL     1      29.105  -2.342  53.148  1.00  0.00     0.034 C 
ENDBRANCH  22  23
ENDBRANCH  20  22
ENDBRANCH  17  20
ENDBRANCH  13  14
ENDBRANCH   1  13
BRANCH   5  25
HETATM   25  C13 UNL     1      25.047   6.775  50.152  1.00  0.00     0.415 C 
HETATM   26  O3  UNL     1      25.964   7.615  50.213  1.00  0.00    -0.403 OA
ENDBRANCH   5  25
TORSDOF 6
ENDMDL
MODEL 2
REMARK VINA RESULT:      -7.8      2.587      4.521
REMARK  6 active torsions:
REMARK  status: ('A' for Active; 'I' for Inactive)
REMARK    1  A    between atoms: C2_2  and  O1_3 
REMARK    2  A    between atoms: O1_3  and  C3_4 
REMARK    3  A    between atoms: C3_4  and  C4_6 
REMARK    4  A    between atoms: N1_9  and  C7_10 
REMARK    5  A    between atoms: C7_10  and  C8_11 
REMARK    6  A    between atoms: C12_15  and  C13_16 
ROOT
HETATM    1  C8  UNL     1      25.541   3.643  49.909  1.00  0.00     0.072 C 
HETATM    2  C9  UNL     1      24.349   3.243  49.144  1.00  0.00    -0.015 C 
HETATM    3  C10 UNL     1      23.161   3.841  48.963  1.00  0.00    -0.000 C 
HETATM    4  C11 UNL     1      22.591   5.116  49.451  1.00  0.00     0.039 C 
HETATM    5  C12 UNL     1      23.209   6.283  49.684  1.00  0.00     0.100 C 
HETATM    6  O4  UNL     1      24.511   6.815  49.598  1.00  0.00    -0.308 OA
HETATM    7  C14 UNL     1      25.726   6.209  49.222  1.00  0.00     0.083 A 
HETATM    8  C15 UNL     1      26.527   7.175  48.653  1.00  0.00     0.038 A 
HETATM    9  C16 UNL     1      27.784   6.877  48.188  1.00  0.00     0.003 A 
HETATM   10  C17 UNL     1      28.273   5.571  48.288  1.00  0.00     0.001 A 
HETATM   11  C18 UNL     1      27.425   4.667  48.862  1.00  0.00     0.011 A 
HETATM   12  C19 UNL     1      26.159   4.884  49.351  1.00  0.00    -0.015 A 
ENDROOT
BRANCH   1  13
HETATM   13  C7  UNL     1      26.505   2.613  50.284  1.00  0.00     0.285 C 
BRANCH  13  14
HETATM   14  N1  UNL     1      26.414   2.159  51.677  1.00  0.00     0.089 N 
HETATM   15  C6  UNL     1      26.786   0.762  51.691  1.00  0.00     0.273 C 
HETATM   16  C5  UNL     1      26.455  -0.025  52.885  1.00  0.00     0.045 C 
HETATM   17  C4  UNL     1      24.964   0.100  53.145  1.00  0.00     0.089 C 
HETATM   18  C21 UNL     1      24.771   1.570  53.449  1.00  0.00     0.045 C 
HETATM   19  C20 UNL     1      25.157   2.432  52.278  1.00  0.00     0.273 C 
BRANCH  17  20
HETATM   20  C3  UNL     1      24.593  -0.674  54.344  1.00  0.00     0.263 C 
HETATM   21  O2  UNL     1      25.367  -1.159  55.176  1.00  0.00    -0.265 OA
BRANCH  20  22
HETATM   22  O1  UNL     1      23.375  -1.054  54.847  1.00  0.00    -0.322 OA
BRANCH  22  23
HETATM   23  C2  UNL     1      22.190  -0.999  54.073  1.00  0.00     0.174 C 
HETATM   24  C1  UNL     1      21.176  -0.027  54.590  1.00  0.00     0.034 C 
ENDBRANCH  22  23
ENDBRANCH  20  22
ENDBRANCH  17  20
ENDBRANCH  13  14
ENDBRANCH   1  13
BRANCH   5  25
HETATM   25  C13 UNL     1      22.241   7.245  50.154  1.00  0.00     0.415 C 
HETATM   26  O3  UNL     1      21.315   7.764  50.803  1.00  0.00    -0.403 OA
ENDBRANCH   5  25
TORSDOF 6
ENDMDL
MODEL 3
REMARK VINA RESULT:      -7.6      2.391      3.648
REMARK  6 active torsions:
REMARK  status: ('A' for Active; 'I' for Inactive)
REMARK    1  A    between atoms: C2_2  and  O1_3 
REMARK    2  A    between atoms: O1_3  and  C3_4 
REMARK    3  A    between atoms: C3_4  and  C4_6 
REMARK    4  A    between atoms: N1_9  and  C7_10 
REMARK    5  A    between atoms: C7_10  and  C8_11 
REMARK    6  A    between atoms: C12_15  and  C13_16 
ROOT
HETATM    1  C8  UNL     1      22.595   0.509  52.546  1.00  0.00     0.072 C 
HETATM    2  C9  UNL     1      22.869   1.953  52.628  1.00  0.00    -0.015 C 
HETATM    3  C10 UNL     1      22.771   2.934  51.718  1.00  0.00    -0.000 C 
HETATM    4  C11 UNL     1      22.355   2.953  50.298  1.00  0.00     0.039 C 
HETATM    5  C12 UNL     1      21.429   2.206  49.679  1.00  0.00     0.100 C 
HETATM    6  O4  UNL     1      20.517   1.184  50.007  1.00  0.00    -0.308 OA
HETATM    7  C14 UNL     1      20.281   0.522  51.228  1.00  0.00     0.083 A 
HETATM    8  C15 UNL     1      18.956   0.144  51.260  1.00  0.00     0.038 A 
HETATM    9  C16 UNL     1      18.431  -0.526  52.336  1.00  0.00     0.003 A 
HETATM   10  C17 UNL     1      19.247  -0.838  53.429  1.00  0.00     0.001 A 
HETATM   11  C18 UNL     1      20.547  -0.433  53.328  1.00  0.00     0.011 A 
HETATM   12  C19 UNL     1      21.147   0.239  52.290  1.00  0.00    -0.015 A 
ENDROOT
BRANCH   1  13
HETATM   13  C7  UNL     1      23.200  -0.371  53.540  1.00  0.00     0.285 C 
BRANCH  13  14
HETATM   14  N1  UNL     1      24.658  -0.507  53.442  1.00  0.00     0.089 N 
HETATM   15  C6  UNL     1      25.210  -0.064  54.702  1.00  0.00     0.273 C 
HETATM   16  C5  UNL     1      26.647   0.229  54.758  1.00  0.00     0.045 C 
HETATM   17  C4  UNL     1      26.971   1.251  53.682  1.00  0.00     0.089 C 
HETATM   18  C21 UNL     1      26.661   0.527  52.389  1.00  0.00     0.045 C 
HETATM   19  C20 UNL     1      25.209   0.143  52.306  1.00  0.00     0.273 C 
BRANCH  17  20
HETATM   20  C3  UNL     1      28.411   1.567  53.703  1.00  0.00     0.263 C 
HETATM   21  O2  UNL     1      28.946   2.599  53.282  1.00  0.00    -0.265 OA
BRANCH  20  22
HETATM   22  O1  UNL     1      29.496   0.863  54.160  1.00  0.00    -0.322 OA
BRANCH  22  23
HETATM   23  C2  UNL     1      30.145  -0.117  53.370  1.00  0.00     0.174 C 
HETATM   24  C1  UNL     1      29.581  -1.493  53.529  1.00  0.00     0.034 C 
ENDBRANCH  22  23
ENDBRANCH  20  22
ENDBRANCH  17  20
ENDBRANCH  13  14
ENDBRANCH   1  13
BRANCH   5  25
HETATM   25  C13 UNL     1      21.375   2.580  48.286  1.00  0.00     0.415 C 
HETATM   26  O3  UNL     1      21.723   2.961  47.153  1.00  0.00    -0.403 OA
ENDBRANCH   5  25
TORSDOF 6
ENDMDL
MODEL 4
REMARK VINA RESULT:      -7.5      2.223      3.770
REMARK  6 active torsions:
REMARK  status: ('A' for Active; 'I' for Inactive)
REMARK    1  A    between atoms: C2_2  and  O1_3 
REMARK    2  A    between atoms: O1_3  and  C3_4 
REMARK    3  A    between atoms: C3_4  and  C4_6 
REMARK    4  A    between atoms: N1_9  and  C7_10 
REMARK    5  A    between atoms: C7_10  and  C8_11 
REMARK    6  A    between atoms: C12_15  and  C13_16 
ROOT
HETATM    1  C8  UNL     1      24.781   4.066  49.508  1.00  0.00     0.072 C 
HETATM    2  C9  UNL     1      23.663   4.003  48.553  1.00  0.00    -0.015 C 
HETATM    3  C10 UNL     1      22.676   4.867  48.274  1.00  0.00    -0.000 C 
HETATM    4  C11 UNL     1      22.327   6.204  48.806  1.00  0.00     0.039 C 
HETATM    5  C12 UNL     1      23.140   7.179  49.237  1.00  0.00     0.100 C 
HETATM    6  O4  UNL     1      24.523   7.404  49.381  1.00  0.00    -0.308 OA
HETATM    7  C14 UNL     1      25.622   6.562  49.114  1.00  0.00     0.083 A 
HETATM    8  C15 UNL     1      26.691   7.356  48.759  1.00  0.00     0.038 A 
HETATM    9  C16 UNL     1      27.909   6.810  48.440  1.00  0.00     0.003 A 
HETATM   10  C17 UNL     1      28.082   5.422  48.474  1.00  0.00     0.001 A 
HETATM   11  C18 UNL     1      26.981   4.700  48.834  1.00  0.00     0.011 A 
HETATM   12  C19 UNL     1      25.731   5.168  49.167  1.00  0.00    -0.015 A 
ENDROOT
BRANCH   1  13
HETATM   13  C7  UNL     1      25.429   2.820  49.905  1.00  0.00     0.285 C 
BRANCH  13  14
HETATM   14  N1  UNL     1      25.482   2.584  51.352  1.00  0.00     0.089 N 
HETATM   15  C6  UNL     1      26.878   2.565  51.727  1.00  0.00     0.273 C 
HETATM   16  C5  UNL     1      27.230   2.012  53.040  1.00  0.00     0.045 C 
HETATM   17  C4  UNL     1      26.666   0.605  53.135  1.00  0.00     0.089 C 
HETATM   18  C21 UNL     1      25.168   0.809  53.067  1.00  0.00     0.045 C 
HETATM   19  C20 UNL     1      24.755   1.436  51.763  1.00  0.00     0.273 C 
BRANCH  17  20
HETATM   20  C3  UNL     1      26.995   0.016  54.447  1.00  0.00     0.263 C 
HETATM   21  O2  UNL     1      26.194  -0.323  55.324  1.00  0.00    -0.265 OA
BRANCH  20  22
HETATM   22  O1  UNL     1      28.194  -0.301  55.032  1.00  0.00    -0.322 OA
BRANCH  22  23
HETATM   23  C2  UNL     1      29.379  -0.473  54.276  1.00  0.00     0.174 C 
HETATM   24  C1  UNL     1      29.330  -1.632  53.331  1.00  0.00     0.034 C 
ENDBRANCH  22  23
ENDBRANCH  20  22
ENDBRANCH  17  20
ENDBRANCH  13  14
ENDBRANCH   1  13
BRANCH   5  25
HETATM   25  C13 UNL     1      22.342   8.303  49.665  1.00  0.00     0.415 C 
HETATM   26  O3  UNL     1      21.441   9.161  49.709  1.00  0.00    -0.403 OA
ENDBRANCH   5  25
TORSDOF 6
ENDMDL
MODEL 5
REMARK VINA RESULT:      -7.1      2.374      7.744
REMARK  6 active torsions:
REMARK  status: ('A' for Active; 'I' for Inactive)
REMARK    1  A    between atoms: C2_2  and  O1_3 
REMARK    2  A    between atoms: O1_3  and  C3_4 
REMARK    3  A    between atoms: C3_4  and  C4_6 
REMARK    4  A    between atoms: N1_9  and  C7_10 
REMARK    5  A    between atoms: C7_10  and  C8_11 
REMARK    6  A    between atoms: C12_15  and  C13_16 
ROOT
HETATM    1  C8  UNL     1      24.169   2.766  52.417  1.00  0.00     0.072 C 
HETATM    2  C9  UNL     1      25.183   2.602  51.363  1.00  0.00    -0.015 C 
HETATM    3  C10 UNL     1      26.388   2.011  51.365  1.00  0.00    -0.000 C 
HETATM    4  C11 UNL     1      27.159   1.302  52.410  1.00  0.00     0.039 C 
HETATM    5  C12 UNL     1      26.713   0.530  53.411  1.00  0.00     0.100 C 
HETATM    6  O4  UNL     1      25.478   0.067  53.908  1.00  0.00    -0.308 OA
HETATM    7  C14 UNL     1      24.162   0.322  53.474  1.00  0.00     0.083 A 
HETATM    8  C15 UNL     1      23.394  -0.785  53.767  1.00  0.00     0.038 A 
HETATM    9  C16 UNL     1      22.058  -0.827  53.459  1.00  0.00     0.003 A 
HETATM   10  C17 UNL     1      21.451   0.268  52.835  1.00  0.00     0.001 A 
HETATM   11  C18 UNL     1      22.272   1.327  52.576  1.00  0.00     0.011 A 
HETATM   12  C19 UNL     1      23.613   1.449  52.851  1.00  0.00    -0.015 A 
ENDROOT
BRANCH   1  13
HETATM   13  C7  UNL     1      23.167   3.815  52.262  1.00  0.00     0.285 C 
BRANCH  13  14
HETATM   14  N1  UNL     1      23.399   4.732  51.139  1.00  0.00     0.089 N 
HETATM   15  C6  UNL     1      23.905   5.965  51.697  1.00  0.00     0.273 C 
HETATM   16  C5  UNL     1      23.897   7.160  50.845  1.00  0.00     0.045 C 
HETATM   17  C4  UNL     1      22.481   7.381  50.341  1.00  0.00     0.089 C 
HETATM   18  C21 UNL     1      22.205   6.160  49.490  1.00  0.00     0.045 C 
HETATM   19  C20 UNL     1      22.264   4.895  50.301  1.00  0.00     0.273 C 
BRANCH  17  20
HETATM   20  C3  UNL     1      22.434   8.572  49.474  1.00  0.00     0.263 C 
HETATM   21  O2  UNL     1      21.428   9.216  49.159  1.00  0.00    -0.265 OA
BRANCH  20  22
HETATM   22  O1  UNL     1      23.418   9.261  48.811  1.00  0.00    -0.322 OA
BRANCH  22  23
HETATM   23  C2  UNL     1      23.701   9.039  47.441  1.00  0.00     0.174 C 
HETATM   24  C1  UNL     1      24.615   7.881  47.193  1.00  0.00     0.034 C 
ENDBRANCH  22  23
ENDBRANCH  20  22
ENDBRANCH  17  20
ENDBRANCH  13  14
ENDBRANCH   1  13
BRANCH   5  25
HETATM   25  C13 UNL     1      27.839   0.055  54.179  1.00  0.00     0.415 C 
HETATM   26  O3  UNL     1      28.529  -0.350  55.133  1.00  0.00    -0.403 OA
ENDBRANCH   5  25
TORSDOF 6
ENDMDL
MODEL 6
REMARK VINA RESULT:      -7.1      2.432      4.162
REMARK  6 active torsions:
REMARK  status: ('A' for Active; 'I' for Inactive)
REMARK    1  A    between atoms: C2_2  and  O1_3 
REMARK    2  A    between atoms: O1_3  and  C3_4 
REMARK    3  A    between atoms: C3_4  and  C4_6 
REMARK    4  A    between atoms: N1_9  and  C7_10 
REMARK    5  A    between atoms: C7_10  and  C8_11 
REMARK    6  A    between atoms: C12_15  and  C13_16 
ROOT
HETATM    1  C8  UNL     1      23.376   3.546  49.982  1.00  0.00     0.072 C 
HETATM    2  C9  UNL     1      22.584   2.944  48.897  1.00  0.00    -0.015 C 
HETATM    3  C10 UNL     1      21.264   2.748  48.757  1.00  0.00    -0.000 C 
HETATM    4  C11 UNL     1      20.103   3.054  49.622  1.00  0.00     0.039 C 
HETATM    5  C12 UNL     1      19.921   4.089  50.455  1.00  0.00     0.100 C 
HETATM    6  O4  UNL     1      20.624   5.237  50.871  1.00  0.00    -0.308 OA
HETATM    7  C14 UNL     1      21.908   5.701  50.524  1.00  0.00     0.083 A 
HETATM    8  C15 UNL     1      21.900   7.077  50.602  1.00  0.00     0.038 A 
HETATM    9  C16 UNL     1      23.022   7.814  50.317  1.00  0.00     0.003 A 
HETATM   10  C17 UNL     1      24.204   7.168  49.940  1.00  0.00     0.001 A 
HETATM   11  C18 UNL     1      24.138   5.805  49.883  1.00  0.00     0.011 A 
HETATM   12  C19 UNL     1      23.059   4.997  50.152  1.00  0.00    -0.015 A 
ENDROOT
BRANCH   1  13
HETATM   13  C7  UNL     1      24.799   3.232  50.061  1.00  0.00     0.285 C 
BRANCH  13  14
HETATM   14  N1  UNL     1      25.241   2.686  51.349  1.00  0.00     0.089 N 
HETATM   15  C6  UNL     1      26.569   2.153  51.149  1.00  0.00     0.273 C 
HETATM   16  C5  UNL     1      27.109   1.249  52.172  1.00  0.00     0.045 C 
HETATM   17  C4  UNL     1      26.131   0.102  52.363  1.00  0.00     0.089 C 
HETATM   18  C21 UNL     1      24.885   0.773  52.899  1.00  0.00     0.045 C 
HETATM   19  C20 UNL     1      24.323   1.762  51.915  1.00  0.00     0.273 C 
BRANCH  17  20
HETATM   20  C3  UNL     1      26.637  -0.827  53.391  1.00  0.00     0.263 C 
HETATM   21  O2  UNL     1      26.341  -0.832  54.590  1.00  0.00    -0.265 OA
BRANCH  20  22
HETATM   22  O1  UNL     1      27.517  -1.877  53.322  1.00  0.00    -0.322 OA
BRANCH  22  23
HETATM   23  C2  UNL     1      28.886  -1.693  53.009  1.00  0.00     0.174 C 
HETATM   24  C1  UNL     1      29.591  -0.740  53.922  1.00  0.00     0.034 C 
ENDBRANCH  22  23
ENDBRANCH  20  22
ENDBRANCH  17  20
ENDBRANCH  13  14
ENDBRANCH   1  13
BRANCH   5  25
HETATM   25  C13 UNL     1      18.630   3.963  51.088  1.00  0.00     0.415 C 
HETATM   26  O3  UNL     1      17.743   3.656  51.906  1.00  0.00    -0.403 OA
ENDBRANCH   5  25
TORSDOF 6
ENDMDL
MODEL 7
REMARK VINA RESULT:      -7.0      2.281      6.773
REMARK  6 active torsions:
REMARK  status: ('A' for Active; 'I' for Inactive)
REMARK    1  A    between atoms: C2_2  and  O1_3 
REMARK    2  A    between atoms: O1_3  and  C3_4 
REMARK    3  A    between atoms: C3_4  and  C4_6 
REMARK    4  A    between atoms: N1_9  and  C7_10 
REMARK    5  A    between atoms: C7_10  and  C8_11 
REMARK    6  A    between atoms: C12_15  and  C13_16 
ROOT
HETATM    1  C8  UNL     1      23.884   2.779  51.272  1.00  0.00     0.072 C 
HETATM    2  C9  UNL     1      25.062   2.564  50.416  1.00  0.00    -0.015 C 
HETATM    3  C10 UNL     1      26.334   2.255  50.709  1.00  0.00    -0.000 C 
HETATM    4  C11 UNL     1      27.044   2.010  51.984  1.00  0.00     0.039 C 
HETATM    5  C12 UNL     1      26.586   1.445  53.110  1.00  0.00     0.100 C 
HETATM    6  O4  UNL     1      25.386   0.879  53.586  1.00  0.00    -0.308 OA
HETATM    7  C14 UNL     1      24.129   0.738  52.966  1.00  0.00     0.083 A 
HETATM    8  C15 UNL     1      23.526  -0.391  53.476  1.00  0.00     0.038 A 
HETATM    9  C16 UNL     1      22.280  -0.785  53.056  1.00  0.00     0.003 A 
HETATM   10  C17 UNL     1      21.599  -0.034  52.091  1.00  0.00     0.001 A 
HETATM   11  C18 UNL     1      22.258   1.069  51.631  1.00  0.00     0.011 A 
HETATM   12  C19 UNL     1      23.500   1.530  51.999  1.00  0.00    -0.015 A 
ENDROOT
BRANCH   1  13
HETATM   13  C7  UNL     1      22.754   3.524  50.727  1.00  0.00     0.285 C 
BRANCH  13  14
HETATM   14  N1  UNL     1      22.992   4.960  50.540  1.00  0.00     0.089 N 
HETATM   15  C6  UNL     1      23.652   5.117  49.264  1.00  0.00     0.273 C 
HETATM   16  C5  UNL     1      24.308   6.399  48.983  1.00  0.00     0.045 C 
HETATM   17  C4  UNL     1      25.298   6.687  50.099  1.00  0.00     0.089 C 
HETATM   18  C21 UNL     1      24.426   6.833  51.328  1.00  0.00     0.045 C 
HETATM   19  C20 UNL     1      23.676   5.564  51.627  1.00  0.00     0.273 C 
BRANCH  17  20
HETATM   20  C3  UNL     1      25.975   7.974  49.855  1.00  0.00     0.263 C 
HETATM   21  O2  UNL     1      25.459   9.097  49.889  1.00  0.00    -0.265 OA
BRANCH  20  22
HETATM   22  O1  UNL     1      27.275   8.279  49.541  1.00  0.00    -0.322 OA
BRANCH  22  23
HETATM   23  C2  UNL     1      27.978   7.609  48.510  1.00  0.00     0.174 C 
HETATM   24  C1  UNL     1      27.516   7.967  47.133  1.00  0.00     0.034 C 
ENDBRANCH  22  23
ENDBRANCH  20  22
ENDBRANCH  17  20
ENDBRANCH  13  14
ENDBRANCH   1  13
BRANCH   5  25
HETATM   25  C13 UNL     1      27.644   1.423  54.091  1.00  0.00     0.415 C 
HETATM   26  O3  UNL     1      28.367   1.060  55.038  1.00  0.00    -0.403 OA
ENDBRANCH   5  25
TORSDOF 6
ENDMDL
MODEL 8
REMARK VINA RESULT:      -6.8      3.621      6.712
REMARK  6 active torsions:
REMARK  status: ('A' for Active; 'I' for Inactive)
REMARK    1  A    between atoms: C2_2  and  O1_3 
REMARK    2  A    between atoms: O1_3  and  C3_4 
REMARK    3  A    between atoms: C3_4  and  C4_6 
REMARK    4  A    between atoms: N1_9  and  C7_10 
REMARK    5  A    between atoms: C7_10  and  C8_11 
REMARK    6  A    between atoms: C12_15  and  C13_16 
ROOT
HETATM    1  C8  UNL     1      21.951   1.919  52.204  1.00  0.00     0.072 C 
HETATM    2  C9  UNL     1      21.019   3.036  52.429  1.00  0.00    -0.015 C 
HETATM    3  C10 UNL     1      19.734   3.210  52.084  1.00  0.00    -0.000 C 
HETATM    4  C11 UNL     1      18.762   2.363  51.358  1.00  0.00     0.039 C 
HETATM    5  C12 UNL     1      18.643   1.028  51.354  1.00  0.00     0.100 C 
HETATM    6  O4  UNL     1      19.278  -0.083  51.945  1.00  0.00    -0.308 OA
HETATM    7  C14 UNL     1      20.389  -0.152  52.808  1.00  0.00     0.083 A 
HETATM    8  C15 UNL     1      20.233  -1.256  53.618  1.00  0.00     0.038 A 
HETATM    9  C16 UNL     1      21.169  -1.582  54.568  1.00  0.00     0.003 A 
HETATM   10  C17 UNL     1      22.308  -0.786  54.726  1.00  0.00     0.001 A 
HETATM   11  C18 UNL     1      22.396   0.290  53.891  1.00  0.00     0.011 A 
HETATM   12  C19 UNL     1      21.507   0.683  52.918  1.00  0.00    -0.015 A 
ENDROOT
BRANCH   1  13
HETATM   13  C7  UNL     1      23.384   2.179  52.296  1.00  0.00     0.285 C 
BRANCH  13  14
HETATM   14  N1  UNL     1      24.045   2.461  51.016  1.00  0.00     0.089 N 
HETATM   15  C6  UNL     1      25.468   2.351  51.241  1.00  0.00     0.273 C 
HETATM   16  C5  UNL     1      26.370   2.913  50.230  1.00  0.00     0.045 C 
HETATM   17  C4  UNL     1      26.007   4.373  50.020  1.00  0.00     0.089 C 
HETATM   18  C21 UNL     1      24.601   4.321  49.460  1.00  0.00     0.045 C 
HETATM   19  C20 UNL     1      23.642   3.692  50.433  1.00  0.00     0.273 C 
BRANCH  17  20
HETATM   20  C3  UNL     1      26.889   4.973  49.002  1.00  0.00     0.263 C 
HETATM   21  O2  UNL     1      27.964   4.517  48.598  1.00  0.00    -0.265 OA
BRANCH  20  22
HETATM   22  O1  UNL     1      26.784   6.124  48.264  1.00  0.00    -0.322 OA
BRANCH  22  23
HETATM   23  C2  UNL     1      27.240   7.374  48.749  1.00  0.00     0.174 C 
HETATM   24  C1  UNL     1      26.437   7.907  49.894  1.00  0.00     0.034 C 
ENDBRANCH  22  23
ENDBRANCH  20  22
ENDBRANCH  17  20
ENDBRANCH  13  14
ENDBRANCH   1  13
BRANCH   5  25
HETATM   25  C13 UNL     1      17.547   0.654  50.493  1.00  0.00     0.415 C 
HETATM   26  O3  UNL     1      16.896   0.109  49.583  1.00  0.00    -0.403 OA
ENDBRANCH   5  25
TORSDOF 6
ENDMDL
MODEL 9
REMARK VINA RESULT:      -6.8      2.762      7.171
REMARK  6 active torsions:
REMARK  status: ('A' for Active; 'I' for Inactive)
REMARK    1  A    between atoms: C2_2  and  O1_3 
REMARK    2  A    between atoms: O1_3  and  C3_4 
REMARK    3  A    between atoms: C3_4  and  C4_6 
REMARK    4  A    between atoms: N1_9  and  C7_10 
REMARK    5  A    between atoms: C7_10  and  C8_11 
REMARK    6  A    between atoms: C12_15  and  C13_16 
ROOT
HETATM    1  C8  UNL     1      24.155   3.778  49.851  1.00  0.00     0.072 C 
HETATM    2  C9  UNL     1      25.526   3.360  49.516  1.00  0.00    -0.015 C 
HETATM    3  C10 UNL     1      26.497   2.804  50.256  1.00  0.00    -0.000 C 
HETATM    4  C11 UNL     1      26.572   2.397  51.677  1.00  0.00     0.039 C 
HETATM    5  C12 UNL     1      25.607   1.903  52.466  1.00  0.00     0.100 C 
HETATM    6  O4  UNL     1      24.242   1.568  52.368  1.00  0.00    -0.308 OA
HETATM    7  C14 UNL     1      23.344   1.687  51.289  1.00  0.00     0.083 A 
HETATM    8  C15 UNL     1      22.406   0.685  51.402  1.00  0.00     0.038 A 
HETATM    9  C16 UNL     1      21.393   0.549  50.485  1.00  0.00     0.003 A 
HETATM   10  C17 UNL     1      21.302   1.440  49.410  1.00  0.00     0.001 A 
HETATM   11  C18 UNL     1      22.264   2.406  49.362  1.00  0.00     0.011 A 
HETATM   12  C19 UNL     1      23.306   2.610  50.236  1.00  0.00    -0.015 A 
ENDROOT
BRANCH   1  13
HETATM   13  C7  UNL     1      23.488   4.740  48.980  1.00  0.00     0.285 C 
BRANCH  13  14
HETATM   14  N1  UNL     1      23.879   6.139  49.189  1.00  0.00     0.089 N 
HETATM   15  C6  UNL     1      24.777   6.492  48.113  1.00  0.00     0.273 C 
HETATM   16  C5  UNL     1      25.582   7.709  48.261  1.00  0.00     0.045 C 
HETATM   17  C4  UNL     1      26.367   7.611  49.558  1.00  0.00     0.089 C 
HETATM   18  C21 UNL     1      25.297   7.589  50.629  1.00  0.00     0.045 C 
HETATM   19  C20 UNL     1      24.398   6.391  50.486  1.00  0.00     0.273 C 
BRANCH  17  20
HETATM   20  C3  UNL     1      27.186   8.824  49.746  1.00  0.00     0.263 C 
HETATM   21  O2  UNL     1      27.309   9.476  50.788  1.00  0.00    -0.265 OA
BRANCH  20  22
HETATM   22  O1  UNL     1      27.989   9.528  48.886  1.00  0.00    -0.322 OA
BRANCH  22  23
HETATM   23  C2  UNL     1      27.747  10.888  48.573  1.00  0.00     0.174 C 
HETATM   24  C1  UNL     1      28.956  11.760  48.697  1.00  0.00     0.034 C 
ENDBRANCH  22  23
ENDBRANCH  20  22
ENDBRANCH  17  20
ENDBRANCH  13  14
ENDBRANCH   1  13
BRANCH   5  25
HETATM   25  C13 UNL     1      26.152   1.654  53.779  1.00  0.00     0.415 C 
HETATM   26  O3  UNL     1      26.963   1.534  54.715  1.00  0.00    -0.403 OA
ENDBRANCH   5  25
TORSDOF 6
ENDMDL
