MODEL 1
REMARK VINA RESULT:      -8.5      0.000      0.000
REMARK  6 active torsions:
REMARK  status: ('A' for Active; 'I' for Inactive)
REMARK    1  A    between atoms: C2_2  and  C3_3 
REMARK    2  A    between atoms: C3_3  and  C4_5 
REMARK    3  A    between atoms: C7_8  and  N1_9 
REMARK    4  A    between atoms: N1_9  and  C8_10 
REMARK    5  A    between atoms: C17_23  and  C18_24 
REMARK    6  A    between atoms: C18_24  and  N4_25 
ROOT
HETATM    1  C4  UNL     1      22.260   0.795  52.754  1.00  0.00     0.019 A 
HETATM    2  C5  UNL     1      23.532   1.285  52.959  1.00  0.00     0.033 A 
HETATM    3  C6  UNL     1      24.031   1.977  51.882  1.00  0.00     0.040 A 
HETATM    4  C7  UNL     1      25.313   2.551  51.898  1.00  0.00     0.142 A 
HETATM    5  N2  UNL     1      25.835   3.229  50.870  1.00  0.00    -0.224 NA
HETATM    6  C14 UNL     1      25.134   3.399  49.738  1.00  0.00     0.236 A 
HETATM    7  N3  UNL     1      23.878   2.866  49.653  1.00  0.00    -0.241 NA
HETATM    8  C15 UNL     1      23.378   2.190  50.699  1.00  0.00     0.072 A 
HETATM    9  C16 UNL     1      22.116   1.666  50.582  1.00  0.00     0.042 A 
HETATM   10  C17 UNL     1      21.502   0.941  51.615  1.00  0.00    -0.015 A 
ENDROOT
BRANCH   4  11
HETATM   11  N1  UNL     1      26.099   2.415  53.070  1.00  0.00    -0.340 N 
HETATM   12  H7  UNL     1      25.761   3.086  53.817  1.00  0.00     0.167 HD
BRANCH  11  13
HETATM   13  C8  UNL     1      27.185   1.523  53.247  1.00  0.00     0.035 A 
HETATM   14  C9  UNL     1      28.468   1.820  53.710  1.00  0.00     0.032 A 
HETATM   15  C10 UNL     1      29.405   0.825  53.844  1.00  0.00     0.046 A 
HETATM   16  C11 UNL     1      29.061  -0.472  53.514  1.00  0.00     0.138 A 
HETATM   17  F1  UNL     1      30.010  -1.447  53.661  1.00  0.00    -0.204 F 
HETATM   18  C12 UNL     1      27.808  -0.816  53.051  1.00  0.00     0.074 A 
HETATM   19 CL1  UNL     1      27.462  -2.492  52.653  1.00  0.00    -0.081 Cl
HETATM   20  C13 UNL     1      26.883   0.198  52.924  1.00  0.00     0.056 A 
ENDBRANCH  11  13
ENDBRANCH   4  11
BRANCH   1  21
HETATM   21  C3  UNL     1      21.635   0.066  53.846  1.00  0.00     0.159 C 
HETATM   22  O1  UNL     1      20.742   0.434  54.647  1.00  0.00    -0.292 OA
BRANCH  21  23
HETATM   23  C2  UNL     1      21.981  -1.314  54.203  1.00  0.00     0.079 C 
HETATM   24  C1  UNL     1      22.967  -1.374  55.363  1.00  0.00     0.013 C 
ENDBRANCH  21  23
ENDBRANCH   1  21
BRANCH  10  25
HETATM   25  C18 UNL     1      20.141   0.380  51.461  1.00  0.00     0.306 C 
BRANCH  25  26
HETATM   26  N4  UNL     1      19.114   1.291  51.910  1.00  0.00     0.082 N 
HETATM   27  H15 UNL     1      18.340   1.241  51.205  1.00  0.00     0.313 HD
HETATM   28  H16 UNL     1      19.478   2.261  51.894  1.00  0.00     0.313 HD
ENDBRANCH  25  26
ENDBRANCH  10  25
TORSDOF 6
ENDMDL
MODEL 2
REMARK VINA RESULT:      -8.3      2.382      4.083
REMARK  6 active torsions:
REMARK  status: ('A' for Active; 'I' for Inactive)
REMARK    1  A    between atoms: C2_2  and  C3_3 
REMARK    2  A    between atoms: C3_3  and  C4_5 
REMARK    3  A    between atoms: C7_8  and  N1_9 
REMARK    4  A    between atoms: N1_9  and  C8_10 
REMARK    5  A    between atoms: C17_23  and  C18_24 
REMARK    6  A    between atoms: C18_24  and  N4_25 
ROOT
HETATM    1  C4  UNL     1      21.118   0.732  51.653  1.00  0.00     0.019 A 
HETATM    2  C5  UNL     1      22.442   0.673  52.030  1.00  0.00     0.033 A 
HETATM    3  C6  UNL     1      22.652  -0.061  53.173  1.00  0.00     0.040 A 
HETATM    4  C7  UNL     1      23.936  -0.236  53.717  1.00  0.00     0.142 A 
HETATM    5  N2  UNL     1      24.181  -0.940  54.827  1.00  0.00    -0.224 NA
HETATM    6  C14 UNL     1      23.179  -1.533  55.495  1.00  0.00     0.236 A 
HETATM    7  N3  UNL     1      21.903  -1.404  55.021  1.00  0.00    -0.241 NA
HETATM    8  C15 UNL     1      21.684  -0.692  53.904  1.00  0.00     0.072 A 
HETATM    9  C16 UNL     1      20.393  -0.579  53.456  1.00  0.00     0.042 A 
HETATM   10  C17 UNL     1      20.057   0.144  52.302  1.00  0.00    -0.015 A 
ENDROOT
BRANCH   4  11
HETATM   11  N1  UNL     1      25.038   0.357  53.051  1.00  0.00    -0.340 N 
HETATM   12  H7  UNL     1      24.704   1.128  52.405  1.00  0.00     0.167 HD
BRANCH  11  13
HETATM   13  C8  UNL     1      26.398  -0.008  53.202  1.00  0.00     0.035 A 
HETATM   14  C9  UNL     1      26.995  -1.229  52.882  1.00  0.00     0.032 A 
HETATM   15  C10 UNL     1      28.343  -1.412  53.071  1.00  0.00     0.046 A 
HETATM   16  C11 UNL     1      29.098  -0.375  53.584  1.00  0.00     0.138 A 
HETATM   17  F1  UNL     1      30.440  -0.579  53.759  1.00  0.00    -0.204 F 
HETATM   18  C12 UNL     1      28.555   0.849  53.916  1.00  0.00     0.074 A 
HETATM   19 CL1  UNL     1      29.593   2.110  54.565  1.00  0.00    -0.081 Cl
HETATM   20  C13 UNL     1      27.200   1.012  53.718  1.00  0.00     0.056 A 
ENDBRANCH  11  13
ENDBRANCH   4  11
BRANCH   1  21
HETATM   21  C3  UNL     1      20.795   1.468  50.442  1.00  0.00     0.159 C 
HETATM   22  O1  UNL     1      20.325   2.624  50.310  1.00  0.00    -0.292 OA
BRANCH  21  23
HETATM   23  C2  UNL     1      20.982   0.931  49.090  1.00  0.00     0.079 C 
HETATM   24  C1  UNL     1      22.030   1.712  48.306  1.00  0.00     0.013 C 
ENDBRANCH  21  23
ENDBRANCH   1  21
BRANCH  10  25
HETATM   25  C18 UNL     1      18.653   0.255  51.843  1.00  0.00     0.306 C 
BRANCH  25  26
HETATM   26  N4  UNL     1      17.859  -0.894  52.211  1.00  0.00     0.082 N 
HETATM   27  H15 UNL     1      17.628  -1.396  51.322  1.00  0.00     0.313 HD
HETATM   28  H16 UNL     1      16.962  -0.579  52.624  1.00  0.00     0.313 HD
ENDBRANCH  25  26
ENDBRANCH  10  25
TORSDOF 6
ENDMDL
MODEL 3
REMARK VINA RESULT:      -8.0      3.754      5.695
REMARK  6 active torsions:
REMARK  status: ('A' for Active; 'I' for Inactive)
REMARK    1  A    between atoms: C2_2  and  C3_3 
REMARK    2  A    between atoms: C3_3  and  C4_5 
REMARK    3  A    between atoms: C7_8  and  N1_9 
REMARK    4  A    between atoms: N1_9  and  C8_10 
REMARK    5  A    between atoms: C17_23  and  C18_24 
REMARK    6  A    between atoms: C18_24  and  N4_25 
ROOT
HETATM    1  C4  UNL     1      24.263  -0.031  53.480  1.00  0.00     0.019 A 
HETATM    2  C5  UNL     1      24.799   0.788  52.509  1.00  0.00     0.033 A 
HETATM    3  C6  UNL     1      26.054   1.254  52.819  1.00  0.00     0.040 A 
HETATM    4  C7  UNL     1      26.764   2.104  51.955  1.00  0.00     0.142 A 
HETATM    5  N2  UNL     1      27.985   2.580  52.222  1.00  0.00    -0.224 NA
HETATM    6  C14 UNL     1      28.610   2.257  53.364  1.00  0.00     0.236 A 
HETATM    7  N3  UNL     1      27.976   1.433  54.253  1.00  0.00    -0.241 NA
HETATM    8  C15 UNL     1      26.750   0.969  53.961  1.00  0.00     0.072 A 
HETATM    9  C16 UNL     1      26.140   0.146  54.873  1.00  0.00     0.042 A 
HETATM   10  C17 UNL     1      24.861  -0.390  54.666  1.00  0.00    -0.015 A 
ENDROOT
BRANCH   4  11
HETATM   11  N1  UNL     1      26.162   2.473  50.725  1.00  0.00    -0.340 N 
HETATM   12  H7  UNL     1      25.689   1.634  50.283  1.00  0.00     0.167 HD
BRANCH  11  13
HETATM   13  C8  UNL     1      26.176   3.765  50.145  1.00  0.00     0.035 A 
HETATM   14  C9  UNL     1      27.023   4.243  49.143  1.00  0.00     0.032 A 
HETATM   15  C10 UNL     1      26.887   5.526  48.674  1.00  0.00     0.046 A 
HETATM   16  C11 UNL     1      25.902   6.337  49.206  1.00  0.00     0.138 A 
HETATM   17  F1  UNL     1      25.782   7.610  48.719  1.00  0.00    -0.204 F 
HETATM   18  C12 UNL     1      25.042   5.912  50.197  1.00  0.00     0.074 A 
HETATM   19 CL1  UNL     1      23.822   7.014  50.816  1.00  0.00    -0.081 Cl
HETATM   20  C13 UNL     1      25.196   4.620  50.654  1.00  0.00     0.056 A 
ENDBRANCH  11  13
ENDBRANCH   4  11
BRANCH   1  21
HETATM   21  C3  UNL     1      22.945  -0.593  53.235  1.00  0.00     0.159 C 
HETATM   22  O1  UNL     1      22.619  -1.769  52.944  1.00  0.00    -0.292 OA
BRANCH  21  23
HETATM   23  C2  UNL     1      21.706   0.187  53.294  1.00  0.00     0.079 C 
HETATM   24  C1  UNL     1      21.074   0.361  51.918  1.00  0.00     0.013 C 
ENDBRANCH  21  23
ENDBRANCH   1  21
BRANCH  10  25
HETATM   25  C18 UNL     1      24.222  -1.271  55.671  1.00  0.00     0.306 C 
BRANCH  25  26
HETATM   26  N4  UNL     1      25.055  -1.479  56.832  1.00  0.00     0.082 N 
HETATM   27  H15 UNL     1      25.564  -2.381  56.677  1.00  0.00     0.313 HD
HETATM   28  H16 UNL     1      24.459  -1.606  57.670  1.00  0.00     0.313 HD
ENDBRANCH  25  26
ENDBRANCH  10  25
TORSDOF 6
ENDMDL
MODEL 4
REMARK VINA RESULT:      -7.9      4.259      6.529
REMARK  6 active torsions:
REMARK  status: ('A' for Active; 'I' for Inactive)
REMARK    1  A    between atoms: C2_2  and  C3_3 
REMARK    2  A    between atoms: C3_3  and  C4_5 
REMARK    3  A    between atoms: C7_8  and  N1_9 
REMARK    4  A    between atoms: N1_9  and  C8_10 
REMARK    5  A    between atoms: C17_23  and  C18_24 
REMARK    6  A    between atoms: C18_24  and  N4_25 
ROOT
HETATM    1  C4  UNL     1      27.216   1.579  53.204  1.00  0.00     0.019 A 
HETATM    2  C5  UNL     1      27.132   2.201  51.977  1.00  0.00     0.033 A 
HETATM    3  C6  UNL     1      25.853   2.244  51.474  1.00  0.00     0.040 A 
HETATM    4  C7  UNL     1      25.564   2.836  50.233  1.00  0.00     0.142 A 
HETATM    5  N2  UNL     1      24.336   2.896  49.708  1.00  0.00    -0.224 NA
HETATM    6  C14 UNL     1      23.287   2.376  50.364  1.00  0.00     0.236 A 
HETATM    7  N3  UNL     1      23.496   1.783  51.578  1.00  0.00    -0.241 NA
HETATM    8  C15 UNL     1      24.739   1.736  52.083  1.00  0.00     0.072 A 
HETATM    9  C16 UNL     1      24.916   1.133  53.302  1.00  0.00     0.042 A 
HETATM   10  C17 UNL     1      26.174   1.030  53.915  1.00  0.00    -0.015 A 
ENDROOT
BRANCH   4  11
HETATM   11  N1  UNL     1      26.629   3.414  49.497  1.00  0.00    -0.340 N 
HETATM   12  H7  UNL     1      27.338   2.671  49.234  1.00  0.00     0.167 HD
BRANCH  11  13
HETATM   13  C8  UNL     1      26.757   4.781  49.150  1.00  0.00     0.035 A 
HETATM   14  C9  UNL     1      25.841   5.810  49.377  1.00  0.00     0.032 A 
HETATM   15  C10 UNL     1      26.132   7.096  48.995  1.00  0.00     0.046 A 
HETATM   16  C11 UNL     1      27.342   7.358  48.382  1.00  0.00     0.138 A 
HETATM   17  F1  UNL     1      27.613   8.648  48.014  1.00  0.00    -0.204 F 
HETATM   18  C12 UNL     1      28.280   6.377  48.134  1.00  0.00     0.074 A 
HETATM   19 CL1  UNL     1      29.792   6.803  47.346  1.00  0.00    -0.081 Cl
HETATM   20  C13 UNL     1      27.967   5.093  48.526  1.00  0.00     0.056 A 
ENDBRANCH  11  13
ENDBRANCH   4  11
BRANCH   1  21
HETATM   21  C3  UNL     1      28.525   1.502  53.832  1.00  0.00     0.159 C 
HETATM   22  O1  UNL     1      29.085   2.307  54.615  1.00  0.00    -0.292 OA
BRANCH  21  23
HETATM   23  C2  UNL     1      29.459   0.390  53.629  1.00  0.00     0.079 C 
HETATM   24  C1  UNL     1      28.743  -0.886  53.204  1.00  0.00     0.013 C 
ENDBRANCH  21  23
ENDBRANCH   1  21
BRANCH  10  25
HETATM   25  C18 UNL     1      26.339   0.368  55.230  1.00  0.00     0.306 C 
BRANCH  25  26
HETATM   26  N4  UNL     1      25.615  -0.880  55.314  1.00  0.00     0.082 N 
HETATM   27  H15 UNL     1      25.350  -1.139  54.334  1.00  0.00     0.313 HD
HETATM   28  H16 UNL     1      24.734  -0.736  55.839  1.00  0.00     0.313 HD
ENDBRANCH  25  26
ENDBRANCH  10  25
TORSDOF 6
ENDMDL
MODEL 5
REMARK VINA RESULT:      -7.9      2.580      4.702
REMARK  6 active torsions:
REMARK  status: ('A' for Active; 'I' for Inactive)
REMARK    1  A    between atoms: C2_2  and  C3_3 
REMARK    2  A    between atoms: C3_3  and  C4_5 
REMARK    3  A    between atoms: C7_8  and  N1_9 
REMARK    4  A    between atoms: N1_9  and  C8_10 
REMARK    5  A    between atoms: C17_23  and  C18_24 
REMARK    6  A    between atoms: C18_24  and  N4_25 
ROOT
HETATM    1  C4  UNL     1      24.359   3.363  50.256  1.00  0.00     0.019 A 
HETATM    2  C5  UNL     1      24.499   2.573  51.377  1.00  0.00     0.033 A 
HETATM    3  C6  UNL     1      23.471   1.676  51.544  1.00  0.00     0.040 A 
HETATM    4  C7  UNL     1      23.433   0.784  52.630  1.00  0.00     0.142 A 
HETATM    5  N2  UNL     1      22.451  -0.101  52.828  1.00  0.00    -0.224 NA
HETATM    6  C14 UNL     1      21.421  -0.182  51.972  1.00  0.00     0.236 A 
HETATM    7  N3  UNL     1      21.393   0.657  50.892  1.00  0.00    -0.241 NA
HETATM    8  C15 UNL     1      22.392   1.536  50.716  1.00  0.00     0.072 A 
HETATM    9  C16 UNL     1      22.333   2.365  49.624  1.00  0.00     0.042 A 
HETATM   10  C17 UNL     1      23.324   3.320  49.350  1.00  0.00    -0.015 A 
ENDROOT
BRANCH   4  11
HETATM   11  N1  UNL     1      24.500   0.814  53.564  1.00  0.00    -0.340 N 
HETATM   12  H7  UNL     1      24.228   1.387  54.412  1.00  0.00     0.167 HD
BRANCH  11  13
HETATM   13  C8  UNL     1      25.758   0.181  53.412  1.00  0.00     0.035 A 
HETATM   14  C9  UNL     1      26.027  -1.055  52.821  1.00  0.00     0.032 A 
HETATM   15  C10 UNL     1      27.318  -1.517  52.735  1.00  0.00     0.046 A 
HETATM   16  C11 UNL     1      28.344  -0.743  53.241  1.00  0.00     0.138 A 
HETATM   17  F1  UNL     1      29.622  -1.221  53.139  1.00  0.00    -0.204 F 
HETATM   18  C12 UNL     1      28.130   0.484  53.834  1.00  0.00     0.074 A 
HETATM   19 CL1  UNL     1      29.498   1.398  54.452  1.00  0.00    -0.081 Cl
HETATM   20  C13 UNL     1      26.827   0.928  53.910  1.00  0.00     0.056 A 
ENDBRANCH  11  13
ENDBRANCH   4  11
BRANCH   1  21
HETATM   21  C3  UNL     1      25.408   4.330  49.979  1.00  0.00     0.159 C 
HETATM   22  O1  UNL     1      25.421   5.571  50.166  1.00  0.00    -0.292 OA
BRANCH  21  23
HETATM   23  C2  UNL     1      26.706   3.976  49.396  1.00  0.00     0.079 C 
HETATM   24  C1  UNL     1      27.341   5.152  48.663  1.00  0.00     0.013 C 
ENDBRANCH  21  23
ENDBRANCH   1  21
BRANCH  10  25
HETATM   25  C18 UNL     1      23.234   4.207  48.168  1.00  0.00     0.306 C 
BRANCH  25  26
HETATM   26  N4  UNL     1      22.594   5.466  48.470  1.00  0.00     0.082 N 
HETATM   27  H15 UNL     1      22.514   5.986  47.565  1.00  0.00     0.313 HD
HETATM   28  H16 UNL     1      23.205   6.027  49.091  1.00  0.00     0.313 HD
ENDBRANCH  25  26
ENDBRANCH  10  25
TORSDOF 6
ENDMDL
MODEL 6
REMARK VINA RESULT:      -7.7      4.268      6.209
REMARK  6 active torsions:
REMARK  status: ('A' for Active; 'I' for Inactive)
REMARK    1  A    between atoms: C2_2  and  C3_3 
REMARK    2  A    between atoms: C3_3  and  C4_5 
REMARK    3  A    between atoms: C7_8  and  N1_9 
REMARK    4  A    between atoms: N1_9  and  C8_10 
REMARK    5  A    between atoms: C17_23  and  C18_24 
REMARK    6  A    between atoms: C18_24  and  N4_25 
ROOT
HETATM    1  C4  UNL     1      24.764   1.939  53.237  1.00  0.00     0.019 A 
HETATM    2  C5  UNL     1      24.541   3.261  52.916  1.00  0.00     0.033 A 
HETATM    3  C6  UNL     1      23.266   3.506  52.464  1.00  0.00     0.040 A 
HETATM    4  C7  UNL     1      22.847   4.792  52.086  1.00  0.00     0.142 A 
HETATM    5  N2  UNL     1      21.617   5.070  51.641  1.00  0.00    -0.224 NA
HETATM    6  C14 UNL     1      20.695   4.101  51.531  1.00  0.00     0.236 A 
HETATM    7  N3  UNL     1      21.035   2.824  51.882  1.00  0.00    -0.241 NA
HETATM    8  C15 UNL     1      22.277   2.572  52.326  1.00  0.00     0.072 A 
HETATM    9  C16 UNL     1      22.587   1.280  52.668  1.00  0.00     0.042 A 
HETATM   10  C17 UNL     1      23.855   0.911  53.141  1.00  0.00    -0.015 A 
ENDROOT
BRANCH   4  11
HETATM   11  N1  UNL     1      23.773   5.861  52.190  1.00  0.00    -0.340 N 
HETATM   12  H7  UNL     1      24.030   6.025  53.205  1.00  0.00     0.167 HD
BRANCH  11  13
HETATM   13  C8  UNL     1      24.293   6.620  51.113  1.00  0.00     0.035 A 
HETATM   14  C9  UNL     1      23.929   7.909  50.722  1.00  0.00     0.032 A 
HETATM   15  C10 UNL     1      24.554   8.515  49.659  1.00  0.00     0.046 A 
HETATM   16  C11 UNL     1      25.546   7.831  48.984  1.00  0.00     0.138 A 
HETATM   17  F1  UNL     1      26.159   8.456  47.932  1.00  0.00    -0.204 F 
HETATM   18  C12 UNL     1      25.942   6.556  49.331  1.00  0.00     0.074 A 
HETATM   19 CL1  UNL     1      27.212   5.762  48.412  1.00  0.00    -0.081 Cl
HETATM   20  C13 UNL     1      25.301   5.967  50.401  1.00  0.00     0.056 A 
ENDBRANCH  11  13
ENDBRANCH   4  11
BRANCH   1  21
HETATM   21  C3  UNL     1      26.078   1.582  53.745  1.00  0.00     0.159 C 
HETATM   22  O1  UNL     1      26.436   1.308  54.916  1.00  0.00    -0.292 OA
BRANCH  21  23
HETATM   23  C2  UNL     1      27.275   1.482  52.903  1.00  0.00     0.079 C 
HETATM   24  C1  UNL     1      28.414   2.351  53.425  1.00  0.00     0.013 C 
ENDBRANCH  21  23
ENDBRANCH   1  21
BRANCH  10  25
HETATM   25  C18 UNL     1      24.166  -0.493  53.497  1.00  0.00     0.306 C 
BRANCH  25  26
HETATM   26  N4  UNL     1      23.279  -1.015  54.510  1.00  0.00     0.082 N 
HETATM   27  H15 UNL     1      22.393  -1.287  54.021  1.00  0.00     0.313 HD
HETATM   28  H16 UNL     1      23.037  -0.265  55.182  1.00  0.00     0.313 HD
ENDBRANCH  25  26
ENDBRANCH  10  25
TORSDOF 6
ENDMDL
MODEL 7
REMARK VINA RESULT:      -7.7      3.861      5.902
REMARK  6 active torsions:
REMARK  status: ('A' for Active; 'I' for Inactive)
REMARK    1  A    between atoms: C2_2  and  C3_3 
REMARK    2  A    between atoms: C3_3  and  C4_5 
REMARK    3  A    between atoms: C7_8  and  N1_9 
REMARK    4  A    between atoms: N1_9  and  C8_10 
REMARK    5  A    between atoms: C17_23  and  C18_24 
REMARK    6  A    between atoms: C18_24  and  N4_25 
ROOT
HETATM    1  C4  UNL     1      25.372   0.426  53.337  1.00  0.00     0.019 A 
HETATM    2  C5  UNL     1      25.182   1.264  52.259  1.00  0.00     0.033 A 
HETATM    3  C6  UNL     1      23.872   1.339  51.851  1.00  0.00     0.040 A 
HETATM    4  C7  UNL     1      23.478   2.140  50.766  1.00  0.00     0.142 A 
HETATM    5  N2  UNL     1      22.215   2.239  50.337  1.00  0.00    -0.224 NA
HETATM    6  C14 UNL     1      21.233   1.555  50.944  1.00  0.00     0.236 A 
HETATM    7  N3  UNL     1      21.545   0.755  52.008  1.00  0.00    -0.241 NA
HETATM    8  C15 UNL     1      22.820   0.674  52.418  1.00  0.00     0.072 A 
HETATM    9  C16 UNL     1      23.101  -0.139  53.486  1.00  0.00     0.042 A 
HETATM   10  C17 UNL     1      24.401  -0.296  53.992  1.00  0.00    -0.015 A 
ENDROOT
BRANCH   4  11
HETATM   11  N1  UNL     1      24.469   2.896  50.090  1.00  0.00    -0.340 N 
HETATM   12  H7  UNL     1      25.039   2.268  49.455  1.00  0.00     0.167 HD
BRANCH  11  13
HETATM   13  C8  UNL     1      24.692   4.289  50.226  1.00  0.00     0.035 A 
HETATM   14  C9  UNL     1      24.072   5.170  51.114  1.00  0.00     0.032 A 
HETATM   15  C10 UNL     1      24.423   6.498  51.132  1.00  0.00     0.046 A 
HETATM   16  C11 UNL     1      25.395   6.948  50.259  1.00  0.00     0.138 A 
HETATM   17  F1  UNL     1      25.732   8.274  50.298  1.00  0.00    -0.204 F 
HETATM   18  C12 UNL     1      26.035   6.118  49.363  1.00  0.00     0.074 A 
HETATM   19 CL1  UNL     1      27.258   6.781  48.288  1.00  0.00    -0.081 Cl
HETATM   20  C13 UNL     1      25.668   4.789  49.362  1.00  0.00     0.056 A 
ENDBRANCH  11  13
ENDBRANCH   4  11
BRANCH   1  21
HETATM   21  C3  UNL     1      26.723   0.295  53.858  1.00  0.00     0.159 C 
HETATM   22  O1  UNL     1      27.267   0.881  54.825  1.00  0.00    -0.292 OA
BRANCH  21  23
HETATM   23  C2  UNL     1      27.729  -0.607  53.289  1.00  0.00     0.079 C 
HETATM   24  C1  UNL     1      29.123  -0.324  53.835  1.00  0.00     0.013 C 
ENDBRANCH  21  23
ENDBRANCH   1  21
BRANCH  10  25
HETATM   25  C18 UNL     1      24.678  -1.185  55.143  1.00  0.00     0.306 C 
BRANCH  25  26
HETATM   26  N4  UNL     1      23.477  -1.568  55.847  1.00  0.00     0.082 N 
HETATM   27  H15 UNL     1      22.691  -1.029  55.414  1.00  0.00     0.313 HD
HETATM   28  H16 UNL     1      23.543  -1.269  56.837  1.00  0.00     0.313 HD
ENDBRANCH  25  26
ENDBRANCH  10  25
TORSDOF 6
ENDMDL
MODEL 8
REMARK VINA RESULT:      -7.6      7.550     10.887
REMARK  6 active torsions:
REMARK  status: ('A' for Active; 'I' for Inactive)
REMARK    1  A    between atoms: C2_2  and  C3_3 
REMARK    2  A    between atoms: C3_3  and  C4_5 
REMARK    3  A    between atoms: C7_8  and  N1_9 
REMARK    4  A    between atoms: N1_9  and  C8_10 
REMARK    5  A    between atoms: C17_23  and  C18_24 
REMARK    6  A    between atoms: C18_24  and  N4_25 
ROOT
HETATM    1  C4  UNL     1      32.738   5.303  47.875  1.00  0.00     0.019 A 
HETATM    2  C5  UNL     1      31.391   5.570  47.762  1.00  0.00     0.033 A 
HETATM    3  C6  UNL     1      31.028   6.785  48.293  1.00  0.00     0.040 A 
HETATM    4  C7  UNL     1      29.697   7.235  48.275  1.00  0.00     0.142 A 
HETATM    5  N2  UNL     1      29.305   8.409  48.783  1.00  0.00    -0.224 NA
HETATM    6  C14 UNL     1      30.193   9.238  49.352  1.00  0.00     0.236 A 
HETATM    7  N3  UNL     1      31.507   8.862  49.405  1.00  0.00    -0.241 NA
HETATM    8  C15 UNL     1      31.875   7.679  48.887  1.00  0.00     0.072 A 
HETATM    9  C16 UNL     1      33.200   7.331  48.958  1.00  0.00     0.042 A 
HETATM   10  C17 UNL     1      33.687   6.117  48.450  1.00  0.00    -0.015 A 
ENDROOT
BRANCH   4  11
HETATM   11  N1  UNL     1      28.713   6.409  47.677  1.00  0.00    -0.340 N 
HETATM   12  H7  UNL     1      29.011   6.134  46.698  1.00  0.00     0.167 HD
BRANCH  11  13
HETATM   13  C8  UNL     1      27.497   5.995  48.274  1.00  0.00     0.035 A 
HETATM   14  C9  UNL     1      26.286   6.688  48.314  1.00  0.00     0.032 A 
HETATM   15  C10 UNL     1      25.187   6.129  48.920  1.00  0.00     0.046 A 
HETATM   16  C11 UNL     1      25.297   4.875  49.489  1.00  0.00     0.138 A 
HETATM   17  F1  UNL     1      24.188   4.337  50.082  1.00  0.00    -0.204 F 
HETATM   18  C12 UNL     1      26.471   4.151  49.476  1.00  0.00     0.074 A 
HETATM   19 CL1  UNL     1      26.518   2.564  50.228  1.00  0.00    -0.081 Cl
HETATM   20  C13 UNL     1      27.562   4.731  48.863  1.00  0.00     0.056 A 
ENDBRANCH  11  13
ENDBRANCH   4  11
BRANCH   1  21
HETATM   21  C3  UNL     1      33.225   4.049  47.323  1.00  0.00     0.159 C 
HETATM   22  O1  UNL     1      33.478   2.965  47.901  1.00  0.00    -0.292 OA
BRANCH  21  23
HETATM   23  C2  UNL     1      33.516   3.848  45.900  1.00  0.00     0.079 C 
HETATM   24  C1  UNL     1      34.994   3.571  45.653  1.00  0.00     0.013 C 
ENDBRANCH  21  23
ENDBRANCH   1  21
BRANCH  10  25
HETATM   25  C18 UNL     1      35.121   5.762  48.544  1.00  0.00     0.306 C 
BRANCH  25  26
HETATM   26  N4  UNL     1      35.408   4.919  49.682  1.00  0.00     0.082 N 
HETATM   27  H15 UNL     1      35.036   3.968  49.451  1.00  0.00     0.313 HD
HETATM   28  H16 UNL     1      34.882   5.259  50.508  1.00  0.00     0.313 HD
ENDBRANCH  25  26
ENDBRANCH  10  25
TORSDOF 6
ENDMDL
MODEL 9
REMARK VINA RESULT:      -7.6      4.134      6.996
REMARK  6 active torsions:
REMARK  status: ('A' for Active; 'I' for Inactive)
REMARK    1  A    between atoms: C2_2  and  C3_3 
REMARK    2  A    between atoms: C3_3  and  C4_5 
REMARK    3  A    between atoms: C7_8  and  N1_9 
REMARK    4  A    between atoms: N1_9  and  C8_10 
REMARK    5  A    between atoms: C17_23  and  C18_24 
REMARK    6  A    between atoms: C18_24  and  N4_25 
ROOT
HETATM    1  C4  UNL     1      25.001   0.665  53.292  1.00  0.00     0.019 A 
HETATM    2  C5  UNL     1      23.806   0.582  52.610  1.00  0.00     0.033 A 
HETATM    3  C6  UNL     1      23.237   1.807  52.354  1.00  0.00     0.040 A 
HETATM    4  C7  UNL     1      22.016   1.929  51.670  1.00  0.00     0.142 A 
HETATM    5  N2  UNL     1      21.430   3.102  51.403  1.00  0.00    -0.224 NA
HETATM    6  C14 UNL     1      22.001   4.253  51.788  1.00  0.00     0.236 A 
HETATM    7  N3  UNL     1      23.191   4.208  52.459  1.00  0.00    -0.241 NA
HETATM    8  C15 UNL     1      23.759   3.019  52.714  1.00  0.00     0.072 A 
HETATM    9  C16 UNL     1      24.952   3.007  53.391  1.00  0.00     0.042 A 
HETATM   10  C17 UNL     1      25.625   1.818  53.709  1.00  0.00    -0.015 A 
ENDROOT
BRANCH   4  11
HETATM   11  N1  UNL     1      21.369   0.748  51.227  1.00  0.00    -0.340 N 
HETATM   12  H7  UNL     1      21.866   0.355  50.377  1.00  0.00     0.167 HD
BRANCH  11  13
HETATM   13  C8  UNL     1      20.223   0.156  51.812  1.00  0.00     0.035 A 
HETATM   14  C9  UNL     1      20.121  -0.456  53.063  1.00  0.00     0.032 A 
HETATM   15  C10 UNL     1      18.919  -0.963  53.491  1.00  0.00     0.046 A 
HETATM   16  C11 UNL     1      17.814  -0.861  52.668  1.00  0.00     0.138 A 
HETATM   17  F1  UNL     1      16.626  -1.369  53.118  1.00  0.00    -0.204 F 
HETATM   18  C12 UNL     1      17.863  -0.267  51.424  1.00  0.00     0.074 A 
HETATM   19 CL1  UNL     1      16.407  -0.185  50.445  1.00  0.00    -0.081 Cl
HETATM   20  C13 UNL     1      19.080   0.236  51.014  1.00  0.00     0.056 A 
ENDBRANCH  11  13
ENDBRANCH   4  11
BRANCH   1  21
HETATM   21  C3  UNL     1      25.692  -0.578  53.592  1.00  0.00     0.159 C 
HETATM   22  O1  UNL     1      25.717  -1.243  54.657  1.00  0.00    -0.292 OA
BRANCH  21  23
HETATM   23  C2  UNL     1      26.528  -1.296  52.625  1.00  0.00     0.079 C 
HETATM   24  C1  UNL     1      28.010  -1.204  52.972  1.00  0.00     0.013 C 
ENDBRANCH  21  23
ENDBRANCH   1  21
BRANCH  10  25
HETATM   25  C18 UNL     1      26.909   1.833  54.446  1.00  0.00     0.306 C 
BRANCH  25  26
HETATM   26  N4  UNL     1      27.924   2.608  53.772  1.00  0.00     0.082 N 
HETATM   27  H15 UNL     1      27.508   2.920  52.863  1.00  0.00     0.313 HD
HETATM   28  H16 UNL     1      28.732   2.000  53.544  1.00  0.00     0.313 HD
ENDBRANCH  25  26
ENDBRANCH  10  25
TORSDOF 6
ENDMDL
