MODEL 1
REMARK VINA RESULT:      -8.5      0.000      0.000
REMARK  3 active torsions:
REMARK  status: ('A' for Active; 'I' for Inactive)
REMARK    1  A    between atoms: C6_8  and  N2_9 
REMARK    2  A    between atoms: N2_9  and  C7_10 
REMARK    3  A    between atoms: C7_10  and  C8_11 
ROOT
HETATM    1  N2  UNL     1      25.290   1.326  52.928  1.00  0.00     0.102 N 
HETATM    2  H4  UNL     1      25.263   0.866  53.874  1.00  0.00     0.317 HD
ENDROOT
BRANCH   1   3
HETATM    3  C6  UNL     1      26.516   0.965  52.270  1.00  0.00     0.303 A 
HETATM    4  C1  UNL     1      27.750   1.045  53.041  1.00  0.00     0.076 A 
HETATM    5 CL1  UNL     1      28.595   2.468  53.623  1.00  0.00    -0.084 Cl
HETATM    6  C2  UNL     1      27.980  -0.257  53.140  1.00  0.00     0.062 A 
HETATM    7  N1  UNL     1      28.568  -1.509  53.463  1.00  0.00    -0.363 N 
HETATM    8  C5  UNL     1      26.771  -0.499  52.364  1.00  0.00     0.021 A 
HETATM    9  C3  UNL     1      27.708  -2.483  52.881  1.00  0.00     0.101 A 
HETATM   10  H1  UNL     1      29.428  -1.746  53.999  1.00  0.00     0.165 HD
HETATM   11  C4  UNL     1      26.764  -1.798  52.300  1.00  0.00     0.003 A 
ENDBRANCH   1   3
BRANCH   1  12
HETATM   12  C7  UNL     1      24.111   0.891  52.218  1.00  0.00     0.310 C 
BRANCH  12  13
HETATM   13  C8  UNL     1      23.220   0.118  53.112  1.00  0.00    -0.019 A 
HETATM   14  C9  UNL     1      23.591  -0.558  54.244  1.00  0.00     0.010 A 
HETATM   15  C10 UNL     1      22.682  -1.255  55.018  1.00  0.00     0.002 A 
HETATM   16  C11 UNL     1      21.344  -1.252  54.602  1.00  0.00     0.012 A 
HETATM   17  C12 UNL     1      20.962  -0.576  53.463  1.00  0.00    -0.025 A 
HETATM   18  C13 UNL     1      19.631  -0.579  53.056  1.00  0.00     0.012 A 
HETATM   19  C17 UNL     1      21.891   0.127  52.689  1.00  0.00    -0.018 A 
HETATM   20  C14 UNL     1      19.203   0.092  51.910  1.00  0.00     0.001 A 
HETATM   21  C15 UNL     1      20.142   0.781  51.157  1.00  0.00     0.001 A 
HETATM   22  C16 UNL     1      21.437   0.769  51.578  1.00  0.00     0.013 A 
ENDBRANCH  12  13
ENDBRANCH   1  12
TORSDOF 3
ENDMDL
MODEL 2
REMARK VINA RESULT:      -8.4      2.142      6.604
REMARK  3 active torsions:
REMARK  status: ('A' for Active; 'I' for Inactive)
REMARK    1  A    between atoms: C6_8  and  N2_9 
REMARK    2  A    between atoms: N2_9  and  C7_10 
REMARK    3  A    between atoms: C7_10  and  C8_11 
ROOT
HETATM    1  N2  UNL     1      24.388   0.787  53.194  1.00  0.00     0.102 N 
HETATM    2  H4  UNL     1      23.747   1.601  53.015  1.00  0.00     0.317 HD
ENDROOT
BRANCH   1   3
HETATM    3  C6  UNL     1      23.610  -0.422  53.215  1.00  0.00     0.303 A 
HETATM    4  C1  UNL     1      23.057  -0.853  54.493  1.00  0.00     0.076 A 
HETATM    5 CL1  UNL     1      23.897  -1.485  55.897  1.00  0.00    -0.084 Cl
HETATM    6  C2  UNL     1      21.783  -0.604  54.227  1.00  0.00     0.062 A 
HETATM    7  N1  UNL     1      20.372  -0.487  54.342  1.00  0.00    -0.363 N 
HETATM    8  C5  UNL     1      22.179  -0.151  52.900  1.00  0.00     0.021 A 
HETATM    9  C3  UNL     1      19.941   0.034  53.089  1.00  0.00     0.101 A 
HETATM   10  H1  UNL     1      19.726  -0.709  55.128  1.00  0.00     0.165 HD
HETATM   11  C4  UNL     1      21.029   0.166  52.384  1.00  0.00     0.003 A 
ENDBRANCH   1   3
BRANCH   1  12
HETATM   12  C7  UNL     1      25.388   0.804  52.153  1.00  0.00     0.310 C 
BRANCH  12  13
HETATM   13  C8  UNL     1      26.735   1.013  52.729  1.00  0.00    -0.019 A 
HETATM   14  C9  UNL     1      27.285   2.211  53.100  1.00  0.00     0.010 A 
HETATM   15  C10 UNL     1      28.558   2.306  53.631  1.00  0.00     0.002 A 
HETATM   16  C11 UNL     1      29.285   1.117  53.783  1.00  0.00     0.012 A 
HETATM   17  C12 UNL     1      28.739  -0.094  53.412  1.00  0.00    -0.025 A 
HETATM   18  C13 UNL     1      29.468  -1.270  53.565  1.00  0.00     0.012 A 
HETATM   19  C17 UNL     1      27.450  -0.177  52.876  1.00  0.00    -0.018 A 
HETATM   20  C14 UNL     1      28.954  -2.515  53.202  1.00  0.00     0.001 A 
HETATM   21  C15 UNL     1      27.673  -2.573  52.671  1.00  0.00     0.001 A 
HETATM   22  C16 UNL     1      26.982  -1.407  52.533  1.00  0.00     0.013 A 
ENDBRANCH  12  13
ENDBRANCH   1  12
TORSDOF 3
ENDMDL
MODEL 3
REMARK VINA RESULT:      -8.0      3.885      5.433
REMARK  3 active torsions:
REMARK  status: ('A' for Active; 'I' for Inactive)
REMARK    1  A    between atoms: C6_8  and  N2_9 
REMARK    2  A    between atoms: N2_9  and  C7_10 
REMARK    3  A    between atoms: C7_10  and  C8_11 
ROOT
HETATM    1  N2  UNL     1      24.461   4.334  51.465  1.00  0.00     0.102 N 
HETATM    2  H4  UNL     1      25.436   4.067  51.756  1.00  0.00     0.317 HD
ENDROOT
BRANCH   1   3
HETATM    3  C6  UNL     1      24.525   5.036  50.212  1.00  0.00     0.303 A 
HETATM    4  C1  UNL     1      24.943   6.431  50.235  1.00  0.00     0.076 A 
HETATM    5 CL1  UNL     1      24.084   7.827  50.861  1.00  0.00    -0.084 Cl
HETATM    6  C2  UNL     1      26.125   6.271  49.658  1.00  0.00     0.062 A 
HETATM    7  N1  UNL     1      27.407   6.524  49.100  1.00  0.00    -0.363 N 
HETATM    8  C5  UNL     1      25.847   4.845  49.551  1.00  0.00     0.021 A 
HETATM    9  C3  UNL     1      27.880   5.253  48.667  1.00  0.00     0.101 A 
HETATM   10  H1  UNL     1      27.948   7.407  48.994  1.00  0.00     0.165 HD
HETATM   11  C4  UNL     1      26.926   4.417  48.966  1.00  0.00     0.003 A 
ENDBRANCH   1   3
BRANCH   1  12
HETATM   12  C7  UNL     1      23.695   3.112  51.396  1.00  0.00     0.310 C 
BRANCH  12  13
HETATM   13  C8  UNL     1      24.503   1.966  51.870  1.00  0.00    -0.019 A 
HETATM   14  C9  UNL     1      25.819   1.723  51.582  1.00  0.00     0.010 A 
HETATM   15  C10 UNL     1      26.491   0.619  52.074  1.00  0.00     0.002 A 
HETATM   16  C11 UNL     1      25.772  -0.263  52.892  1.00  0.00     0.012 A 
HETATM   17  C12 UNL     1      24.445  -0.026  53.186  1.00  0.00    -0.025 A 
HETATM   18  C13 UNL     1      23.737  -0.907  53.999  1.00  0.00     0.012 A 
HETATM   19  C17 UNL     1      23.777   1.094  52.683  1.00  0.00    -0.018 A 
HETATM   20  C14 UNL     1      22.395  -0.706  54.321  1.00  0.00     0.001 A 
HETATM   21  C15 UNL     1      21.753   0.412  53.809  1.00  0.00     0.001 A 
HETATM   22  C16 UNL     1      22.468   1.258  53.017  1.00  0.00     0.013 A 
ENDBRANCH  12  13
ENDBRANCH   1  12
TORSDOF 3
ENDMDL
MODEL 4
REMARK VINA RESULT:      -7.9      1.663      2.276
REMARK  3 active torsions:
REMARK  status: ('A' for Active; 'I' for Inactive)
REMARK    1  A    between atoms: C6_8  and  N2_9 
REMARK    2  A    between atoms: N2_9  and  C7_10 
REMARK    3  A    between atoms: C7_10  and  C8_11 
ROOT
HETATM    1  N2  UNL     1      25.843  -0.567  52.566  1.00  0.00     0.102 N 
HETATM    2  H4  UNL     1      26.351  -0.393  51.661  1.00  0.00     0.317 HD
ENDROOT
BRANCH   1   3
HETATM    3  C6  UNL     1      26.785  -0.500  53.649  1.00  0.00     0.303 A 
HETATM    4  C1  UNL     1      28.155  -0.922  53.385  1.00  0.00     0.076 A 
HETATM    5 CL1  UNL     1      28.769  -2.537  53.078  1.00  0.00    -0.084 Cl
HETATM    6  C2  UNL     1      28.724   0.273  53.451  1.00  0.00     0.062 A 
HETATM    7  N1  UNL     1      29.683   1.320  53.437  1.00  0.00    -0.363 N 
HETATM    8  C5  UNL     1      27.416   0.847  53.738  1.00  0.00     0.021 A 
HETATM    9  C3  UNL     1      28.943   2.504  53.714  1.00  0.00     0.101 A 
HETATM   10  H1  UNL     1      30.711   1.308  53.270  1.00  0.00     0.165 HD
HETATM   11  C4  UNL     1      27.712   2.106  53.866  1.00  0.00     0.003 A 
ENDBRANCH   1   3
BRANCH   1  12
HETATM   12  C7  UNL     1      24.799   0.426  52.656  1.00  0.00     0.310 C 
BRANCH  12  13
HETATM   13  C8  UNL     1      23.608  -0.130  53.337  1.00  0.00    -0.019 A 
HETATM   14  C9  UNL     1      23.596  -0.821  54.519  1.00  0.00     0.010 A 
HETATM   15  C10 UNL     1      22.428  -1.304  55.079  1.00  0.00     0.002 A 
HETATM   16  C11 UNL     1      21.232  -1.063  54.389  1.00  0.00     0.012 A 
HETATM   17  C12 UNL     1      21.236  -0.368  53.197  1.00  0.00    -0.025 A 
HETATM   18  C13 UNL     1      20.045  -0.133  52.516  1.00  0.00     0.012 A 
HETATM   19  C17 UNL     1      22.424   0.116  52.641  1.00  0.00    -0.018 A 
HETATM   20  C14 UNL     1      20.004   0.563  51.308  1.00  0.00     0.001 A 
HETATM   21  C15 UNL     1      21.196   1.033  50.775  1.00  0.00     0.001 A 
HETATM   22  C16 UNL     1      22.346   0.790  51.462  1.00  0.00     0.013 A 
ENDBRANCH  12  13
ENDBRANCH   1  12
TORSDOF 3
ENDMDL
MODEL 5
REMARK VINA RESULT:      -7.9      2.507      6.435
REMARK  3 active torsions:
REMARK  status: ('A' for Active; 'I' for Inactive)
REMARK    1  A    between atoms: C6_8  and  N2_9 
REMARK    2  A    between atoms: N2_9  and  C7_10 
REMARK    3  A    between atoms: C7_10  and  C8_11 
ROOT
HETATM    1  N2  UNL     1      23.810   0.949  51.889  1.00  0.00     0.102 N 
HETATM    2  H4  UNL     1      23.852  -0.093  51.755  1.00  0.00     0.317 HD
ENDROOT
BRANCH   1   3
HETATM    3  C6  UNL     1      23.056   1.235  53.080  1.00  0.00     0.303 A 
HETATM    4  C1  UNL     1      21.627   1.478  52.937  1.00  0.00     0.076 A 
HETATM    5 CL1  UNL     1      20.812   2.851  52.209  1.00  0.00    -0.084 Cl
HETATM    6  C2  UNL     1      21.199   0.363  53.511  1.00  0.00     0.062 A 
HETATM    7  N1  UNL     1      20.361  -0.659  54.031  1.00  0.00    -0.363 N 
HETATM    8  C5  UNL     1      22.588  -0.017  53.738  1.00  0.00     0.021 A 
HETATM    9  C3  UNL     1      21.252  -1.635  54.561  1.00  0.00     0.101 A 
HETATM   10  H1  UNL     1      19.324  -0.750  54.058  1.00  0.00     0.165 HD
HETATM   11  C4  UNL     1      22.445  -1.158  54.343  1.00  0.00     0.003 A 
ENDBRANCH   1   3
BRANCH   1  12
HETATM   12  C7  UNL     1      25.173   1.419  51.950  1.00  0.00     0.310 C 
BRANCH  12  13
HETATM   13  C8  UNL     1      26.086   0.319  52.335  1.00  0.00    -0.019 A 
HETATM   14  C9  UNL     1      25.867  -1.021  52.155  1.00  0.00     0.010 A 
HETATM   15  C10 UNL     1      26.783  -1.978  52.549  1.00  0.00     0.002 A 
HETATM   16  C11 UNL     1      27.966  -1.530  53.152  1.00  0.00     0.012 A 
HETATM   17  C12 UNL     1      28.194  -0.182  53.339  1.00  0.00    -0.025 A 
HETATM   18  C13 UNL     1      29.371   0.255  53.939  1.00  0.00     0.012 A 
HETATM   19  C17 UNL     1      27.260   0.776  52.934  1.00  0.00    -0.018 A 
HETATM   20  C14 UNL     1      29.641   1.608  54.148  1.00  0.00     0.001 A 
HETATM   21  C15 UNL     1      28.699   2.541  53.739  1.00  0.00     0.001 A 
HETATM   22  C16 UNL     1      27.556   2.086  53.154  1.00  0.00     0.013 A 
ENDBRANCH  12  13
ENDBRANCH   1  12
TORSDOF 3
ENDMDL
MODEL 6
REMARK VINA RESULT:      -7.9      1.043      2.379
REMARK  3 active torsions:
REMARK  status: ('A' for Active; 'I' for Inactive)
REMARK    1  A    between atoms: C6_8  and  N2_9 
REMARK    2  A    between atoms: N2_9  and  C7_10 
REMARK    3  A    between atoms: C7_10  and  C8_11 
ROOT
HETATM    1  N2  UNL     1      25.759   2.324  52.643  1.00  0.00     0.102 N 
HETATM    2  H4  UNL     1      26.054   3.128  53.255  1.00  0.00     0.317 HD
ENDROOT
BRANCH   1   3
HETATM    3  C6  UNL     1      26.934   1.653  52.158  1.00  0.00     0.303 A 
HETATM    4  C1  UNL     1      28.000   1.376  53.112  1.00  0.00     0.076 A 
HETATM    5 CL1  UNL     1      29.088   2.502  53.903  1.00  0.00    -0.084 Cl
HETATM    6  C2  UNL     1      27.854   0.060  53.163  1.00  0.00     0.062 A 
HETATM    7  N1  UNL     1      28.023  -1.311  53.494  1.00  0.00    -0.363 N 
HETATM    8  C5  UNL     1      26.768   0.173  52.198  1.00  0.00     0.021 A 
HETATM    9  C3  UNL     1      27.041  -2.001  52.728  1.00  0.00     0.101 A 
HETATM   10  H1  UNL     1      28.688  -1.785  54.140  1.00  0.00     0.165 HD
HETATM   11  C4  UNL     1      26.424  -1.072  52.053  1.00  0.00     0.003 A 
ENDBRANCH   1   3
BRANCH   1  12
HETATM   12  C7  UNL     1      24.908   1.478  53.446  1.00  0.00     0.310 C 
BRANCH  12  13
HETATM   13  C8  UNL     1      23.490   1.644  53.054  1.00  0.00    -0.019 A 
HETATM   14  C9  UNL     1      22.958   2.690  52.347  1.00  0.00     0.010 A 
HETATM   15  C10 UNL     1      21.615   2.756  52.028  1.00  0.00     0.002 A 
HETATM   16  C11 UNL     1      20.796   1.703  52.456  1.00  0.00     0.012 A 
HETATM   17  C12 UNL     1      21.324   0.646  53.169  1.00  0.00    -0.025 A 
HETATM   18  C13 UNL     1      20.504  -0.396  53.591  1.00  0.00     0.012 A 
HETATM   19  C17 UNL     1      22.685   0.590  53.485  1.00  0.00    -0.018 A 
HETATM   20  C14 UNL     1      20.996  -1.483  54.315  1.00  0.00     0.001 A 
HETATM   21  C15 UNL     1      22.350  -1.516  54.618  1.00  0.00     0.001 A 
HETATM   22  C16 UNL     1      23.129  -0.484  54.192  1.00  0.00     0.013 A 
ENDBRANCH  12  13
ENDBRANCH   1  12
TORSDOF 3
ENDMDL
MODEL 7
REMARK VINA RESULT:      -7.8      2.240      3.234
REMARK  3 active torsions:
REMARK  status: ('A' for Active; 'I' for Inactive)
REMARK    1  A    between atoms: C6_8  and  N2_9 
REMARK    2  A    between atoms: N2_9  and  C7_10 
REMARK    3  A    between atoms: C7_10  and  C8_11 
ROOT
HETATM    1  N2  UNL     1      25.533   1.792  52.604  1.00  0.00     0.102 N 
HETATM    2  H4  UNL     1      26.176   2.402  52.037  1.00  0.00     0.317 HD
ENDROOT
BRANCH   1   3
HETATM    3  C6  UNL     1      26.144   1.528  53.878  1.00  0.00     0.303 A 
HETATM    4  C1  UNL     1      26.156   0.151  54.354  1.00  0.00     0.076 A 
HETATM    5 CL1  UNL     1      24.813  -0.834  54.905  1.00  0.00    -0.084 Cl
HETATM    6  C2  UNL     1      27.456  -0.070  54.223  1.00  0.00     0.062 A 
HETATM    7  N1  UNL     1      28.733  -0.692  54.234  1.00  0.00    -0.363 N 
HETATM    8  C5  UNL     1      27.609   1.295  53.738  1.00  0.00     0.021 A 
HETATM    9  C3  UNL     1      29.633   0.304  53.758  1.00  0.00     0.101 A 
HETATM   10  H1  UNL     1      29.029  -1.650  54.512  1.00  0.00     0.165 HD
HETATM   11  C4  UNL     1      28.891   1.350  53.528  1.00  0.00     0.003 A 
ENDBRANCH   1   3
BRANCH   1  12
HETATM   12  C7  UNL     1      24.275   2.494  52.709  1.00  0.00     0.310 C 
BRANCH  12  13
HETATM   13  C8  UNL     1      23.163   1.643  52.230  1.00  0.00    -0.019 A 
HETATM   14  C9  UNL     1      22.451   0.739  52.973  1.00  0.00     0.010 A 
HETATM   15  C10 UNL     1      21.424  -0.013  52.434  1.00  0.00     0.002 A 
HETATM   16  C11 UNL     1      21.126   0.179  51.078  1.00  0.00     0.012 A 
HETATM   17  C12 UNL     1      21.839   1.086  50.322  1.00  0.00    -0.025 A 
HETATM   18  C13 UNL     1      21.537   1.270  48.976  1.00  0.00     0.012 A 
HETATM   19  C17 UNL     1      22.875   1.842  50.879  1.00  0.00    -0.018 A 
HETATM   20  C14 UNL     1      22.233   2.176  48.176  1.00  0.00     0.001 A 
HETATM   21  C15 UNL     1      23.258   2.914  48.750  1.00  0.00     0.001 A 
HETATM   22  C16 UNL     1      23.532   2.715  50.069  1.00  0.00     0.013 A 
ENDBRANCH  12  13
ENDBRANCH   1  12
TORSDOF 3
ENDMDL
MODEL 8
REMARK VINA RESULT:      -7.8      2.359      3.827
REMARK  3 active torsions:
REMARK  status: ('A' for Active; 'I' for Inactive)
REMARK    1  A    between atoms: C6_8  and  N2_9 
REMARK    2  A    between atoms: N2_9  and  C7_10 
REMARK    3  A    between atoms: C7_10  and  C8_11 
ROOT
HETATM    1  N2  UNL     1      26.254   2.362  53.105  1.00  0.00     0.102 N 
HETATM    2  H4  UNL     1      26.744   3.272  53.303  1.00  0.00     0.317 HD
ENDROOT
BRANCH   1   3
HETATM    3  C6  UNL     1      26.569   1.427  54.149  1.00  0.00     0.303 A 
HETATM    4  C1  UNL     1      26.218   0.028  53.937  1.00  0.00     0.076 A 
HETATM    5 CL1  UNL     1      24.629  -0.712  53.886  1.00  0.00    -0.084 Cl
HETATM    6  C2  UNL     1      27.449  -0.444  53.801  1.00  0.00     0.062 A 
HETATM    7  N1  UNL     1      28.552  -1.317  53.605  1.00  0.00    -0.363 N 
HETATM    8  C5  UNL     1      27.958   0.906  54.010  1.00  0.00     0.021 A 
HETATM    9  C3  UNL     1      29.704  -0.484  53.698  1.00  0.00     0.101 A 
HETATM   10  H1  UNL     1      28.595  -2.342  53.427  1.00  0.00     0.165 HD
HETATM   11  C4  UNL     1      29.240   0.711  53.930  1.00  0.00     0.003 A 
ENDBRANCH   1   3
BRANCH   1  12
HETATM   12  C7  UNL     1      24.844   2.659  53.010  1.00  0.00     0.310 C 
BRANCH  12  13
HETATM   13  C8  UNL     1      24.445   2.844  51.597  1.00  0.00    -0.019 A 
HETATM   14  C9  UNL     1      25.035   3.681  50.687  1.00  0.00     0.010 A 
HETATM   15  C10 UNL     1      24.588   3.785  49.383  1.00  0.00     0.002 A 
HETATM   16  C11 UNL     1      23.492   2.996  49.011  1.00  0.00     0.012 A 
HETATM   17  C12 UNL     1      22.891   2.151  49.921  1.00  0.00    -0.025 A 
HETATM   18  C13 UNL     1      21.802   1.371  49.544  1.00  0.00     0.012 A 
HETATM   19  C17 UNL     1      23.353   2.054  51.237  1.00  0.00    -0.018 A 
HETATM   20  C14 UNL     1      21.164   0.505  50.432  1.00  0.00     0.001 A 
HETATM   21  C15 UNL     1      21.639   0.426  51.734  1.00  0.00     0.001 A 
HETATM   22  C16 UNL     1      22.706   1.200  52.076  1.00  0.00     0.013 A 
ENDBRANCH  12  13
ENDBRANCH   1  12
TORSDOF 3
ENDMDL
MODEL 9
REMARK VINA RESULT:      -7.8      3.472      6.708
REMARK  3 active torsions:
REMARK  status: ('A' for Active; 'I' for Inactive)
REMARK    1  A    between atoms: C6_8  and  N2_9 
REMARK    2  A    between atoms: N2_9  and  C7_10 
REMARK    3  A    between atoms: C7_10  and  C8_11 
ROOT
HETATM    1  N2  UNL     1      24.433   1.431  52.587  1.00  0.00     0.102 N 
HETATM    2  H4  UNL     1      24.939   2.212  53.078  1.00  0.00     0.317 HD
ENDROOT
BRANCH   1   3
HETATM    3  C6  UNL     1      23.797   1.957  51.410  1.00  0.00     0.303 A 
HETATM    4  C1  UNL     1      23.061   3.209  51.538  1.00  0.00     0.076 A 
HETATM    5 CL1  UNL     1      21.551   3.518  52.375  1.00  0.00    -0.084 Cl
HETATM    6  C2  UNL     1      23.894   3.974  50.845  1.00  0.00     0.062 A 
HETATM    7  N1  UNL     1      24.493   5.091  50.205  1.00  0.00    -0.363 N 
HETATM    8  C5  UNL     1      24.733   2.804  50.619  1.00  0.00     0.021 A 
HETATM    9  C3  UNL     1      25.680   4.581  49.606  1.00  0.00     0.101 A 
HETATM   10  H1  UNL     1      24.198   6.087  50.141  1.00  0.00     0.165 HD
HETATM   11  C4  UNL     1      25.690   3.312  49.901  1.00  0.00     0.003 A 
ENDBRANCH   1   3
BRANCH   1  12
HETATM   12  C7  UNL     1      25.416   0.414  52.297  1.00  0.00     0.310 C 
BRANCH  12  13
HETATM   13  C8  UNL     1      26.740   0.802  52.835  1.00  0.00    -0.019 A 
HETATM   14  C9  UNL     1      27.149   2.069  53.156  1.00  0.00     0.010 A 
HETATM   15  C10 UNL     1      28.411   2.333  53.654  1.00  0.00     0.002 A 
HETATM   16  C11 UNL     1      29.278   1.246  53.825  1.00  0.00     0.012 A 
HETATM   17  C12 UNL     1      28.875  -0.034  53.503  1.00  0.00    -0.025 A 
HETATM   18  C13 UNL     1      29.743  -1.108  53.673  1.00  0.00     0.012 A 
HETATM   19  C17 UNL     1      27.595  -0.288  53.000  1.00  0.00    -0.018 A 
HETATM   20  C14 UNL     1      29.376  -2.417  53.360  1.00  0.00     0.001 A 
HETATM   21  C15 UNL     1      28.101  -2.645  52.862  1.00  0.00     0.001 A 
HETATM   22  C16 UNL     1      27.272  -1.576  52.705  1.00  0.00     0.013 A 
ENDBRANCH  12  13
ENDBRANCH   1  12
TORSDOF 3
ENDMDL
