MODEL 1
REMARK VINA RESULT:      -7.2      0.000      0.000
REMARK  3 active torsions:
REMARK  status: ('A' for Active; 'I' for Inactive)
REMARK    1  A    between atoms: O1_2  and  C2_3 
REMARK    2  A    between atoms: C6_7  and  C7_8 
REMARK    3  A    between atoms: C10_11  and  O2_12 
ROOT
HETATM    1  C2  UNL     1      22.345   2.409  48.780  1.00  0.00     0.075 C 
HETATM    2  C3  UNL     1      23.394   3.200  48.958  1.00  0.00     0.006 C 
HETATM    3  C4  UNL     1      23.544   3.494  50.249  1.00  0.00    -0.010 C 
HETATM    4  C5  UNL     1      24.429   2.464  50.788  1.00  0.00     0.054 C 
HETATM    5  C6  UNL     1      24.584   2.477  52.281  1.00  0.00     0.112 C 
HETATM    6  N1  UNL     1      23.326   2.050  52.911  1.00  0.00    -0.236 NA
HETATM    7  N2  UNL     1      23.108   0.721  52.811  1.00  0.00    -0.356 N 
HETATM    8  C14 UNL     1      21.907   0.189  52.294  1.00  0.00     0.138 C 
HETATM    9  C15 UNL     1      21.634   0.720  50.887  1.00  0.00     0.020 C 
HETATM   10  C16 UNL     1      22.025   1.561  49.894  1.00  0.00     0.041 C 
HETATM   11  H15 UNL     1      23.183   2.486  53.842  1.00  0.00     0.146 HD
HETATM   12  H16 UNL     1      23.943   0.159  52.540  1.00  0.00     0.174 HD
ENDROOT
BRANCH   5  13
HETATM   13  C7  UNL     1      25.607   1.512  52.758  1.00  0.00    -0.038 A 
HETATM   14  C8  UNL     1      26.056   1.604  54.060  1.00  0.00     0.011 A 
HETATM   15  C9  UNL     1      27.013   0.699  54.498  1.00  0.00     0.037 A 
HETATM   16  C10 UNL     1      27.517  -0.280  53.666  1.00  0.00     0.068 A 
HETATM   17  C12 UNL     1      27.052  -0.361  52.349  1.00  0.00     0.037 A 
HETATM   18  C13 UNL     1      26.104   0.539  51.922  1.00  0.00     0.011 A 
BRANCH  16  19
HETATM   19  O2  UNL     1      28.467  -1.225  54.002  1.00  0.00    -0.356 OA
HETATM   20  C11 UNL     1      29.808  -1.223  53.619  1.00  0.00     0.210 C 
ENDBRANCH  16  19
ENDBRANCH   5  13
BRANCH   1  21
HETATM   21  O1  UNL     1      21.234   1.702  48.340  1.00  0.00    -0.355 OA
HETATM   22  C1  UNL     1      20.090   2.494  48.027  1.00  0.00     0.210 C 
ENDBRANCH   1  21
TORSDOF 3
ENDMDL
MODEL 2
REMARK VINA RESULT:      -7.0      2.224      2.841
REMARK  3 active torsions:
REMARK  status: ('A' for Active; 'I' for Inactive)
REMARK    1  A    between atoms: O1_2  and  C2_3 
REMARK    2  A    between atoms: C6_7  and  C7_8 
REMARK    3  A    between atoms: C10_11  and  O2_12 
ROOT
HETATM    1  C2  UNL     1      19.976   2.673  51.362  1.00  0.00     0.075 C 
HETATM    2  C3  UNL     1      20.416   1.588  50.740  1.00  0.00     0.006 C 
HETATM    3  C4  UNL     1      21.621   1.806  50.215  1.00  0.00    -0.010 C 
HETATM    4  C5  UNL     1      22.578   1.411  51.244  1.00  0.00     0.054 C 
HETATM    5  C6  UNL     1      24.009   1.756  50.949  1.00  0.00     0.112 C 
HETATM    6  N1  UNL     1      24.189   3.213  51.017  1.00  0.00    -0.236 NA
HETATM    7  N2  UNL     1      24.196   3.687  52.283  1.00  0.00    -0.356 N 
HETATM    8  C14 UNL     1      23.354   4.740  52.700  1.00  0.00     0.138 C 
HETATM    9  C15 UNL     1      21.886   4.405  52.434  1.00  0.00     0.020 C 
HETATM   10  C16 UNL     1      21.000   3.527  51.895  1.00  0.00     0.041 C 
HETATM   11  H15 UNL     1      24.936   3.549  50.381  1.00  0.00     0.146 HD
HETATM   12  H16 UNL     1      24.327   2.962  53.021  1.00  0.00     0.174 HD
ENDROOT
BRANCH   5  13
HETATM   13  C7  UNL     1      24.950   1.197  51.952  1.00  0.00    -0.038 A 
HETATM   14  C8  UNL     1      24.440   0.574  53.073  1.00  0.00     0.011 A 
HETATM   15  C9  UNL     1      25.326   0.054  54.006  1.00  0.00     0.037 A 
HETATM   16  C10 UNL     1      26.693   0.148  53.836  1.00  0.00     0.068 A 
HETATM   17  C12 UNL     1      27.196   0.782  52.695  1.00  0.00     0.037 A 
HETATM   18  C13 UNL     1      26.311   1.294  51.774  1.00  0.00     0.011 A 
BRANCH  16  19
HETATM   19  O2  UNL     1      27.657  -0.334  54.700  1.00  0.00    -0.356 OA
HETATM   20  C11 UNL     1      29.037  -0.184  54.566  1.00  0.00     0.210 C 
ENDBRANCH  16  19
ENDBRANCH   5  13
BRANCH   1  21
HETATM   21  O1  UNL     1      19.262   3.709  51.948  1.00  0.00    -0.355 OA
HETATM   22  C1  UNL     1      17.899   3.818  51.541  1.00  0.00     0.210 C 
ENDBRANCH   1  21
TORSDOF 3
ENDMDL
MODEL 3
REMARK VINA RESULT:      -6.9      3.187      5.299
REMARK  3 active torsions:
REMARK  status: ('A' for Active; 'I' for Inactive)
REMARK    1  A    between atoms: O1_2  and  C2_3 
REMARK    2  A    between atoms: C6_7  and  C7_8 
REMARK    3  A    between atoms: C10_11  and  O2_12 
ROOT
HETATM    1  C2  UNL     1      22.307  -0.114  52.472  1.00  0.00     0.075 C 
HETATM    2  C3  UNL     1      21.690   0.724  51.651  1.00  0.00     0.006 C 
HETATM    3  C4  UNL     1      21.951   1.987  51.989  1.00  0.00    -0.010 C 
HETATM    4  C5  UNL     1      23.138   2.362  51.225  1.00  0.00     0.054 C 
HETATM    5  C6  UNL     1      23.739   3.688  51.593  1.00  0.00     0.112 C 
HETATM    6  N1  UNL     1      24.345   3.600  52.929  1.00  0.00    -0.236 NA
HETATM    7  N2  UNL     1      25.512   2.919  52.937  1.00  0.00    -0.356 N 
HETATM    8  C14 UNL     1      25.750   1.839  53.815  1.00  0.00     0.138 C 
HETATM    9  C15 UNL     1      24.685   0.755  53.651  1.00  0.00     0.020 C 
HETATM   10  C16 UNL     1      23.524   0.383  53.049  1.00  0.00     0.041 C 
HETATM   11  H15 UNL     1      24.322   4.507  53.433  1.00  0.00     0.146 HD
HETATM   12  H16 UNL     1      25.941   2.772  51.998  1.00  0.00     0.174 HD
ENDROOT
BRANCH   5  13
HETATM   13  C7  UNL     1      24.845   4.086  50.686  1.00  0.00    -0.038 A 
HETATM   14  C8  UNL     1      25.700   3.113  50.209  1.00  0.00     0.011 A 
HETATM   15  C9  UNL     1      26.732   3.492  49.362  1.00  0.00     0.037 A 
HETATM   16  C10 UNL     1      26.916   4.809  48.990  1.00  0.00     0.068 A 
HETATM   17  C12 UNL     1      26.041   5.784  49.481  1.00  0.00     0.037 A 
HETATM   18  C13 UNL     1      25.021   5.400  50.321  1.00  0.00     0.011 A 
BRANCH  16  19
HETATM   19  O2  UNL     1      27.906   5.290  48.156  1.00  0.00    -0.356 OA
HETATM   20  C11 UNL     1      28.439   6.579  48.163  1.00  0.00     0.210 C 
ENDBRANCH  16  19
ENDBRANCH   5  13
BRANCH   1  21
HETATM   21  O1  UNL     1      22.740  -1.164  53.271  1.00  0.00    -0.355 OA
HETATM   22  C1  UNL     1      21.827  -1.575  54.287  1.00  0.00     0.210 C 
ENDBRANCH   1  21
TORSDOF 3
ENDMDL
MODEL 4
REMARK VINA RESULT:      -6.6      3.484      5.627
REMARK  3 active torsions:
REMARK  status: ('A' for Active; 'I' for Inactive)
REMARK    1  A    between atoms: O1_2  and  C2_3 
REMARK    2  A    between atoms: C6_7  and  C7_8 
REMARK    3  A    between atoms: C10_11  and  O2_12 
ROOT
HETATM    1  C2  UNL     1      26.416   4.804  49.151  1.00  0.00     0.075 C 
HETATM    2  C3  UNL     1      26.769   3.541  49.336  1.00  0.00     0.006 C 
HETATM    3  C4  UNL     1      26.560   3.177  50.601  1.00  0.00    -0.010 C 
HETATM    4  C5  UNL     1      25.203   2.637  50.637  1.00  0.00     0.054 C 
HETATM    5  C6  UNL     1      24.672   2.343  52.010  1.00  0.00     0.112 C 
HETATM    6  N1  UNL     1      24.436   3.603  52.728  1.00  0.00    -0.236 NA
HETATM    7  N2  UNL     1      23.335   4.259  52.297  1.00  0.00    -0.356 N 
HETATM    8  C14 UNL     1      23.371   5.613  51.898  1.00  0.00     0.138 C 
HETATM    9  C15 UNL     1      24.395   5.828  50.784  1.00  0.00     0.020 C 
HETATM   10  C16 UNL     1      25.372   5.279  50.016  1.00  0.00     0.041 C 
HETATM   11  H15 UNL     1      24.556   3.503  53.753  1.00  0.00     0.146 HD
HETATM   12  H16 UNL     1      22.684   3.688  51.717  1.00  0.00     0.174 HD
ENDROOT
BRANCH   5  13
HETATM   13  C7  UNL     1      23.356   1.657  51.979  1.00  0.00    -0.038 A 
HETATM   14  C8  UNL     1      22.886   1.060  53.132  1.00  0.00     0.011 A 
HETATM   15  C9  UNL     1      21.655   0.421  53.095  1.00  0.00     0.037 A 
HETATM   16  C10 UNL     1      20.900   0.371  51.940  1.00  0.00     0.068 A 
HETATM   17  C12 UNL     1      21.388   0.980  50.780  1.00  0.00     0.037 A 
HETATM   18  C13 UNL     1      22.610   1.612  50.824  1.00  0.00     0.011 A 
BRANCH  16  19
HETATM   19  O2  UNL     1      19.668  -0.236  51.798  1.00  0.00    -0.356 OA
HETATM   20  C11 UNL     1      18.579   0.258  51.078  1.00  0.00     0.210 C 
ENDBRANCH  16  19
ENDBRANCH   5  13
BRANCH   1  21
HETATM   21  O1  UNL     1      26.242   6.124  48.756  1.00  0.00    -0.355 OA
HETATM   22  C1  UNL     1      27.443   6.873  48.580  1.00  0.00     0.210 C 
ENDBRANCH   1  21
TORSDOF 3
ENDMDL
MODEL 5
REMARK VINA RESULT:      -6.6      2.064      6.868
REMARK  3 active torsions:
REMARK  status: ('A' for Active; 'I' for Inactive)
REMARK    1  A    between atoms: O1_2  and  C2_3 
REMARK    2  A    between atoms: C6_7  and  C7_8 
REMARK    3  A    between atoms: C10_11  and  O2_12 
ROOT
HETATM    1  C2  UNL     1      25.222  -0.253  53.078  1.00  0.00     0.075 C 
HETATM    2  C3  UNL     1      23.908  -0.100  53.160  1.00  0.00     0.006 C 
HETATM    3  C4  UNL     1      23.580   1.187  53.048  1.00  0.00    -0.010 C 
HETATM    4  C5  UNL     1      23.358   1.416  51.623  1.00  0.00     0.054 C 
HETATM    5  C6  UNL     1      23.168   2.852  51.231  1.00  0.00     0.112 C 
HETATM    6  N1  UNL     1      24.437   3.577  51.384  1.00  0.00    -0.236 NA
HETATM    7  N2  UNL     1      25.331   3.291  50.411  1.00  0.00    -0.356 N 
HETATM    8  C14 UNL     1      26.648   2.871  50.695  1.00  0.00     0.138 C 
HETATM    9  C15 UNL     1      26.646   1.625  51.580  1.00  0.00     0.020 C 
HETATM   10  C16 UNL     1      25.904   0.739  52.295  1.00  0.00     0.041 C 
HETATM   11  H15 UNL     1      24.295   4.578  51.617  1.00  0.00     0.146 HD
HETATM   12  H16 UNL     1      24.930   2.813  49.575  1.00  0.00     0.174 HD
ENDROOT
BRANCH   5  13
HETATM   13  C7  UNL     1      22.795   3.010  49.803  1.00  0.00    -0.038 A 
HETATM   14  C8  UNL     1      22.528   1.882  49.053  1.00  0.00     0.011 A 
HETATM   15  C9  UNL     1      22.180   2.038  47.719  1.00  0.00     0.037 A 
HETATM   16  C10 UNL     1      22.098   3.286  47.133  1.00  0.00     0.068 A 
HETATM   17  C12 UNL     1      22.372   4.420  47.905  1.00  0.00     0.037 A 
HETATM   18  C13 UNL     1      22.715   4.257  49.228  1.00  0.00     0.011 A 
BRANCH  16  19
HETATM   19  O2  UNL     1      21.762   3.549  45.820  1.00  0.00    -0.356 OA
HETATM   20  C11 UNL     1      21.846   4.784  45.176  1.00  0.00     0.210 C 
ENDBRANCH  16  19
ENDBRANCH   5  13
BRANCH   1  21
HETATM   21  O1  UNL     1      26.554  -0.640  53.153  1.00  0.00    -0.355 OA
HETATM   22  C1  UNL     1      26.849  -1.924  52.607  1.00  0.00     0.210 C 
ENDBRANCH   1  21
TORSDOF 3
ENDMDL
MODEL 6
REMARK VINA RESULT:      -6.4      2.011      2.716
REMARK  3 active torsions:
REMARK  status: ('A' for Active; 'I' for Inactive)
REMARK    1  A    between atoms: O1_2  and  C2_3 
REMARK    2  A    between atoms: C6_7  and  C7_8 
REMARK    3  A    between atoms: C10_11  and  O2_12 
ROOT
HETATM    1  C2  UNL     1      23.449   5.696  50.010  1.00  0.00     0.075 C 
HETATM    2  C3  UNL     1      23.861   5.816  51.264  1.00  0.00     0.006 C 
HETATM    3  C4  UNL     1      23.245   4.928  52.045  1.00  0.00    -0.010 C 
HETATM    4  C5  UNL     1      24.099   3.743  52.044  1.00  0.00     0.054 C 
HETATM    5  C6  UNL     1      23.506   2.532  52.704  1.00  0.00     0.112 C 
HETATM    6  N1  UNL     1      22.399   2.017  51.885  1.00  0.00    -0.236 NA
HETATM    7  N2  UNL     1      22.817   1.372  50.774  1.00  0.00    -0.356 N 
HETATM    8  C14 UNL     1      22.342   1.700  49.486  1.00  0.00     0.138 C 
HETATM    9  C15 UNL     1      22.582   3.177  49.174  1.00  0.00     0.020 C 
HETATM   10  C16 UNL     1      23.015   4.381  49.633  1.00  0.00     0.041 C 
HETATM   11  H15 UNL     1      21.668   1.552  52.456  1.00  0.00     0.146 HD
HETATM   12  H16 UNL     1      23.827   1.110  50.773  1.00  0.00     0.174 HD
ENDROOT
BRANCH   5  13
HETATM   13  C7  UNL     1      24.471   1.409  52.809  1.00  0.00    -0.038 A 
HETATM   14  C8  UNL     1      24.097   0.269  53.493  1.00  0.00     0.011 A 
HETATM   15  C9  UNL     1      25.004  -0.777  53.587  1.00  0.00     0.037 A 
HETATM   16  C10 UNL     1      26.258  -0.701  53.015  1.00  0.00     0.068 A 
HETATM   17  C12 UNL     1      26.623   0.460  52.326  1.00  0.00     0.037 A 
HETATM   18  C13 UNL     1      25.718   1.493  52.237  1.00  0.00     0.011 A 
BRANCH  16  19
HETATM   19  O2  UNL     1      27.231  -1.681  53.051  1.00  0.00    -0.356 OA
HETATM   20  C11 UNL     1      28.602  -1.480  53.215  1.00  0.00     0.210 C 
ENDBRANCH  16  19
ENDBRANCH   5  13
BRANCH   1  21
HETATM   21  O1  UNL     1      23.079   5.845  48.680  1.00  0.00    -0.355 OA
HETATM   22  C1  UNL     1      23.928   6.684  47.899  1.00  0.00     0.210 C 
ENDBRANCH   1  21
TORSDOF 3
ENDMDL
MODEL 7
REMARK VINA RESULT:      -6.3      4.085      5.586
REMARK  3 active torsions:
REMARK  status: ('A' for Active; 'I' for Inactive)
REMARK    1  A    between atoms: O1_2  and  C2_3 
REMARK    2  A    between atoms: C6_7  and  C7_8 
REMARK    3  A    between atoms: C10_11  and  O2_12 
ROOT
HETATM    1  C2  UNL     1      19.784  -0.667  53.576  1.00  0.00     0.075 C 
HETATM    2  C3  UNL     1      21.034  -0.664  54.017  1.00  0.00     0.006 C 
HETATM    3  C4  UNL     1      21.890  -0.589  52.997  1.00  0.00    -0.010 C 
HETATM    4  C5  UNL     1      22.128   0.837  52.787  1.00  0.00     0.054 C 
HETATM    5  C6  UNL     1      22.913   1.175  51.553  1.00  0.00     0.112 C 
HETATM    6  N1  UNL     1      22.099   0.901  50.360  1.00  0.00    -0.236 NA
HETATM    7  N2  UNL     1      21.130   1.821  50.158  1.00  0.00    -0.356 N 
HETATM    8  C14 UNL     1      19.776   1.465  49.980  1.00  0.00     0.138 C 
HETATM    9  C15 UNL     1      19.268   0.640  51.163  1.00  0.00     0.020 C 
HETATM   10  C16 UNL     1      19.575   0.020  52.332  1.00  0.00     0.041 C 
HETATM   11  H15 UNL     1      22.677   0.632  49.541  1.00  0.00     0.146 HD
HETATM   12  H16 UNL     1      21.244   2.704  50.700  1.00  0.00     0.174 HD
ENDROOT
BRANCH   5  13
HETATM   13  C7  UNL     1      23.256   2.617  51.471  1.00  0.00    -0.038 A 
HETATM   14  C8  UNL     1      22.685   3.492  52.373  1.00  0.00     0.011 A 
HETATM   15  C9  UNL     1      23.010   4.838  52.290  1.00  0.00     0.037 A 
HETATM   16  C10 UNL     1      23.884   5.314  51.334  1.00  0.00     0.068 A 
HETATM   17  C12 UNL     1      24.455   4.416  50.426  1.00  0.00     0.037 A 
HETATM   18  C13 UNL     1      24.128   3.082  50.515  1.00  0.00     0.011 A 
BRANCH  16  19
HETATM   19  O2  UNL     1      24.272   6.629  51.166  1.00  0.00    -0.356 OA
HETATM   20  C11 UNL     1      25.356   7.082  50.413  1.00  0.00     0.210 C 
ENDBRANCH  16  19
ENDBRANCH   5  13
BRANCH   1  21
HETATM   21  O1  UNL     1      18.423  -0.817  53.348  1.00  0.00    -0.355 OA
HETATM   22  C1  UNL     1      17.912  -2.133  53.548  1.00  0.00     0.210 C 
ENDBRANCH   1  21
TORSDOF 3
ENDMDL
MODEL 8
REMARK VINA RESULT:      -6.3      3.890      5.558
REMARK  3 active torsions:
REMARK  status: ('A' for Active; 'I' for Inactive)
REMARK    1  A    between atoms: O1_2  and  C2_3 
REMARK    2  A    between atoms: C6_7  and  C7_8 
REMARK    3  A    between atoms: C10_11  and  O2_12 
ROOT
HETATM    1  C2  UNL     1      22.242   1.273  51.114  1.00  0.00     0.075 C 
HETATM    2  C3  UNL     1      22.220   1.440  49.799  1.00  0.00     0.006 C 
HETATM    3  C4  UNL     1      22.095   2.732  49.494  1.00  0.00    -0.010 C 
HETATM    4  C5  UNL     1      23.458   3.243  49.377  1.00  0.00     0.054 C 
HETATM    5  C6  UNL     1      23.568   4.733  49.232  1.00  0.00     0.112 C 
HETATM    6  N1  UNL     1      23.188   5.381  50.495  1.00  0.00    -0.236 NA
HETATM    7  N2  UNL     1      24.135   5.271  51.453  1.00  0.00    -0.356 N 
HETATM    8  C14 UNL     1      23.851   4.771  52.741  1.00  0.00     0.138 C 
HETATM    9  C15 UNL     1      23.234   3.374  52.663  1.00  0.00     0.020 C 
HETATM   10  C16 UNL     1      22.762   2.383  51.861  1.00  0.00     0.041 C 
HETATM   11  H15 UNL     1      22.770   6.320  50.347  1.00  0.00     0.146 HD
HETATM   12  H16 UNL     1      25.075   4.979  51.108  1.00  0.00     0.174 HD
ENDROOT
BRANCH   5  13
HETATM   13  C7  UNL     1      24.959   5.180  48.965  1.00  0.00    -0.038 A 
HETATM   14  C8  UNL     1      25.172   6.470  48.522  1.00  0.00     0.011 A 
HETATM   15  C9  UNL     1      26.474   6.881  48.275  1.00  0.00     0.037 A 
HETATM   16  C10 UNL     1      27.548   6.034  48.462  1.00  0.00     0.068 A 
HETATM   17  C12 UNL     1      27.317   4.730  48.912  1.00  0.00     0.037 A 
HETATM   18  C13 UNL     1      26.023   4.330  49.155  1.00  0.00     0.011 A 
BRANCH  16  19
HETATM   19  O2  UNL     1      28.877   6.343  48.247  1.00  0.00    -0.356 OA
HETATM   20  C11 UNL     1      29.907   5.436  47.993  1.00  0.00     0.210 C 
ENDBRANCH  16  19
ENDBRANCH   5  13
BRANCH   1  21
HETATM   21  O1  UNL     1      22.154   0.846  52.432  1.00  0.00    -0.355 OA
HETATM   22  C1  UNL     1      20.831   0.618  52.914  1.00  0.00     0.210 C 
ENDBRANCH   1  21
TORSDOF 3
ENDMDL
MODEL 9
REMARK VINA RESULT:      -6.2      2.140      2.914
REMARK  3 active torsions:
REMARK  status: ('A' for Active; 'I' for Inactive)
REMARK    1  A    between atoms: O1_2  and  C2_3 
REMARK    2  A    between atoms: C6_7  and  C7_8 
REMARK    3  A    between atoms: C10_11  and  O2_12 
ROOT
HETATM    1  C2  UNL     1      20.789   3.461  49.456  1.00  0.00     0.075 C 
HETATM    2  C3  UNL     1      21.463   2.422  48.984  1.00  0.00     0.006 C 
HETATM    3  C4  UNL     1      22.749   2.734  48.823  1.00  0.00    -0.010 C 
HETATM    4  C5  UNL     1      23.401   2.383  50.083  1.00  0.00     0.054 C 
HETATM    5  C6  UNL     1      24.828   2.831  50.207  1.00  0.00     0.112 C 
HETATM    6  N1  UNL     1      24.876   4.295  50.325  1.00  0.00    -0.236 NA
HETATM    7  N2  UNL     1      24.490   4.742  51.541  1.00  0.00    -0.356 N 
HETATM    8  C14 UNL     1      23.491   5.726  51.701  1.00  0.00     0.138 C 
HETATM    9  C15 UNL     1      22.187   5.297  51.029  1.00  0.00     0.020 C 
HETATM   10  C16 UNL     1      21.555   4.372  50.258  1.00  0.00     0.041 C 
HETATM   11  H15 UNL     1      25.747   4.695  49.928  1.00  0.00     0.146 HD
HETATM   12  H16 UNL     1      24.456   4.013  52.285  1.00  0.00     0.174 HD
ENDROOT
BRANCH   5  13
HETATM   13  C7  UNL     1      25.483   2.317  51.436  1.00  0.00    -0.038 A 
HETATM   14  C8  UNL     1      24.710   1.693  52.394  1.00  0.00     0.011 A 
HETATM   15  C9  UNL     1      25.329   1.215  53.541  1.00  0.00     0.037 A 
HETATM   16  C10 UNL     1      26.689   1.351  53.738  1.00  0.00     0.068 A 
HETATM   17  C12 UNL     1      27.460   1.986  52.759  1.00  0.00     0.037 A 
HETATM   18  C13 UNL     1      26.838   2.456  51.625  1.00  0.00     0.011 A 
BRANCH  16  19
HETATM   19  O2  UNL     1      27.400   0.913  54.838  1.00  0.00    -0.356 OA
HETATM   20  C11 UNL     1      28.607   0.213  54.818  1.00  0.00     0.210 C 
ENDBRANCH  16  19
ENDBRANCH   5  13
BRANCH   1  21
HETATM   21  O1  UNL     1      19.865   4.434  49.814  1.00  0.00    -0.355 OA
HETATM   22  C1  UNL     1      19.192   5.067  48.728  1.00  0.00     0.210 C 
ENDBRANCH   1  21
TORSDOF 3
ENDMDL
