MODEL 1
REMARK VINA RESULT:      -6.6      0.000      0.000
REMARK  8 active torsions:
REMARK  status: ('A' for Active; 'I' for Inactive)
REMARK    1  A    between atoms: C6_7  and  C7_8 
REMARK    2  A    between atoms: C7_8  and  N2_9 
REMARK    3  A    between atoms: N2_9  and  C8_10 
REMARK    4  A    between atoms: C11_13  and  N3_14 
REMARK    5  A    between atoms: N3_14  and  C12_15 
REMARK    6  A    between atoms: N3_14  and  C14_18 
REMARK    7  A    between atoms: C12_15  and  C13_16 
REMARK    8  A    between atoms: C14_18  and  C15_19 
ROOT
HETATM    1  C8  UNL     1      24.684   1.406  52.354  1.00  0.00     0.246 A 
HETATM    2  C9  UNL     1      23.799   2.571  52.705  1.00  0.00     0.011 A 
HETATM    3  C10 UNL     1      23.831   3.753  52.097  1.00  0.00     0.027 A 
HETATM    4  C11 UNL     1      24.752   4.039  51.010  1.00  0.00     0.026 A 
HETATM    5  C16 UNL     1      25.555   3.043  50.684  1.00  0.00     0.005 A 
HETATM    6  C17 UNL     1      25.652   1.681  51.270  1.00  0.00     0.069 A 
ENDROOT
BRANCH   1   7
HETATM    7  N2  UNL     1      25.151   0.727  53.509  1.00  0.00     0.093 N 
HETATM    8  H15 UNL     1      25.259  -0.276  53.284  1.00  0.00     0.316 HD
BRANCH   7   9
HETATM    9  C7  UNL     1      26.227   1.354  54.192  1.00  0.00     0.306 C 
BRANCH   9  10
HETATM   10  C6  UNL     1      27.463   0.531  54.339  1.00  0.00     0.252 C 
HETATM   11  C2  UNL     1      28.542   0.992  53.388  1.00  0.00     0.016 C 
HETATM   12  C1  UNL     1      28.980   2.370  53.903  1.00  0.00     0.012 C 
HETATM   13  C3  UNL     1      29.771   0.124  53.489  1.00  0.00     0.008 C 
HETATM   14  C4  UNL     1      29.423  -1.349  53.474  1.00  0.00     0.030 C 
HETATM   15  C5  UNL     1      27.972  -1.449  53.083  1.00  0.00     0.270 C 
HETATM   16  N1  UNL     1      27.173  -0.890  54.155  1.00  0.00     0.090 N 
HETATM   17  H11 UNL     1      27.238  -1.447  55.015  1.00  0.00     0.316 HD
ENDBRANCH   9  10
ENDBRANCH   7   9
ENDBRANCH   1   7
BRANCH   4  18
HETATM   18  N3  UNL     1      24.773   5.295  50.357  1.00  0.00    -0.379 N 
BRANCH  18  19
HETATM   19  C12 UNL     1      24.385   6.511  50.987  1.00  0.00     0.138 C 
BRANCH  19  20
HETATM   20  C13 UNL     1      23.026   7.025  50.568  1.00  0.00     0.134 C 
HETATM   21 CL1  UNL     1      23.276   8.529  49.638  1.00  0.00    -0.129 Cl
ENDBRANCH  19  20
ENDBRANCH  18  19
BRANCH  18  22
HETATM   22  C14 UNL     1      25.175   5.543  48.993  1.00  0.00     0.138 C 
BRANCH  22  23
HETATM   23  C15 UNL     1      26.530   6.201  48.896  1.00  0.00     0.134 C 
HETATM   24 CL2  UNL     1      27.756   4.984  48.549  1.00  0.00    -0.129 Cl
ENDBRANCH  22  23
ENDBRANCH  18  22
ENDBRANCH   4  18
TORSDOF 8
ENDMDL
MODEL 2
REMARK VINA RESULT:      -6.5      3.276      6.778
REMARK  8 active torsions:
REMARK  status: ('A' for Active; 'I' for Inactive)
REMARK    1  A    between atoms: C6_7  and  C7_8 
REMARK    2  A    between atoms: C7_8  and  N2_9 
REMARK    3  A    between atoms: N2_9  and  C8_10 
REMARK    4  A    between atoms: C11_13  and  N3_14 
REMARK    5  A    between atoms: N3_14  and  C12_15 
REMARK    6  A    between atoms: N3_14  and  C14_18 
REMARK    7  A    between atoms: C12_15  and  C13_16 
REMARK    8  A    between atoms: C14_18  and  C15_19 
ROOT
HETATM    1  C8  UNL     1      23.053   4.366  52.028  1.00  0.00     0.246 A 
HETATM    2  C9  UNL     1      22.330   3.134  51.555  1.00  0.00     0.011 A 
HETATM    3  C10 UNL     1      22.604   1.897  51.956  1.00  0.00     0.027 A 
HETATM    4  C11 UNL     1      23.660   1.610  52.912  1.00  0.00     0.026 A 
HETATM    5  C16 UNL     1      24.327   2.666  53.340  1.00  0.00     0.005 A 
HETATM    6  C17 UNL     1      24.154   4.098  52.980  1.00  0.00     0.069 A 
ENDROOT
BRANCH   1   7
HETATM    7  N2  UNL     1      23.294   5.279  50.970  1.00  0.00     0.093 N 
HETATM    8  H15 UNL     1      24.066   5.911  51.245  1.00  0.00     0.316 HD
BRANCH   7   9
HETATM    9  C7  UNL     1      23.365   4.706  49.673  1.00  0.00     0.306 C 
BRANCH   9  10
HETATM   10  C6  UNL     1      24.601   5.017  48.897  1.00  0.00     0.252 C 
HETATM   11  C2  UNL     1      25.840   4.595  49.652  1.00  0.00     0.016 C 
HETATM   12  C1  UNL     1      25.812   3.060  49.659  1.00  0.00     0.012 C 
HETATM   13  C3  UNL     1      27.094   4.962  48.899  1.00  0.00     0.008 C 
HETATM   14  C4  UNL     1      27.048   6.388  48.392  1.00  0.00     0.030 C 
HETATM   15  C5  UNL     1      25.868   7.048  49.055  1.00  0.00     0.270 C 
HETATM   16  N1  UNL     1      24.658   6.434  48.545  1.00  0.00     0.090 N 
HETATM   17  H11 UNL     1      24.521   6.625  47.545  1.00  0.00     0.316 HD
ENDBRANCH   9  10
ENDBRANCH   7   9
ENDBRANCH   1   7
BRANCH   4  18
HETATM   18  N3  UNL     1      23.938   0.292  53.347  1.00  0.00    -0.379 N 
BRANCH  18  19
HETATM   19  C12 UNL     1      23.001  -0.776  53.255  1.00  0.00     0.138 C 
BRANCH  19  20
HETATM   20  C13 UNL     1      22.324  -1.127  54.561  1.00  0.00     0.134 C 
HETATM   21 CL1  UNL     1      21.020   0.060  54.835  1.00  0.00    -0.129 Cl
ENDBRANCH  19  20
ENDBRANCH  18  19
BRANCH  18  22
HETATM   22  C14 UNL     1      25.171  -0.172  53.936  1.00  0.00     0.138 C 
BRANCH  22  23
HETATM   23  C15 UNL     1      26.024  -0.949  52.963  1.00  0.00     0.134 C 
HETATM   24 CL2  UNL     1      26.781   0.161  51.822  1.00  0.00    -0.129 Cl
ENDBRANCH  22  23
ENDBRANCH  18  22
ENDBRANCH   4  18
TORSDOF 8
ENDMDL
MODEL 3
REMARK VINA RESULT:      -6.4      3.692      7.072
REMARK  8 active torsions:
REMARK  status: ('A' for Active; 'I' for Inactive)
REMARK    1  A    between atoms: C6_7  and  C7_8 
REMARK    2  A    between atoms: C7_8  and  N2_9 
REMARK    3  A    between atoms: N2_9  and  C8_10 
REMARK    4  A    between atoms: C11_13  and  N3_14 
REMARK    5  A    between atoms: N3_14  and  C12_15 
REMARK    6  A    between atoms: N3_14  and  C14_18 
REMARK    7  A    between atoms: C12_15  and  C13_16 
REMARK    8  A    between atoms: C14_18  and  C15_19 
ROOT
HETATM    1  C8  UNL     1      24.159   3.703  51.219  1.00  0.00     0.246 A 
HETATM    2  C9  UNL     1      24.061   3.476  52.703  1.00  0.00     0.011 A 
HETATM    3  C10 UNL     1      24.910   2.738  53.411  1.00  0.00     0.027 A 
HETATM    4  C11 UNL     1      26.040   2.059  52.800  1.00  0.00     0.026 A 
HETATM    5  C16 UNL     1      26.150   2.224  51.495  1.00  0.00     0.005 A 
HETATM    6  C17 UNL     1      25.284   2.997  50.567  1.00  0.00     0.069 A 
ENDROOT
BRANCH   1   7
HETATM    7  N2  UNL     1      22.888   3.655  50.590  1.00  0.00     0.093 N 
HETATM    8  H15 UNL     1      22.866   4.357  49.831  1.00  0.00     0.316 HD
BRANCH   7   9
HETATM    9  C7  UNL     1      22.410   2.355  50.276  1.00  0.00     0.306 C 
BRANCH   9  10
HETATM   10  C6  UNL     1      21.182   1.926  51.006  1.00  0.00     0.252 C 
HETATM   11  C2  UNL     1      21.215   0.447  51.309  1.00  0.00     0.016 C 
HETATM   12  C1  UNL     1      22.320   0.269  52.359  1.00  0.00     0.012 C 
HETATM   13  C3  UNL     1      19.948  -0.003  51.992  1.00  0.00     0.008 C 
HETATM   14  C4  UNL     1      18.714   0.530  51.295  1.00  0.00     0.030 C 
HETATM   15  C5  UNL     1      19.172   1.108  49.983  1.00  0.00     0.270 C 
HETATM   16  N1  UNL     1      19.976   2.281  50.260  1.00  0.00     0.090 N 
HETATM   17  H11 UNL     1      19.424   3.035  50.685  1.00  0.00     0.316 HD
ENDBRANCH   9  10
ENDBRANCH   7   9
ENDBRANCH   1   7
BRANCH   4  18
HETATM   18  N3  UNL     1      26.950   1.285  53.561  1.00  0.00    -0.379 N 
BRANCH  18  19
HETATM   19  C12 UNL     1      26.545   0.233  54.430  1.00  0.00     0.138 C 
BRANCH  19  20
HETATM   20  C13 UNL     1      25.688  -0.825  53.773  1.00  0.00     0.134 C 
HETATM   21 CL1  UNL     1      26.632  -1.537  52.435  1.00  0.00    -0.129 Cl
ENDBRANCH  19  20
ENDBRANCH  18  19
BRANCH  18  22
HETATM   22  C14 UNL     1      28.385   1.429  53.582  1.00  0.00     0.138 C 
BRANCH  22  23
HETATM   23  C15 UNL     1      29.055   0.444  54.509  1.00  0.00     0.134 C 
HETATM   24 CL2  UNL     1      30.000  -0.707  53.567  1.00  0.00    -0.129 Cl
ENDBRANCH  22  23
ENDBRANCH  18  22
ENDBRANCH   4  18
TORSDOF 8
ENDMDL
MODEL 4
REMARK VINA RESULT:      -6.4      3.799      5.232
REMARK  8 active torsions:
REMARK  status: ('A' for Active; 'I' for Inactive)
REMARK    1  A    between atoms: C6_7  and  C7_8 
REMARK    2  A    between atoms: C7_8  and  N2_9 
REMARK    3  A    between atoms: N2_9  and  C8_10 
REMARK    4  A    between atoms: C11_13  and  N3_14 
REMARK    5  A    between atoms: N3_14  and  C12_15 
REMARK    6  A    between atoms: N3_14  and  C14_18 
REMARK    7  A    between atoms: C12_15  and  C13_16 
REMARK    8  A    between atoms: C14_18  and  C15_19 
ROOT
HETATM    1  C8  UNL     1      24.617   3.072  51.600  1.00  0.00     0.246 A 
HETATM    2  C9  UNL     1      24.105   1.698  51.260  1.00  0.00     0.011 A 
HETATM    3  C10 UNL     1      22.866   1.276  51.496  1.00  0.00     0.027 A 
HETATM    4  C11 UNL     1      21.866   2.122  52.124  1.00  0.00     0.026 A 
HETATM    5  C16 UNL     1      22.285   3.332  52.449  1.00  0.00     0.005 A 
HETATM    6  C17 UNL     1      23.626   3.944  52.269  1.00  0.00     0.069 A 
ENDROOT
BRANCH   1   7
HETATM    7  N2  UNL     1      25.933   3.032  52.127  1.00  0.00     0.093 N 
HETATM    8  H15 UNL     1      26.207   3.988  52.412  1.00  0.00     0.316 HD
BRANCH   7   9
HETATM    9  C7  UNL     1      26.188   1.987  53.055  1.00  0.00     0.306 C 
BRANCH   9  10
HETATM   10  C6  UNL     1      27.461   1.238  52.849  1.00  0.00     0.252 C 
HETATM   11  C2  UNL     1      27.375  -0.155  53.430  1.00  0.00     0.016 C 
HETATM   12  C1  UNL     1      26.381  -0.910  52.538  1.00  0.00     0.012 C 
HETATM   13  C3  UNL     1      28.681  -0.895  53.278  1.00  0.00     0.008 C 
HETATM   14  C4  UNL     1      29.861  -0.045  53.697  1.00  0.00     0.030 C 
HETATM   15  C5  UNL     1      29.299   1.169  54.389  1.00  0.00     0.270 C 
HETATM   16  N1  UNL     1      28.598   1.969  53.404  1.00  0.00     0.090 N 
HETATM   17  H11 UNL     1      29.234   2.357  52.699  1.00  0.00     0.316 HD
ENDBRANCH   9  10
ENDBRANCH   7   9
ENDBRANCH   1   7
BRANCH   4  18
HETATM   18  N3  UNL     1      20.545   1.672  52.359  1.00  0.00    -0.379 N 
BRANCH  18  19
HETATM   19  C12 UNL     1      20.242   0.435  52.996  1.00  0.00     0.138 C 
BRANCH  19  20
HETATM   20  C13 UNL     1      20.736   0.330  54.422  1.00  0.00     0.134 C 
HETATM   21 CL1  UNL     1      22.140  -0.773  54.432  1.00  0.00    -0.129 Cl
ENDBRANCH  19  20
ENDBRANCH  18  19
BRANCH  18  22
HETATM   22  C14 UNL     1      19.329   2.364  52.005  1.00  0.00     0.138 C 
BRANCH  22  23
HETATM   23  C15 UNL     1      18.550   1.656  50.924  1.00  0.00     0.134 C 
HETATM   24 CL2  UNL     1      19.607   1.321  49.554  1.00  0.00    -0.129 Cl
ENDBRANCH  22  23
ENDBRANCH  18  22
ENDBRANCH   4  18
TORSDOF 8
ENDMDL
MODEL 5
REMARK VINA RESULT:      -6.3      5.043      8.241
REMARK  8 active torsions:
REMARK  status: ('A' for Active; 'I' for Inactive)
REMARK    1  A    between atoms: C6_7  and  C7_8 
REMARK    2  A    between atoms: C7_8  and  N2_9 
REMARK    3  A    between atoms: N2_9  and  C8_10 
REMARK    4  A    between atoms: C11_13  and  N3_14 
REMARK    5  A    between atoms: N3_14  and  C12_15 
REMARK    6  A    between atoms: N3_14  and  C14_18 
REMARK    7  A    between atoms: C12_15  and  C13_16 
REMARK    8  A    between atoms: C14_18  and  C15_19 
ROOT
HETATM    1  C8  UNL     1      21.990  -1.426  54.268  1.00  0.00     0.246 A 
HETATM    2  C9  UNL     1      22.462  -0.664  53.059  1.00  0.00     0.011 A 
HETATM    3  C10 UNL     1      23.677  -0.142  52.924  1.00  0.00     0.027 A 
HETATM    4  C11 UNL     1      24.689  -0.259  53.960  1.00  0.00     0.026 A 
HETATM    5  C16 UNL     1      24.305  -0.911  55.043  1.00  0.00     0.005 A 
HETATM    6  C17 UNL     1      22.992  -1.533  55.351  1.00  0.00     0.069 A 
ENDROOT
BRANCH   1   7
HETATM    7  N2  UNL     1      20.658  -1.087  54.622  1.00  0.00     0.093 N 
HETATM    8  H15 UNL     1      20.623  -0.898  55.639  1.00  0.00     0.316 HD
BRANCH   7   9
HETATM    9  C7  UNL     1      20.021  -0.145  53.771  1.00  0.00     0.306 C 
BRANCH   9  10
HETATM   10  C6  UNL     1      19.049  -0.715  52.793  1.00  0.00     0.252 C 
HETATM   11  C2  UNL     1      18.573   0.338  51.820  1.00  0.00     0.016 C 
HETATM   12  C1  UNL     1      19.790   0.668  50.946  1.00  0.00     0.012 C 
HETATM   13  C3  UNL     1      17.544  -0.219  50.868  1.00  0.00     0.008 C 
HETATM   14  C4  UNL     1      16.482  -1.019  51.592  1.00  0.00     0.030 C 
HETATM   15  C5  UNL     1      16.666  -0.754  53.063  1.00  0.00     0.270 C 
HETATM   16  N1  UNL     1      17.922  -1.345  53.478  1.00  0.00     0.090 N 
HETATM   17  H11 UNL     1      17.907  -2.370  53.409  1.00  0.00     0.316 HD
ENDBRANCH   9  10
ENDBRANCH   7   9
ENDBRANCH   1   7
BRANCH   4  18
HETATM   18  N3  UNL     1      25.987   0.285  53.805  1.00  0.00    -0.379 N 
BRANCH  18  19
HETATM   19  C12 UNL     1      27.156  -0.512  53.651  1.00  0.00     0.138 C 
BRANCH  19  20
HETATM   20  C13 UNL     1      27.009  -1.654  52.671  1.00  0.00     0.134 C 
HETATM   21 CL1  UNL     1      28.394  -2.756  52.906  1.00  0.00    -0.129 Cl
ENDBRANCH  19  20
ENDBRANCH  18  19
BRANCH  18  22
HETATM   22  C14 UNL     1      26.328   1.687  53.778  1.00  0.00     0.138 C 
BRANCH  22  23
HETATM   23  C15 UNL     1      27.446   1.995  52.811  1.00  0.00     0.134 C 
HETATM   24 CL2  UNL     1      28.837   2.621  53.694  1.00  0.00    -0.129 Cl
ENDBRANCH  22  23
ENDBRANCH  18  22
ENDBRANCH   4  18
TORSDOF 8
ENDMDL
MODEL 6
REMARK VINA RESULT:      -6.3      3.453      7.157
REMARK  8 active torsions:
REMARK  status: ('A' for Active; 'I' for Inactive)
REMARK    1  A    between atoms: C6_7  and  C7_8 
REMARK    2  A    between atoms: C7_8  and  N2_9 
REMARK    3  A    between atoms: N2_9  and  C8_10 
REMARK    4  A    between atoms: C11_13  and  N3_14 
REMARK    5  A    between atoms: N3_14  and  C12_15 
REMARK    6  A    between atoms: N3_14  and  C14_18 
REMARK    7  A    between atoms: C12_15  and  C13_16 
REMARK    8  A    between atoms: C14_18  and  C15_19 
ROOT
HETATM    1  C8  UNL     1      22.889   3.843  51.176  1.00  0.00     0.246 A 
HETATM    2  C9  UNL     1      22.528   2.470  50.676  1.00  0.00     0.011 A 
HETATM    3  C10 UNL     1      22.866   1.334  51.280  1.00  0.00     0.027 A 
HETATM    4  C11 UNL     1      23.639   1.313  52.510  1.00  0.00     0.026 A 
HETATM    5  C16 UNL     1      23.986   2.501  52.971  1.00  0.00     0.005 A 
HETATM    6  C17 UNL     1      23.703   3.847  52.411  1.00  0.00     0.069 A 
ENDROOT
BRANCH   1   7
HETATM    7  N2  UNL     1      23.276   4.707  50.119  1.00  0.00     0.093 N 
HETATM    8  H15 UNL     1      22.435   5.195  49.764  1.00  0.00     0.316 HD
BRANCH   7   9
HETATM    9  C7  UNL     1      24.423   5.505  50.372  1.00  0.00     0.306 C 
BRANCH   9  10
HETATM   10  C6  UNL     1      25.411   5.584  49.257  1.00  0.00     0.252 C 
HETATM   11  C2  UNL     1      26.690   4.859  49.609  1.00  0.00     0.016 C 
HETATM   12  C1  UNL     1      26.321   3.370  49.639  1.00  0.00     0.012 C 
HETATM   13  C3  UNL     1      27.714   4.988  48.510  1.00  0.00     0.008 C 
HETATM   14  C4  UNL     1      27.843   6.417  48.025  1.00  0.00     0.030 C 
HETATM   15  C5  UNL     1      27.091   7.278  49.006  1.00  0.00     0.270 C 
HETATM   16  N1  UNL     1      25.680   6.972  48.889  1.00  0.00     0.090 N 
HETATM   17  H11 UNL     1      25.300   7.247  47.975  1.00  0.00     0.316 HD
ENDBRANCH   9  10
ENDBRANCH   7   9
ENDBRANCH   1   7
BRANCH   4  18
HETATM   18  N3  UNL     1      23.984   0.102  53.157  1.00  0.00    -0.379 N 
BRANCH  18  19
HETATM   19  C12 UNL     1      25.297  -0.189  53.624  1.00  0.00     0.138 C 
BRANCH  19  20
HETATM   20  C13 UNL     1      26.331  -0.331  52.530  1.00  0.00     0.134 C 
HETATM   21 CL1  UNL     1      26.804  -2.051  52.447  1.00  0.00    -0.129 Cl
ENDBRANCH  19  20
ENDBRANCH  18  19
BRANCH  18  22
HETATM   22  C14 UNL     1      23.096  -1.000  53.440  1.00  0.00     0.138 C 
BRANCH  22  23
HETATM   23  C15 UNL     1      22.405  -0.862  54.775  1.00  0.00     0.134 C 
HETATM   24 CL2  UNL     1      20.977   0.156  54.600  1.00  0.00    -0.129 Cl
ENDBRANCH  22  23
ENDBRANCH  18  22
ENDBRANCH   4  18
TORSDOF 8
ENDMDL
MODEL 7
REMARK VINA RESULT:      -6.3      1.510      2.839
REMARK  8 active torsions:
REMARK  status: ('A' for Active; 'I' for Inactive)
REMARK    1  A    between atoms: C6_7  and  C7_8 
REMARK    2  A    between atoms: C7_8  and  N2_9 
REMARK    3  A    between atoms: N2_9  and  C8_10 
REMARK    4  A    between atoms: C11_13  and  N3_14 
REMARK    5  A    between atoms: N3_14  and  C12_15 
REMARK    6  A    between atoms: N3_14  and  C14_18 
REMARK    7  A    between atoms: C12_15  and  C13_16 
REMARK    8  A    between atoms: C14_18  and  C15_19 
ROOT
HETATM    1  C8  UNL     1      23.773   1.009  53.119  1.00  0.00     0.246 A 
HETATM    2  C9  UNL     1      24.369   2.391  53.082  1.00  0.00     0.011 A 
HETATM    3  C10 UNL     1      24.096   3.306  52.157  1.00  0.00     0.027 A 
HETATM    4  C11 UNL     1      23.176   3.048  51.062  1.00  0.00     0.026 A 
HETATM    5  C16 UNL     1      22.645   1.839  51.053  1.00  0.00     0.005 A 
HETATM    6  C17 UNL     1      22.856   0.711  51.997  1.00  0.00     0.069 A 
ENDROOT
BRANCH   1   7
HETATM    7  N2  UNL     1      24.734   0.027  53.475  1.00  0.00     0.093 N 
HETATM    8  H15 UNL     1      24.258  -0.887  53.559  1.00  0.00     0.316 HD
BRANCH   7   9
HETATM    9  C7  UNL     1      25.943   0.058  52.730  1.00  0.00     0.306 C 
BRANCH   9  10
HETATM   10  C6  UNL     1      27.190  -0.169  53.516  1.00  0.00     0.252 C 
HETATM   11  C2  UNL     1      28.327   0.676  52.992  1.00  0.00     0.016 C 
HETATM   12  C1  UNL     1      27.957   2.123  53.340  1.00  0.00     0.012 C 
HETATM   13  C3  UNL     1      29.606   0.404  53.744  1.00  0.00     0.008 C 
HETATM   14  C4  UNL     1      29.864  -1.079  53.898  1.00  0.00     0.030 C 
HETATM   15  C5  UNL     1      28.884  -1.787  52.999  1.00  0.00     0.270 C 
HETATM   16  N1  UNL     1      27.552  -1.585  53.532  1.00  0.00     0.090 N 
HETATM   17  H11 UNL     1      27.428  -2.041  54.443  1.00  0.00     0.316 HD
ENDBRANCH   9  10
ENDBRANCH   7   9
ENDBRANCH   1   7
BRANCH   4  18
HETATM   18  N3  UNL     1      22.878   4.030  50.087  1.00  0.00    -0.379 N 
BRANCH  18  19
HETATM   19  C12 UNL     1      23.683   4.257  48.935  1.00  0.00     0.138 C 
BRANCH  19  20
HETATM   20  C13 UNL     1      24.817   5.236  49.147  1.00  0.00     0.134 C 
HETATM   21 CL1  UNL     1      26.324   4.294  49.322  1.00  0.00    -0.129 Cl
ENDBRANCH  19  20
ENDBRANCH  18  19
BRANCH  18  22
HETATM   22  C14 UNL     1      21.752   4.933  50.098  1.00  0.00     0.138 C 
BRANCH  22  23
HETATM   23  C15 UNL     1      21.752   5.847  51.299  1.00  0.00     0.134 C 
HETATM   24 CL2  UNL     1      21.604   7.521  50.768  1.00  0.00    -0.129 Cl
ENDBRANCH  22  23
ENDBRANCH  18  22
ENDBRANCH   4  18
TORSDOF 8
ENDMDL
MODEL 8
REMARK VINA RESULT:      -6.3      3.139      7.619
REMARK  8 active torsions:
REMARK  status: ('A' for Active; 'I' for Inactive)
REMARK    1  A    between atoms: C6_7  and  C7_8 
REMARK    2  A    between atoms: C7_8  and  N2_9 
REMARK    3  A    between atoms: N2_9  and  C8_10 
REMARK    4  A    between atoms: C11_13  and  N3_14 
REMARK    5  A    between atoms: N3_14  and  C12_15 
REMARK    6  A    between atoms: N3_14  and  C14_18 
REMARK    7  A    between atoms: C12_15  and  C13_16 
REMARK    8  A    between atoms: C14_18  and  C15_19 
ROOT
HETATM    1  C8  UNL     1      24.051   3.499  51.050  1.00  0.00     0.246 A 
HETATM    2  C9  UNL     1      25.391   2.972  50.610  1.00  0.00     0.011 A 
HETATM    3  C10 UNL     1      26.248   2.335  51.402  1.00  0.00     0.027 A 
HETATM    4  C11 UNL     1      25.967   2.087  52.806  1.00  0.00     0.026 A 
HETATM    5  C16 UNL     1      24.805   2.549  53.232  1.00  0.00     0.005 A 
HETATM    6  C17 UNL     1      23.754   3.285  52.484  1.00  0.00     0.069 A 
ENDROOT
BRANCH   1   7
HETATM    7  N2  UNL     1      23.775   4.774  50.494  1.00  0.00     0.093 N 
HETATM    8  H15 UNL     1      23.054   4.668  49.760  1.00  0.00     0.316 HD
BRANCH   7   9
HETATM    9  C7  UNL     1      23.584   5.822  51.435  1.00  0.00     0.306 C 
BRANCH   9  10
HETATM   10  C6  UNL     1      24.144   7.148  51.044  1.00  0.00     0.252 C 
HETATM   11  C2  UNL     1      23.603   7.595  49.705  1.00  0.00     0.016 C 
HETATM   12  C1  UNL     1      22.119   7.903  49.945  1.00  0.00     0.012 C 
HETATM   13  C3  UNL     1      24.213   8.907  49.277  1.00  0.00     0.008 C 
HETATM   14  C4  UNL     1      25.717   8.911  49.449  1.00  0.00     0.030 C 
HETATM   15  C5  UNL     1      26.126   7.490  49.736  1.00  0.00     0.270 C 
HETATM   16  N1  UNL     1      25.605   7.121  51.037  1.00  0.00     0.090 N 
HETATM   17  H11 UNL     1      26.039   7.663  51.794  1.00  0.00     0.316 HD
ENDBRANCH   9  10
ENDBRANCH   7   9
ENDBRANCH   1   7
BRANCH   4  18
HETATM   18  N3  UNL     1      26.877   1.397  53.642  1.00  0.00    -0.379 N 
BRANCH  18  19
HETATM   19  C12 UNL     1      28.268   1.697  53.700  1.00  0.00     0.138 C 
BRANCH  19  20
HETATM   20  C13 UNL     1      29.076   0.752  54.560  1.00  0.00     0.134 C 
HETATM   21 CL1  UNL     1      30.006  -0.314  53.472  1.00  0.00    -0.129 Cl
ENDBRANCH  19  20
ENDBRANCH  18  19
BRANCH  18  22
HETATM   22  C14 UNL     1      26.561   0.312  54.540  1.00  0.00     0.138 C 
BRANCH  22  23
HETATM   23  C15 UNL     1      25.791  -0.796  53.864  1.00  0.00     0.134 C 
HETATM   24 CL2  UNL     1      26.692  -1.376  52.465  1.00  0.00    -0.129 Cl
ENDBRANCH  22  23
ENDBRANCH  18  22
ENDBRANCH   4  18
TORSDOF 8
ENDMDL
MODEL 9
REMARK VINA RESULT:      -6.1      3.655      4.664
REMARK  8 active torsions:
REMARK  status: ('A' for Active; 'I' for Inactive)
REMARK    1  A    between atoms: C6_7  and  C7_8 
REMARK    2  A    between atoms: C7_8  and  N2_9 
REMARK    3  A    between atoms: N2_9  and  C8_10 
REMARK    4  A    between atoms: C11_13  and  N3_14 
REMARK    5  A    between atoms: N3_14  and  C12_15 
REMARK    6  A    between atoms: N3_14  and  C14_18 
REMARK    7  A    between atoms: C12_15  and  C13_16 
REMARK    8  A    between atoms: C14_18  and  C15_19 
ROOT
HETATM    1  C8  UNL     1      24.304   1.683  53.164  1.00  0.00     0.246 A 
HETATM    2  C9  UNL     1      23.928   2.907  52.374  1.00  0.00     0.011 A 
HETATM    3  C10 UNL     1      22.787   3.053  51.708  1.00  0.00     0.027 A 
HETATM    4  C11 UNL     1      21.771   2.015  51.676  1.00  0.00     0.026 A 
HETATM    5  C16 UNL     1      22.073   0.919  52.348  1.00  0.00     0.005 A 
HETATM    6  C17 UNL     1      23.299   0.598  53.123  1.00  0.00     0.069 A 
ENDROOT
BRANCH   1   7
HETATM    7  N2  UNL     1      25.668   1.335  52.987  1.00  0.00     0.093 N 
HETATM    8  H15 UNL     1      26.090   1.985  52.302  1.00  0.00     0.316 HD
BRANCH   7   9
HETATM    9  C7  UNL     1      26.398   1.096  54.182  1.00  0.00     0.306 C 
BRANCH   9  10
HETATM   10  C6  UNL     1      27.217  -0.151  54.198  1.00  0.00     0.252 C 
HETATM   11  C2  UNL     1      28.480   0.015  53.385  1.00  0.00     0.016 C 
HETATM   12  C1  UNL     1      29.346   1.008  54.172  1.00  0.00     0.012 C 
HETATM   13  C3  UNL     1      29.281  -1.262  53.348  1.00  0.00     0.008 C 
HETATM   14  C4  UNL     1      28.413  -2.462  53.036  1.00  0.00     0.030 C 
HETATM   15  C5  UNL     1      27.076  -1.928  52.593  1.00  0.00     0.270 C 
HETATM   16  N1  UNL     1      26.440  -1.297  53.732  1.00  0.00     0.090 N 
HETATM   17  H11 UNL     1      26.206  -1.975  54.467  1.00  0.00     0.316 HD
ENDBRANCH   9  10
ENDBRANCH   7   9
ENDBRANCH   1   7
BRANCH   4  18
HETATM   18  N3  UNL     1      20.551   2.182  50.977  1.00  0.00    -0.379 N 
BRANCH  18  19
HETATM   19  C12 UNL     1      20.462   2.212  49.557  1.00  0.00     0.138 C 
BRANCH  19  20
HETATM   20  C13 UNL     1      21.273   1.144  48.857  1.00  0.00     0.134 C 
HETATM   21 CL1  UNL     1      22.456   1.963  47.800  1.00  0.00    -0.129 Cl
ENDBRANCH  19  20
ENDBRANCH  18  19
BRANCH  18  22
HETATM   22  C14 UNL     1      19.243   2.344  51.565  1.00  0.00     0.138 C 
BRANCH  22  23
HETATM   23  C15 UNL     1      18.250   1.323  51.066  1.00  0.00     0.134 C 
HETATM   24 CL2  UNL     1      18.641  -0.260  51.735  1.00  0.00    -0.129 Cl
ENDBRANCH  22  23
ENDBRANCH  18  22
ENDBRANCH   4  18
TORSDOF 8
ENDMDL
