MODEL 1
REMARK VINA RESULT:      -7.8      0.000      0.000
REMARK  5 active torsions:
REMARK  status: ('A' for Active; 'I' for Inactive)
REMARK    1  A    between atoms: O1_2  and  C2_3 
REMARK    2  A    between atoms: N1_9  and  C8_10 
REMARK    3  A    between atoms: C8_10  and  C9_11 
REMARK       I    between atoms: C9_11  and  N2_13 
REMARK    4  A    between atoms: N2_13  and  C10_14 
REMARK    5  A    between atoms: C13_17  and  N3_18 
ROOT
HETATM    1  C9  UNL     1      31.222   6.904  47.994  1.00  0.00     0.276 C 
HETATM    2  O2  UNL     1      31.357   6.980  49.223  1.00  0.00    -0.268 OA
HETATM    3  N2  UNL     1      29.997   6.631  47.394  1.00  0.00    -0.323 N 
HETATM    4  H9  UNL     1      30.090   6.611  46.357  1.00  0.00     0.169 HD
ENDROOT
BRANCH   1   5
HETATM    5  C8  UNL     1      32.589   7.162  47.480  1.00  0.00     0.215 A 
HETATM    6  C21 UNL     1      33.321   8.140  48.362  1.00  0.00     0.054 A 
HETATM    7  C22 UNL     1      33.392   9.134  47.474  1.00  0.00     0.087 A 
HETATM    8  N5  UNL     1      32.699   8.266  46.579  1.00  0.00    -0.362 N 
HETATM    9  H27 UNL     1      32.536   8.731  45.648  1.00  0.00     0.162 HD
BRANCH   5  10
HETATM   10  N1  UNL     1      33.377   6.006  47.139  1.00  0.00    -0.299 N 
HETATM   11  C2  UNL     1      33.035   5.230  45.983  1.00  0.00     0.146 C 
HETATM   12  C3  UNL     1      33.286   3.916  45.858  1.00  0.00     0.056 C 
HETATM   13  C4  UNL     1      33.926   2.960  46.780  1.00  0.00     0.004 C 
HETATM   14  C5  UNL     1      34.668   3.233  47.832  1.00  0.00     0.002 C 
HETATM   15  C6  UNL     1      35.042   4.562  48.349  1.00  0.00     0.017 C 
HETATM   16  C7  UNL     1      34.473   5.734  48.037  1.00  0.00     0.096 C 
BRANCH  11  17
HETATM   17  O1  UNL     1      32.417   5.968  44.996  1.00  0.00    -0.341 OA
HETATM   18  C1  UNL     1      32.862   6.059  43.665  1.00  0.00     0.211 C 
ENDBRANCH  11  17
ENDBRANCH   5  10
ENDBRANCH   1   5
BRANCH   3  19
HETATM   19  C10 UNL     1      28.769   6.404  48.018  1.00  0.00     0.035 A 
HETATM   20  C11 UNL     1      27.820   7.322  48.358  1.00  0.00     0.032 A 
HETATM   21  C12 UNL     1      26.619   7.039  48.974  1.00  0.00     0.031 A 
HETATM   22  C13 UNL     1      26.332   5.725  49.282  1.00  0.00     0.030 A 
HETATM   23  C19 UNL     1      27.262   4.761  48.957  1.00  0.00     0.031 A 
HETATM   24  C20 UNL     1      28.433   5.107  48.347  1.00  0.00     0.032 A 
BRANCH  22  25
HETATM   25  N3  UNL     1      25.140   5.283  49.916  1.00  0.00    -0.378 N 
HETATM   26  C14 UNL     1      24.354   6.149  50.807  1.00  0.00     0.153 C 
HETATM   27  C15 UNL     1      23.019   5.551  51.100  1.00  0.00     0.291 C 
HETATM   28  N4  UNL     1      23.111   4.250  51.734  1.00  0.00     0.087 N 
HETATM   29  C16 UNL     1      21.811   3.647  51.738  1.00  0.00     0.310 C 
HETATM   30  C17 UNL     1      24.124   3.419  51.120  1.00  0.00     0.291 C 
HETATM   31  C18 UNL     1      24.556   3.964  49.777  1.00  0.00     0.153 C 
ENDBRANCH  22  25
ENDBRANCH   3  19
TORSDOF 5
ENDMDL
MODEL 2
REMARK VINA RESULT:      -7.8      4.158     10.520
REMARK  5 active torsions:
REMARK  status: ('A' for Active; 'I' for Inactive)
REMARK    1  A    between atoms: O1_2  and  C2_3 
REMARK    2  A    between atoms: N1_9  and  C8_10 
REMARK    3  A    between atoms: C8_10  and  C9_11 
REMARK       I    between atoms: C9_11  and  N2_13 
REMARK    4  A    between atoms: N2_13  and  C10_14 
REMARK    5  A    between atoms: C13_17  and  N3_18 
ROOT
HETATM    1  C9  UNL     1      22.929   2.810  50.671  1.00  0.00     0.276 C 
HETATM    2  O2  UNL     1      22.764   3.773  51.433  1.00  0.00    -0.268 OA
HETATM    3  N2  UNL     1      23.898   2.807  49.672  1.00  0.00    -0.323 N 
HETATM    4  H9  UNL     1      23.879   1.911  49.143  1.00  0.00     0.169 HD
ENDROOT
BRANCH   1   5
HETATM    5  C8  UNL     1      21.907   1.835  51.121  1.00  0.00     0.215 A 
HETATM    6  C21 UNL     1      21.571   0.859  50.024  1.00  0.00     0.054 A 
HETATM    7  C22 UNL     1      20.313   1.260  49.832  1.00  0.00     0.087 A 
HETATM    8  N5  UNL     1      20.553   2.215  50.864  1.00  0.00    -0.362 N 
HETATM    9  H27 UNL     1      19.700   2.807  51.040  1.00  0.00     0.162 HD
BRANCH   5  10
HETATM   10  N1  UNL     1      22.138   1.201  52.393  1.00  0.00    -0.299 N 
HETATM   11  C2  UNL     1      23.365   0.495  52.621  1.00  0.00     0.146 C 
HETATM   12  C3  UNL     1      23.490  -0.545  53.463  1.00  0.00     0.056 C 
HETATM   13  C4  UNL     1      22.501  -1.216  54.326  1.00  0.00     0.004 C 
HETATM   14  C5  UNL     1      21.320  -0.767  54.695  1.00  0.00     0.002 C 
HETATM   15  C6  UNL     1      20.695   0.519  54.335  1.00  0.00     0.017 C 
HETATM   16  C7  UNL     1      21.063   1.343  53.345  1.00  0.00     0.096 C 
BRANCH  11  17
HETATM   17  O1  UNL     1      24.422   0.989  51.886  1.00  0.00    -0.341 OA
HETATM   18  C1  UNL     1      25.778   0.777  52.190  1.00  0.00     0.211 C 
ENDBRANCH  11  17
ENDBRANCH   5  10
ENDBRANCH   1   5
BRANCH   3  19
HETATM   19  C10 UNL     1      24.807   3.818  49.357  1.00  0.00     0.035 A 
HETATM   20  C11 UNL     1      24.537   5.108  49.008  1.00  0.00     0.032 A 
HETATM   21  C12 UNL     1      25.480   6.068  48.707  1.00  0.00     0.031 A 
HETATM   22  C13 UNL     1      26.813   5.718  48.756  1.00  0.00     0.030 A 
HETATM   23  C19 UNL     1      27.136   4.423  49.104  1.00  0.00     0.031 A 
HETATM   24  C20 UNL     1      26.153   3.520  49.390  1.00  0.00     0.032 A 
BRANCH  22  25
HETATM   25  N3  UNL     1      27.894   6.596  48.472  1.00  0.00    -0.378 N 
HETATM   26  C14 UNL     1      29.273   6.116  48.294  1.00  0.00     0.153 C 
HETATM   27  C15 UNL     1      30.145   7.182  47.724  1.00  0.00     0.291 C 
HETATM   28  N4  UNL     1      30.205   8.367  48.558  1.00  0.00     0.087 N 
HETATM   29  C16 UNL     1      30.841   9.419  47.819  1.00  0.00     0.310 C 
HETATM   30  C17 UNL     1      28.903   8.736  49.069  1.00  0.00     0.291 C 
HETATM   31  C18 UNL     1      27.790   8.033  48.324  1.00  0.00     0.153 C 
ENDBRANCH  22  25
ENDBRANCH   3  19
TORSDOF 5
ENDMDL
MODEL 3
REMARK VINA RESULT:      -7.4      2.805      9.797
REMARK  5 active torsions:
REMARK  status: ('A' for Active; 'I' for Inactive)
REMARK    1  A    between atoms: O1_2  and  C2_3 
REMARK    2  A    between atoms: N1_9  and  C8_10 
REMARK    3  A    between atoms: C8_10  and  C9_11 
REMARK       I    between atoms: C9_11  and  N2_13 
REMARK    4  A    between atoms: N2_13  and  C10_14 
REMARK    5  A    between atoms: C13_17  and  N3_18 
ROOT
HETATM    1  C9  UNL     1      24.078   6.003  49.946  1.00  0.00     0.276 C 
HETATM    2  O2  UNL     1      24.594   6.453  50.979  1.00  0.00    -0.268 OA
HETATM    3  N2  UNL     1      24.810   5.779  48.784  1.00  0.00    -0.323 N 
HETATM    4  H9  UNL     1      24.199   5.399  48.031  1.00  0.00     0.169 HD
ENDROOT
BRANCH   1   5
HETATM    5  C8  UNL     1      22.656   5.822  50.323  1.00  0.00     0.215 A 
HETATM    6  C21 UNL     1      21.793   6.891  49.704  1.00  0.00     0.054 A 
HETATM    7  C22 UNL     1      21.449   7.497  50.842  1.00  0.00     0.087 A 
HETATM    8  N5  UNL     1      22.249   6.518  51.502  1.00  0.00    -0.362 N 
HETATM    9  H27 UNL     1      22.242   6.663  52.546  1.00  0.00     0.162 HD
BRANCH   5  10
HETATM   10  N1  UNL     1      22.112   4.497  50.170  1.00  0.00    -0.299 N 
HETATM   11  C2  UNL     1      22.581   3.436  51.013  1.00  0.00     0.146 C 
HETATM   12  C3  UNL     1      22.601   2.142  50.654  1.00  0.00     0.056 C 
HETATM   13  C4  UNL     1      22.189   1.478  49.404  1.00  0.00     0.004 C 
HETATM   14  C5  UNL     1      21.430   1.966  48.446  1.00  0.00     0.002 C 
HETATM   15  C6  UNL     1      20.804   3.300  48.388  1.00  0.00     0.017 C 
HETATM   16  C7  UNL     1      21.115   4.367  49.136  1.00  0.00     0.096 C 
BRANCH  11  17
HETATM   17  O1  UNL     1      23.014   3.874  52.247  1.00  0.00    -0.341 OA
HETATM   18  C1  UNL     1      24.077   3.305  52.971  1.00  0.00     0.211 C 
ENDBRANCH  11  17
ENDBRANCH   5  10
ENDBRANCH   1   5
BRANCH   3  19
HETATM   19  C10 UNL     1      26.170   6.003  48.572  1.00  0.00     0.035 A 
HETATM   20  C11 UNL     1      26.782   7.169  48.217  1.00  0.00     0.032 A 
HETATM   21  C12 UNL     1      28.138   7.332  48.021  1.00  0.00     0.031 A 
HETATM   22  C13 UNL     1      28.963   6.240  48.192  1.00  0.00     0.030 A 
HETATM   23  C19 UNL     1      28.390   5.038  48.550  1.00  0.00     0.031 A 
HETATM   24  C20 UNL     1      27.039   4.943  48.729  1.00  0.00     0.032 A 
BRANCH  22  25
HETATM   25  N3  UNL     1      30.374   6.256  48.024  1.00  0.00    -0.378 N 
HETATM   26  C14 UNL     1      31.149   5.034  47.759  1.00  0.00     0.153 C 
HETATM   27  C15 UNL     1      32.542   5.360  47.340  1.00  0.00     0.291 C 
HETATM   28  N4  UNL     1      33.267   6.123  48.337  1.00  0.00     0.087 N 
HETATM   29  C16 UNL     1      34.483   6.609  47.752  1.00  0.00     0.310 C 
HETATM   30  C17 UNL     1      32.454   7.170  48.915  1.00  0.00     0.291 C 
HETATM   31  C18 UNL     1      31.213   7.434  48.090  1.00  0.00     0.153 C 
ENDBRANCH  22  25
ENDBRANCH   3  19
TORSDOF 5
ENDMDL
MODEL 4
REMARK VINA RESULT:      -7.2      8.732     14.681
REMARK  5 active torsions:
REMARK  status: ('A' for Active; 'I' for Inactive)
REMARK    1  A    between atoms: O1_2  and  C2_3 
REMARK    2  A    between atoms: N1_9  and  C8_10 
REMARK    3  A    between atoms: C8_10  and  C9_11 
REMARK       I    between atoms: C9_11  and  N2_13 
REMARK    4  A    between atoms: N2_13  and  C10_14 
REMARK    5  A    between atoms: C13_17  and  N3_18 
ROOT
HETATM    1  C9  UNL     1      18.077   2.812  51.633  1.00  0.00     0.276 C 
HETATM    2  O2  UNL     1      18.610   3.857  52.033  1.00  0.00    -0.268 OA
HETATM    3  N2  UNL     1      18.757   1.600  51.586  1.00  0.00    -0.323 N 
HETATM    4  H9  UNL     1      18.139   0.844  51.223  1.00  0.00     0.169 HD
ENDROOT
BRANCH   1   5
HETATM    5  C8  UNL     1      16.701   3.239  51.284  1.00  0.00     0.215 A 
HETATM    6  C21 UNL     1      16.326   2.773  49.901  1.00  0.00     0.054 A 
HETATM    7  C22 UNL     1      16.256   3.981  49.338  1.00  0.00     0.087 A 
HETATM    8  N5  UNL     1      16.610   4.501  50.619  1.00  0.00    -0.362 N 
HETATM    9  H27 UNL     1      16.668   5.553  50.598  1.00  0.00     0.162 HD
BRANCH   5  10
HETATM   10  N1  UNL     1      15.679   2.984  52.265  1.00  0.00    -0.299 N 
HETATM   11  C2  UNL     1      15.145   1.661  52.406  1.00  0.00     0.146 C 
HETATM   12  C3  UNL     1      13.900   1.392  52.831  1.00  0.00     0.056 C 
HETATM   13  C4  UNL     1      12.802   2.288  53.240  1.00  0.00     0.004 C 
HETATM   14  C5  UNL     1      12.883   3.561  53.565  1.00  0.00     0.002 C 
HETATM   15  C6  UNL     1      14.091   4.405  53.599  1.00  0.00     0.017 C 
HETATM   16  C7  UNL     1      15.275   4.136  53.034  1.00  0.00     0.096 C 
BRANCH  11  17
HETATM   17  O1  UNL     1      16.044   0.672  52.062  1.00  0.00    -0.341 OA
HETATM   18  C1  UNL     1      16.092  -0.606  52.646  1.00  0.00     0.211 C 
ENDBRANCH  11  17
ENDBRANCH   5  10
ENDBRANCH   1   5
BRANCH   3  19
HETATM   19  C10 UNL     1      20.079   1.343  51.953  1.00  0.00     0.035 A 
HETATM   20  C11 UNL     1      20.548   0.946  53.170  1.00  0.00     0.032 A 
HETATM   21  C12 UNL     1      21.871   0.706  53.476  1.00  0.00     0.031 A 
HETATM   22  C13 UNL     1      22.817   0.874  52.485  1.00  0.00     0.030 A 
HETATM   23  C19 UNL     1      22.389   1.275  51.237  1.00  0.00     0.031 A 
HETATM   24  C20 UNL     1      21.064   1.497  50.999  1.00  0.00     0.032 A 
BRANCH  22  25
HETATM   25  N3  UNL     1      24.212   0.664  52.652  1.00  0.00    -0.378 N 
HETATM   26  C14 UNL     1      25.216   1.355  51.827  1.00  0.00     0.153 C 
HETATM   27  C15 UNL     1      26.585   1.185  52.391  1.00  0.00     0.291 C 
HETATM   28  N4  UNL     1      26.988  -0.205  52.487  1.00  0.00     0.087 N 
HETATM   29  C16 UNL     1      28.187  -0.285  53.268  1.00  0.00     0.310 C 
HETATM   30  C17 UNL     1      25.922  -1.044  52.989  1.00  0.00     0.291 C 
HETATM   31  C18 UNL     1      24.817  -0.226  53.621  1.00  0.00     0.153 C 
ENDBRANCH  22  25
ENDBRANCH   3  19
TORSDOF 5
ENDMDL
MODEL 5
REMARK VINA RESULT:      -6.9      3.330      9.761
REMARK  5 active torsions:
REMARK  status: ('A' for Active; 'I' for Inactive)
REMARK    1  A    between atoms: O1_2  and  C2_3 
REMARK    2  A    between atoms: N1_9  and  C8_10 
REMARK    3  A    between atoms: C8_10  and  C9_11 
REMARK       I    between atoms: C9_11  and  N2_13 
REMARK    4  A    between atoms: N2_13  and  C10_14 
REMARK    5  A    between atoms: C13_17  and  N3_18 
ROOT
HETATM    1  C9  UNL     1      24.434   5.174  50.223  1.00  0.00     0.276 C 
HETATM    2  O2  UNL     1      24.795   5.970  51.102  1.00  0.00    -0.268 OA
HETATM    3  N2  UNL     1      25.190   4.931  49.081  1.00  0.00    -0.323 N 
HETATM    4  H9  UNL     1      24.719   4.233  48.469  1.00  0.00     0.169 HD
ENDROOT
BRANCH   1   5
HETATM    5  C8  UNL     1      23.138   4.663  50.732  1.00  0.00     0.215 A 
HETATM    6  C21 UNL     1      21.984   5.285  49.990  1.00  0.00     0.054 A 
HETATM    7  C22 UNL     1      21.489   5.980  51.016  1.00  0.00     0.087 A 
HETATM    8  N5  UNL     1      22.557   5.433  51.788  1.00  0.00    -0.362 N 
HETATM    9  H27 UNL     1      22.523   5.777  52.783  1.00  0.00     0.162 HD
BRANCH   5  10
HETATM   10  N1  UNL     1      23.018   3.235  50.872  1.00  0.00    -0.299 N 
HETATM   11  C2  UNL     1      22.580   2.447  49.757  1.00  0.00     0.146 C 
HETATM   12  C3  UNL     1      21.921   1.283  49.871  1.00  0.00     0.056 C 
HETATM   13  C4  UNL     1      21.486   0.529  51.060  1.00  0.00     0.004 C 
HETATM   14  C5  UNL     1      21.897   0.678  52.302  1.00  0.00     0.002 C 
HETATM   15  C6  UNL     1      22.897   1.636  52.808  1.00  0.00     0.017 C 
HETATM   16  C7  UNL     1      23.360   2.723  52.177  1.00  0.00     0.096 C 
BRANCH  11  17
HETATM   17  O1  UNL     1      22.905   3.004  48.537  1.00  0.00    -0.341 OA
HETATM   18  C1  UNL     1      22.254   2.713  47.325  1.00  0.00     0.211 C 
ENDBRANCH  11  17
ENDBRANCH   5  10
ENDBRANCH   1   5
BRANCH   3  19
HETATM   19  C10 UNL     1      26.415   5.498  48.728  1.00  0.00     0.035 A 
HETATM   20  C11 UNL     1      27.636   4.893  48.684  1.00  0.00     0.032 A 
HETATM   21  C12 UNL     1      28.819   5.505  48.325  1.00  0.00     0.031 A 
HETATM   22  C13 UNL     1      28.788   6.840  47.976  1.00  0.00     0.030 A 
HETATM   23  C19 UNL     1      27.575   7.495  48.006  1.00  0.00     0.031 A 
HETATM   24  C20 UNL     1      26.440   6.830  48.371  1.00  0.00     0.032 A 
BRANCH  22  25
HETATM   25  N3  UNL     1      29.922   7.602  47.586  1.00  0.00    -0.378 N 
HETATM   26  C14 UNL     1      30.722   7.272  46.397  1.00  0.00     0.153 C 
HETATM   27  C15 UNL     1      31.658   8.379  46.053  1.00  0.00     0.291 C 
HETATM   28  N4  UNL     1      32.586   8.688  47.124  1.00  0.00     0.087 N 
HETATM   29  C16 UNL     1      33.259   9.914  46.812  1.00  0.00     0.310 C 
HETATM   30  C17 UNL     1      31.934   8.706  48.416  1.00  0.00     0.291 C 
HETATM   31  C18 UNL     1      30.429   8.768  48.281  1.00  0.00     0.153 C 
ENDBRANCH  22  25
ENDBRANCH   3  19
TORSDOF 5
ENDMDL
MODEL 6
REMARK VINA RESULT:      -6.8      8.976     13.829
REMARK  5 active torsions:
REMARK  status: ('A' for Active; 'I' for Inactive)
REMARK    1  A    between atoms: O1_2  and  C2_3 
REMARK    2  A    between atoms: N1_9  and  C8_10 
REMARK    3  A    between atoms: C8_10  and  C9_11 
REMARK       I    between atoms: C9_11  and  N2_13 
REMARK    4  A    between atoms: N2_13  and  C10_14 
REMARK    5  A    between atoms: C13_17  and  N3_18 
ROOT
HETATM    1  C9  UNL     1      19.180   2.329  51.223  1.00  0.00     0.276 C 
HETATM    2  O2  UNL     1      19.319   3.008  52.251  1.00  0.00    -0.268 OA
HETATM    3  N2  UNL     1      20.145   1.424  50.792  1.00  0.00    -0.323 N 
HETATM    4  H9  UNL     1      19.843   0.953  49.914  1.00  0.00     0.169 HD
ENDROOT
BRANCH   1   5
HETATM    5  C8  UNL     1      17.856   2.751  50.708  1.00  0.00     0.215 A 
HETATM    6  C21 UNL     1      17.977   3.337  49.325  1.00  0.00     0.054 A 
HETATM    7  C22 UNL     1      17.637   4.586  49.650  1.00  0.00     0.087 A 
HETATM    8  N5  UNL     1      17.502   4.107  50.987  1.00  0.00    -0.362 N 
HETATM    9  H27 UNL     1      17.211   4.880  51.640  1.00  0.00     0.162 HD
BRANCH   5  10
HETATM   10  N1  UNL     1      16.784   1.796  50.827  1.00  0.00    -0.299 N 
HETATM   11  C2  UNL     1      15.860   1.900  51.919  1.00  0.00     0.146 C 
HETATM   12  C3  UNL     1      15.210   0.854  52.456  1.00  0.00     0.056 C 
HETATM   13  C4  UNL     1      15.243  -0.581  52.124  1.00  0.00     0.004 C 
HETATM   14  C5  UNL     1      15.703  -1.142  51.025  1.00  0.00     0.002 C 
HETATM   15  C6  UNL     1      16.297  -0.470  49.854  1.00  0.00     0.017 C 
HETATM   16  C7  UNL     1      16.753   0.788  49.796  1.00  0.00     0.096 C 
BRANCH  11  17
HETATM   17  O1  UNL     1      15.697   3.192  52.372  1.00  0.00    -0.341 OA
HETATM   18  C1  UNL     1      14.611   3.639  53.146  1.00  0.00     0.211 C 
ENDBRANCH  11  17
ENDBRANCH   5  10
ENDBRANCH   1   5
BRANCH   3  19
HETATM   19  C10 UNL     1      21.370   1.127  51.391  1.00  0.00     0.035 A 
HETATM   20  C11 UNL     1      21.619   0.235  52.392  1.00  0.00     0.032 A 
HETATM   21  C12 UNL     1      22.856  -0.020  52.946  1.00  0.00     0.031 A 
HETATM   22  C13 UNL     1      23.947   0.674  52.465  1.00  0.00     0.030 A 
HETATM   23  C19 UNL     1      23.745   1.588  51.453  1.00  0.00     0.031 A 
HETATM   24  C20 UNL     1      22.493   1.793  50.947  1.00  0.00     0.032 A 
BRANCH  22  25
HETATM   25  N3  UNL     1      25.278   0.520  52.937  1.00  0.00    -0.378 N 
HETATM   26  C14 UNL     1      26.188  -0.507  52.406  1.00  0.00     0.153 C 
HETATM   27  C15 UNL     1      27.590  -0.267  52.853  1.00  0.00     0.291 C 
HETATM   28  N4  UNL     1      27.730  -0.271  54.296  1.00  0.00     0.087 N 
HETATM   29  C16 UNL     1      29.035   0.219  54.634  1.00  0.00     0.310 C 
HETATM   30  C17 UNL     1      26.661   0.455  54.947  1.00  0.00     0.291 C 
HETATM   31  C18 UNL     1      25.901   1.323  53.969  1.00  0.00     0.153 C 
ENDBRANCH  22  25
ENDBRANCH   3  19
TORSDOF 5
ENDMDL
MODEL 7
REMARK VINA RESULT:      -6.7      9.625     16.527
REMARK  5 active torsions:
REMARK  status: ('A' for Active; 'I' for Inactive)
REMARK    1  A    between atoms: O1_2  and  C2_3 
REMARK    2  A    between atoms: N1_9  and  C8_10 
REMARK    3  A    between atoms: C8_10  and  C9_11 
REMARK       I    between atoms: C9_11  and  N2_13 
REMARK    4  A    between atoms: N2_13  and  C10_14 
REMARK    5  A    between atoms: C13_17  and  N3_18 
ROOT
HETATM    1  C9  UNL     1      15.135   0.937  51.902  1.00  0.00     0.276 C 
HETATM    2  O2  UNL     1      15.277   0.541  53.068  1.00  0.00    -0.268 OA
HETATM    3  N2  UNL     1      16.213   1.315  51.108  1.00  0.00    -0.323 N 
HETATM    4  H9  UNL     1      15.889   1.615  50.165  1.00  0.00     0.169 HD
ENDROOT
BRANCH   1   5
HETATM    5  C8  UNL     1      13.669   0.875  51.693  1.00  0.00     0.215 A 
HETATM    6  C21 UNL     1      13.138  -0.503  51.990  1.00  0.00     0.054 A 
HETATM    7  C22 UNL     1      12.778  -0.808  50.742  1.00  0.00     0.087 A 
HETATM    8  N5  UNL     1      13.261   0.485  50.380  1.00  0.00    -0.362 N 
HETATM    9  H27 UNL     1      13.145   0.658  49.348  1.00  0.00     0.162 HD
BRANCH   5  10
HETATM   10  N1  UNL     1      12.888   1.925  52.295  1.00  0.00    -0.299 N 
HETATM   11  C2  UNL     1      12.996   3.265  51.797  1.00  0.00     0.146 C 
HETATM   12  C3  UNL     1      12.796   4.364  52.543  1.00  0.00     0.056 C 
HETATM   13  C4  UNL     1      12.439   4.516  53.965  1.00  0.00     0.004 C 
HETATM   14  C5  UNL     1      11.946   3.602  54.773  1.00  0.00     0.002 C 
HETATM   15  C6  UNL     1      11.629   2.198  54.453  1.00  0.00     0.017 C 
HETATM   16  C7  UNL     1      12.045   1.502  53.387  1.00  0.00     0.096 C 
BRANCH  11  17
HETATM   17  O1  UNL     1      13.329   3.323  50.460  1.00  0.00    -0.341 OA
HETATM   18  C1  UNL     1      14.285   4.195  49.909  1.00  0.00     0.211 C 
ENDBRANCH  11  17
ENDBRANCH   5  10
ENDBRANCH   1   5
BRANCH   3  19
HETATM   19  C10 UNL     1      17.566   1.323  51.447  1.00  0.00     0.035 A 
HETATM   20  C11 UNL     1      18.378   0.252  51.678  1.00  0.00     0.032 A 
HETATM   21  C12 UNL     1      19.715   0.319  52.010  1.00  0.00     0.031 A 
HETATM   22  C13 UNL     1      20.302   1.563  52.123  1.00  0.00     0.030 A 
HETATM   23  C19 UNL     1      19.521   2.676  51.899  1.00  0.00     0.031 A 
HETATM   24  C20 UNL     1      18.202   2.541  51.574  1.00  0.00     0.032 A 
BRANCH  22  25
HETATM   25  N3  UNL     1      21.664   1.789  52.458  1.00  0.00    -0.378 N 
HETATM   26  C14 UNL     1      22.401   2.977  52.000  1.00  0.00     0.153 C 
HETATM   27  C15 UNL     1      23.699   3.117  52.720  1.00  0.00     0.291 C 
HETATM   28  N4  UNL     1      24.571   1.972  52.540  1.00  0.00     0.087 N 
HETATM   29  C16 UNL     1      25.663   2.075  53.463  1.00  0.00     0.310 C 
HETATM   30  C17 UNL     1      23.851   0.721  52.644  1.00  0.00     0.291 C 
HETATM   31  C18 UNL     1      22.486   0.912  53.267  1.00  0.00     0.153 C 
ENDBRANCH  22  25
ENDBRANCH   3  19
TORSDOF 5
ENDMDL
MODEL 8
REMARK VINA RESULT:      -6.5      7.518      9.846
REMARK  5 active torsions:
REMARK  status: ('A' for Active; 'I' for Inactive)
REMARK    1  A    between atoms: O1_2  and  C2_3 
REMARK    2  A    between atoms: N1_9  and  C8_10 
REMARK    3  A    between atoms: C8_10  and  C9_11 
REMARK       I    between atoms: C9_11  and  N2_13 
REMARK    4  A    between atoms: N2_13  and  C10_14 
REMARK    5  A    between atoms: C13_17  and  N3_18 
ROOT
HETATM    1  C9  UNL     1      24.720   2.812  52.139  1.00  0.00     0.276 C 
HETATM    2  O2  UNL     1      25.223   2.893  51.009  1.00  0.00    -0.268 OA
HETATM    3  N2  UNL     1      23.785   3.731  52.605  1.00  0.00    -0.323 N 
HETATM    4  H9  UNL     1      23.483   3.491  53.573  1.00  0.00     0.169 HD
ENDROOT
BRANCH   1   5
HETATM    5  C8  UNL     1      25.357   1.603  52.714  1.00  0.00     0.215 A 
HETATM    6  C21 UNL     1      26.374   1.976  53.761  1.00  0.00     0.054 A 
HETATM    7  C22 UNL     1      27.451   1.557  53.095  1.00  0.00     0.087 A 
HETATM    8  N5  UNL     1      26.551   1.177  52.055  1.00  0.00    -0.362 N 
HETATM    9  H27 UNL     1      27.068   0.752  51.241  1.00  0.00     0.162 HD
BRANCH   5  10
HETATM   10  N1  UNL     1      24.472   0.547  53.133  1.00  0.00    -0.299 N 
HETATM   11  C2  UNL     1      23.147   0.474  52.590  1.00  0.00     0.146 C 
HETATM   12  C3  UNL     1      22.096  -0.054  53.239  1.00  0.00     0.056 C 
HETATM   13  C4  UNL     1      21.991  -0.660  54.579  1.00  0.00     0.004 C 
HETATM   14  C5  UNL     1      22.970  -1.092  55.345  1.00  0.00     0.002 C 
HETATM   15  C6  UNL     1      24.415  -1.076  55.051  1.00  0.00     0.017 C 
HETATM   16  C7  UNL     1      25.033  -0.365  54.099  1.00  0.00     0.096 C 
BRANCH  11  17
HETATM   17  O1  UNL     1      23.049   1.003  51.320  1.00  0.00    -0.341 OA
HETATM   18  C1  UNL     1      21.856   1.098  50.581  1.00  0.00     0.211 C 
ENDBRANCH  11  17
ENDBRANCH   5  10
ENDBRANCH   1   5
BRANCH   3  19
HETATM   19  C10 UNL     1      23.270   4.844  51.939  1.00  0.00     0.035 A 
HETATM   20  C11 UNL     1      23.934   5.970  51.552  1.00  0.00     0.032 A 
HETATM   21  C12 UNL     1      23.372   7.042  50.892  1.00  0.00     0.031 A 
HETATM   22  C13 UNL     1      22.027   6.995  50.588  1.00  0.00     0.030 A 
HETATM   23  C19 UNL     1      21.313   5.876  50.961  1.00  0.00     0.031 A 
HETATM   24  C20 UNL     1      21.930   4.847  51.612  1.00  0.00     0.032 A 
BRANCH  22  25
HETATM   25  N3  UNL     1      21.311   8.021  49.915  1.00  0.00    -0.378 N 
HETATM   26  C14 UNL     1      21.987   9.137  49.235  1.00  0.00     0.153 C 
HETATM   27  C15 UNL     1      21.036   9.898  48.374  1.00  0.00     0.291 C 
HETATM   28  N4  UNL     1      19.924  10.456  49.118  1.00  0.00     0.087 N 
HETATM   29  C16 UNL     1      18.943  10.936  48.190  1.00  0.00     0.310 C 
HETATM   30  C17 UNL     1      19.389   9.516  50.080  1.00  0.00     0.291 C 
HETATM   31  C18 UNL     1      19.869   8.107  49.810  1.00  0.00     0.153 C 
ENDBRANCH  22  25
ENDBRANCH   3  19
TORSDOF 5
ENDMDL
MODEL 9
REMARK VINA RESULT:      -6.5      3.634     10.129
REMARK  5 active torsions:
REMARK  status: ('A' for Active; 'I' for Inactive)
REMARK    1  A    between atoms: O1_2  and  C2_3 
REMARK    2  A    between atoms: N1_9  and  C8_10 
REMARK    3  A    between atoms: C8_10  and  C9_11 
REMARK       I    between atoms: C9_11  and  N2_13 
REMARK    4  A    between atoms: N2_13  and  C10_14 
REMARK    5  A    between atoms: C13_17  and  N3_18 
ROOT
HETATM    1  C9  UNL     1      24.915   3.553  50.663  1.00  0.00     0.276 C 
HETATM    2  O2  UNL     1      25.941   3.159  51.236  1.00  0.00    -0.268 OA
HETATM    3  N2  UNL     1      24.929   4.600  49.747  1.00  0.00    -0.323 N 
HETATM    4  H9  UNL     1      23.972   4.780  49.377  1.00  0.00     0.169 HD
ENDROOT
BRANCH   1   5
HETATM    5  C8  UNL     1      23.855   2.670  51.207  1.00  0.00     0.215 A 
HETATM    6  C21 UNL     1      23.767   2.793  52.706  1.00  0.00     0.054 A 
HETATM    7  C22 UNL     1      24.181   1.558  52.993  1.00  0.00     0.087 A 
HETATM    8  N5  UNL     1      24.292   1.363  51.584  1.00  0.00    -0.362 N 
HETATM    9  H27 UNL     1      24.633   0.391  51.360  1.00  0.00     0.162 HD
BRANCH   5  10
HETATM   10  N1  UNL     1      22.572   2.728  50.556  1.00  0.00    -0.299 N 
HETATM   11  C2  UNL     1      21.632   3.744  50.931  1.00  0.00     0.146 C 
HETATM   12  C3  UNL     1      20.299   3.605  50.846  1.00  0.00     0.056 C 
HETATM   13  C4  UNL     1      19.471   2.474  50.387  1.00  0.00     0.004 C 
HETATM   14  C5  UNL     1      19.853   1.435  49.676  1.00  0.00     0.002 C 
HETATM   15  C6  UNL     1      21.205   1.145  49.163  1.00  0.00     0.017 C 
HETATM   16  C7  UNL     1      22.353   1.712  49.556  1.00  0.00     0.096 C 
BRANCH  11  17
HETATM   17  O1  UNL     1      22.232   4.897  51.393  1.00  0.00    -0.341 OA
HETATM   18  C1  UNL     1      21.851   6.201  51.030  1.00  0.00     0.211 C 
ENDBRANCH  11  17
ENDBRANCH   5  10
ENDBRANCH   1   5
BRANCH   3  19
HETATM   19  C10 UNL     1      26.024   5.356  49.326  1.00  0.00     0.035 A 
HETATM   20  C11 UNL     1      27.179   4.910  48.754  1.00  0.00     0.032 A 
HETATM   21  C12 UNL     1      28.232   5.707  48.355  1.00  0.00     0.031 A 
HETATM   22  C13 UNL     1      28.131   7.070  48.538  1.00  0.00     0.030 A 
HETATM   23  C19 UNL     1      26.981   7.568  49.113  1.00  0.00     0.031 A 
HETATM   24  C20 UNL     1      25.974   6.725  49.487  1.00  0.00     0.032 A 
BRANCH  22  25
HETATM   25  N3  UNL     1      29.131   8.013  48.179  1.00  0.00    -0.378 N 
HETATM   26  C14 UNL     1      30.451   7.607  47.675  1.00  0.00     0.153 C 
HETATM   27  C15 UNL     1      31.191   8.770  47.104  1.00  0.00     0.291 C 
HETATM   28  N4  UNL     1      31.406   9.830  48.069  1.00  0.00     0.087 N 
HETATM   29  C16 UNL     1      31.881  10.993  47.377  1.00  0.00     0.310 C 
HETATM   30  C17 UNL     1      30.226  10.083  48.867  1.00  0.00     0.291 C 
HETATM   31  C18 UNL     1      28.993   9.453  48.257  1.00  0.00     0.153 C 
ENDBRANCH  22  25
ENDBRANCH   3  19
TORSDOF 5
ENDMDL
