MODEL 1
REMARK VINA RESULT:      -7.4      0.000      0.000
REMARK  7 active torsions:
REMARK  status: ('A' for Active; 'I' for Inactive)
REMARK    1  A    between atoms: C2_2  and  C3_3 
REMARK    2  A    between atoms: C3_3  and  C5_5 
REMARK    3  A    between atoms: C3_3  and  C14_15 
REMARK    4  A    between atoms: C5_5  and  C6_6 
REMARK    5  A    between atoms: C6_6  and  N1_7 
REMARK    6  A    between atoms: N1_7  and  C7_8 
REMARK    7  A    between atoms: C14_15  and  C15_16 
ROOT
HETATM    1  C3  UNL     1      27.067  -0.428  53.082  1.00  0.00    -0.022 C 
HETATM    2  C4  UNL     1      26.790  -1.852  52.660  1.00  0.00     0.020 C 
ENDROOT
BRANCH   1   3
HETATM    3  C2  UNL     1      28.506  -0.326  53.463  1.00  0.00    -0.027 C 
HETATM    4  C1  UNL     1      29.246  -1.405  53.323  1.00  0.00     0.007 C 
ENDBRANCH   1   3
BRANCH   1   5
HETATM    5  C5  UNL     1      26.796   0.527  51.930  1.00  0.00     0.032 C 
BRANCH   5   6
HETATM    6  C6  UNL     1      27.231   1.937  52.237  1.00  0.00     0.115 C 
BRANCH   6   7
HETATM    7  N1  UNL     1      26.321   2.886  51.848  1.00  0.00    -0.414 N 
HETATM    8  H11 UNL     1      26.643   3.896  51.930  1.00  0.00     0.153 HD
BRANCH   7   9
HETATM    9  C7  UNL     1      24.972   2.801  51.667  1.00  0.00     0.103 C 
HETATM   10  C8  UNL     1      24.049   3.361  52.681  1.00  0.00    -0.002 C 
HETATM   11  C9  UNL     1      22.720   3.394  52.465  1.00  0.00    -0.001 C 
HETATM   12  C10 UNL     1      21.910   2.950  51.332  1.00  0.00     0.012 C 
HETATM   13  C11 UNL     1      22.395   2.170  50.417  1.00  0.00    -0.030 C 
HETATM   14  C12 UNL     1      23.482   2.467  49.723  1.00  0.00    -0.012 C 
HETATM   15  C13 UNL     1      24.556   3.334  50.314  1.00  0.00     0.056 C 
ENDBRANCH   7   9
ENDBRANCH   6   7
ENDBRANCH   5   6
ENDBRANCH   1   5
BRANCH   1  16
HETATM   16  C14 UNL     1      26.274  -0.032  54.283  1.00  0.00     0.051 C 
BRANCH  16  17
HETATM   17  C15 UNL     1      24.843  -0.410  54.198  1.00  0.00    -0.057 A 
HETATM   18  C16 UNL     1      23.953  -0.172  53.184  1.00  0.00     0.007 A 
HETATM   19  C17 UNL     1      22.634  -0.566  53.207  1.00  0.00     0.001 A 
HETATM   20  C18 UNL     1      22.167  -1.251  54.331  1.00  0.00     0.000 A 
HETATM   21  C19 UNL     1      23.021  -1.526  55.400  1.00  0.00     0.001 A 
HETATM   22  C20 UNL     1      24.314  -1.099  55.292  1.00  0.00     0.007 A 
ENDBRANCH  16  17
ENDBRANCH   1  16
TORSDOF 7
ENDMDL
MODEL 2
REMARK VINA RESULT:      -7.3      1.499      5.096
REMARK  7 active torsions:
REMARK  status: ('A' for Active; 'I' for Inactive)
REMARK    1  A    between atoms: C2_2  and  C3_3 
REMARK    2  A    between atoms: C3_3  and  C5_5 
REMARK    3  A    between atoms: C3_3  and  C14_15 
REMARK    4  A    between atoms: C5_5  and  C6_6 
REMARK    5  A    between atoms: C6_6  and  N1_7 
REMARK    6  A    between atoms: N1_7  and  C7_8 
REMARK    7  A    between atoms: C14_15  and  C15_16 
ROOT
HETATM    1  C3  UNL     1      24.627   2.322  52.107  1.00  0.00    -0.022 C 
HETATM    2  C4  UNL     1      23.637   3.386  51.696  1.00  0.00     0.020 C 
ENDROOT
BRANCH   1   3
HETATM    3  C2  UNL     1      25.864   2.495  51.291  1.00  0.00    -0.027 C 
HETATM    4  C1  UNL     1      25.792   3.296  50.249  1.00  0.00     0.007 C 
ENDBRANCH   1   3
BRANCH   1   5
HETATM    5  C5  UNL     1      24.985   2.472  53.578  1.00  0.00     0.032 C 
BRANCH   5   6
HETATM    6  C6  UNL     1      26.468   2.366  53.823  1.00  0.00     0.115 C 
BRANCH   6   7
HETATM    7  N1  UNL     1      26.829   1.234  54.507  1.00  0.00    -0.414 N 
HETATM    8  H11 UNL     1      26.813   1.309  55.566  1.00  0.00     0.153 HD
BRANCH   7   9
HETATM    9  C7  UNL     1      27.501   0.122  54.091  1.00  0.00     0.103 C 
HETATM   10  C8  UNL     1      26.794  -0.933  53.328  1.00  0.00    -0.002 C 
HETATM   11  C9  UNL     1      27.464  -1.978  52.806  1.00  0.00    -0.001 C 
HETATM   12  C10 UNL     1      28.881  -2.333  52.835  1.00  0.00     0.012 C 
HETATM   13  C11 UNL     1      29.707  -1.762  53.655  1.00  0.00    -0.030 C 
HETATM   14  C12 UNL     1      29.875  -0.450  53.707  1.00  0.00    -0.012 C 
HETATM   15  C13 UNL     1      28.759   0.482  53.332  1.00  0.00     0.056 C 
ENDBRANCH   7   9
ENDBRANCH   6   7
ENDBRANCH   5   6
ENDBRANCH   1   5
BRANCH   1  16
HETATM   16  C14 UNL     1      24.120   0.945  51.834  1.00  0.00     0.051 C 
BRANCH  16  17
HETATM   17  C15 UNL     1      23.177   0.447  52.864  1.00  0.00    -0.057 A 
HETATM   18  C16 UNL     1      23.388  -0.498  53.834  1.00  0.00     0.007 A 
HETATM   19  C17 UNL     1      22.436  -0.894  54.746  1.00  0.00     0.001 A 
HETATM   20  C18 UNL     1      21.173  -0.300  54.685  1.00  0.00     0.000 A 
HETATM   21  C19 UNL     1      20.890   0.669  53.721  1.00  0.00     0.001 A 
HETATM   22  C20 UNL     1      21.895   1.002  52.857  1.00  0.00     0.007 A 
ENDBRANCH  16  17
ENDBRANCH   1  16
TORSDOF 7
ENDMDL
MODEL 3
REMARK VINA RESULT:      -7.3      1.293      5.156
REMARK  7 active torsions:
REMARK  status: ('A' for Active; 'I' for Inactive)
REMARK    1  A    between atoms: C2_2  and  C3_3 
REMARK    2  A    between atoms: C3_3  and  C5_5 
REMARK    3  A    between atoms: C3_3  and  C14_15 
REMARK    4  A    between atoms: C5_5  and  C6_6 
REMARK    5  A    between atoms: C6_6  and  N1_7 
REMARK    6  A    between atoms: N1_7  and  C7_8 
REMARK    7  A    between atoms: C14_15  and  C15_16 
ROOT
HETATM    1  C3  UNL     1      23.549   2.470  51.425  1.00  0.00    -0.022 C 
HETATM    2  C4  UNL     1      22.909   3.567  52.243  1.00  0.00     0.020 C 
ENDROOT
BRANCH   1   3
HETATM    3  C2  UNL     1      23.825   3.007  50.060  1.00  0.00    -0.027 C 
HETATM    4  C1  UNL     1      22.955   2.725  49.113  1.00  0.00     0.007 C 
ENDBRANCH   1   3
BRANCH   1   5
HETATM    5  C5  UNL     1      24.863   2.038  52.057  1.00  0.00     0.032 C 
BRANCH   5   6
HETATM    6  C6  UNL     1      25.135   2.748  53.359  1.00  0.00     0.115 C 
BRANCH   6   7
HETATM    7  N1  UNL     1      26.402   2.540  53.840  1.00  0.00    -0.414 N 
HETATM    8  H11 UNL     1      26.905   3.401  54.206  1.00  0.00     0.153 HD
BRANCH   7   9
HETATM    9  C7  UNL     1      27.260   1.495  53.658  1.00  0.00     0.103 C 
HETATM   10  C8  UNL     1      28.708   1.669  53.919  1.00  0.00    -0.002 C 
HETATM   11  C9  UNL     1      29.553   0.621  53.860  1.00  0.00    -0.001 C 
HETATM   12  C10 UNL     1      29.326  -0.792  53.563  1.00  0.00     0.012 C 
HETATM   13  C11 UNL     1      28.221  -1.203  53.025  1.00  0.00    -0.030 C 
HETATM   14  C12 UNL     1      27.032  -0.964  53.555  1.00  0.00    -0.012 C 
HETATM   15  C13 UNL     1      26.798   0.259  54.395  1.00  0.00     0.056 C 
ENDBRANCH   7   9
ENDBRANCH   6   7
ENDBRANCH   5   6
ENDBRANCH   1   5
BRANCH   1  16
HETATM   16  C14 UNL     1      22.645   1.295  51.252  1.00  0.00     0.051 C 
BRANCH  16  17
HETATM   17  C15 UNL     1      22.374   0.566  52.514  1.00  0.00    -0.057 A 
HETATM   18  C16 UNL     1      23.149  -0.371  53.146  1.00  0.00     0.007 A 
HETATM   19  C17 UNL     1      22.800  -0.995  54.322  1.00  0.00     0.001 A 
HETATM   20  C18 UNL     1      21.580  -0.658  54.914  1.00  0.00     0.000 A 
HETATM   21  C19 UNL     1      20.742   0.289  54.323  1.00  0.00     0.001 A 
HETATM   22  C20 UNL     1      21.168   0.858  53.156  1.00  0.00     0.007 A 
ENDBRANCH  16  17
ENDBRANCH   1  16
TORSDOF 7
ENDMDL
MODEL 4
REMARK VINA RESULT:      -7.0      1.507      4.157
REMARK  7 active torsions:
REMARK  status: ('A' for Active; 'I' for Inactive)
REMARK    1  A    between atoms: C2_2  and  C3_3 
REMARK    2  A    between atoms: C3_3  and  C5_5 
REMARK    3  A    between atoms: C3_3  and  C14_15 
REMARK    4  A    between atoms: C5_5  and  C6_6 
REMARK    5  A    between atoms: C6_6  and  N1_7 
REMARK    6  A    between atoms: N1_7  and  C7_8 
REMARK    7  A    between atoms: C14_15  and  C15_16 
ROOT
HETATM    1  C3  UNL     1      25.137   0.205  53.451  1.00  0.00    -0.022 C 
HETATM    2  C4  UNL     1      25.698  -0.221  54.788  1.00  0.00     0.020 C 
ENDROOT
BRANCH   1   3
HETATM    3  C2  UNL     1      23.911  -0.601  53.183  1.00  0.00    -0.027 C 
HETATM    4  C1  UNL     1      22.925  -0.509  54.049  1.00  0.00     0.007 C 
ENDBRANCH   1   3
BRANCH   1   5
HETATM    5  C5  UNL     1      24.760   1.678  53.483  1.00  0.00     0.032 C 
BRANCH   5   6
HETATM    6  C6  UNL     1      24.963   2.352  52.150  1.00  0.00     0.115 C 
BRANCH   6   7
HETATM    7  N1  UNL     1      23.793   2.758  51.559  1.00  0.00    -0.414 N 
HETATM    8  H11 UNL     1      23.808   3.727  51.124  1.00  0.00     0.153 HD
BRANCH   7   9
HETATM    9  C7  UNL     1      22.521   2.283  51.691  1.00  0.00     0.103 C 
HETATM   10  C8  UNL     1      21.440   3.177  52.167  1.00  0.00    -0.002 C 
HETATM   11  C9  UNL     1      20.159   2.763  52.190  1.00  0.00    -0.001 C 
HETATM   12  C10 UNL     1      19.543   1.494  51.809  1.00  0.00     0.012 C 
HETATM   13  C11 UNL     1      20.253   0.426  51.621  1.00  0.00    -0.030 C 
HETATM   14  C12 UNL     1      21.257   0.374  50.760  1.00  0.00    -0.012 C 
HETATM   15  C13 UNL     1      22.044   1.608  50.425  1.00  0.00     0.056 C 
ENDBRANCH   7   9
ENDBRANCH   6   7
ENDBRANCH   5   6
ENDBRANCH   1   5
BRANCH   1  16
HETATM   16  C14 UNL     1      26.085  -0.065  52.330  1.00  0.00     0.051 C 
BRANCH  16  17
HETATM   17  C15 UNL     1      27.425  -0.508  52.783  1.00  0.00    -0.057 A 
HETATM   18  C16 UNL     1      27.926  -1.781  52.860  1.00  0.00     0.007 A 
HETATM   19  C17 UNL     1      29.194  -2.086  53.302  1.00  0.00     0.001 A 
HETATM   20  C18 UNL     1      30.027  -1.037  53.699  1.00  0.00     0.000 A 
HETATM   21  C19 UNL     1      29.579   0.283  53.647  1.00  0.00     0.001 A 
HETATM   22  C20 UNL     1      28.307   0.494  53.194  1.00  0.00     0.007 A 
ENDBRANCH  16  17
ENDBRANCH   1  16
TORSDOF 7
ENDMDL
MODEL 5
REMARK VINA RESULT:      -6.9      1.808      6.566
REMARK  7 active torsions:
REMARK  status: ('A' for Active; 'I' for Inactive)
REMARK    1  A    between atoms: C2_2  and  C3_3 
REMARK    2  A    between atoms: C3_3  and  C5_5 
REMARK    3  A    between atoms: C3_3  and  C14_15 
REMARK    4  A    between atoms: C5_5  and  C6_6 
REMARK    5  A    between atoms: C6_6  and  N1_7 
REMARK    6  A    between atoms: N1_7  and  C7_8 
REMARK    7  A    between atoms: C14_15  and  C15_16 
ROOT
HETATM    1  C3  UNL     1      23.152   2.623  51.464  1.00  0.00    -0.022 C 
HETATM    2  C4  UNL     1      23.010   1.272  52.126  1.00  0.00     0.020 C 
ENDROOT
BRANCH   1   3
HETATM    3  C2  UNL     1      21.808   3.268  51.429  1.00  0.00    -0.027 C 
HETATM    4  C1  UNL     1      21.685   4.441  52.012  1.00  0.00     0.007 C 
ENDBRANCH   1   3
BRANCH   1   5
HETATM    5  C5  UNL     1      24.100   3.505  52.261  1.00  0.00     0.032 C 
BRANCH   5   6
HETATM    6  C6  UNL     1      24.858   2.732  53.311  1.00  0.00     0.115 C 
BRANCH   6   7
HETATM    7  N1  UNL     1      26.214   2.720  53.106  1.00  0.00    -0.414 N 
HETATM    8  H11 UNL     1      26.605   3.535  52.548  1.00  0.00     0.153 HD
BRANCH   7   9
HETATM    9  C7  UNL     1      27.119   1.704  53.215  1.00  0.00     0.103 C 
HETATM   10  C8  UNL     1      28.490   1.980  53.704  1.00  0.00    -0.002 C 
HETATM   11  C9  UNL     1      29.358   0.976  53.932  1.00  0.00    -0.001 C 
HETATM   12  C10 UNL     1      29.227  -0.472  53.786  1.00  0.00     0.012 C 
HETATM   13  C11 UNL     1      28.250  -1.000  53.118  1.00  0.00    -0.030 C 
HETATM   14  C12 UNL     1      26.979  -0.757  53.393  1.00  0.00    -0.012 C 
HETATM   15  C13 UNL     1      26.563   0.546  54.013  1.00  0.00     0.056 C 
ENDBRANCH   7   9
ENDBRANCH   6   7
ENDBRANCH   5   6
ENDBRANCH   1   5
BRANCH   1  16
HETATM   16  C14 UNL     1      23.614   2.510  50.049  1.00  0.00     0.051 C 
BRANCH  16  17
HETATM   17  C15 UNL     1      24.545   3.590  49.643  1.00  0.00    -0.057 A 
HETATM   18  C16 UNL     1      24.256   4.876  49.269  1.00  0.00     0.007 A 
HETATM   19  C17 UNL     1      25.204   5.805  48.904  1.00  0.00     0.001 A 
HETATM   20  C18 UNL     1      26.546   5.420  48.911  1.00  0.00     0.000 A 
HETATM   21  C19 UNL     1      26.911   4.124  49.280  1.00  0.00     0.001 A 
HETATM   22  C20 UNL     1      25.905   3.268  49.629  1.00  0.00     0.007 A 
ENDBRANCH  16  17
ENDBRANCH   1  16
TORSDOF 7
ENDMDL
MODEL 6
REMARK VINA RESULT:      -6.6      2.330      5.002
REMARK  7 active torsions:
REMARK  status: ('A' for Active; 'I' for Inactive)
REMARK    1  A    between atoms: C2_2  and  C3_3 
REMARK    2  A    between atoms: C3_3  and  C5_5 
REMARK    3  A    between atoms: C3_3  and  C14_15 
REMARK    4  A    between atoms: C5_5  and  C6_6 
REMARK    5  A    between atoms: C6_6  and  N1_7 
REMARK    6  A    between atoms: N1_7  and  C7_8 
REMARK    7  A    between atoms: C14_15  and  C15_16 
ROOT
HETATM    1  C3  UNL     1      23.946   1.603  52.224  1.00  0.00    -0.022 C 
HETATM    2  C4  UNL     1      23.978   0.811  53.510  1.00  0.00     0.020 C 
ENDROOT
BRANCH   1   3
HETATM    3  C2  UNL     1      22.755   1.167  51.438  1.00  0.00    -0.027 C 
HETATM    4  C1  UNL     1      21.942   0.301  52.004  1.00  0.00     0.007 C 
ENDBRANCH   1   3
BRANCH   1   5
HETATM    5  C5  UNL     1      23.820   3.089  52.523  1.00  0.00     0.032 C 
BRANCH   5   6
HETATM    6  C6  UNL     1      23.540   3.902  51.285  1.00  0.00     0.115 C 
BRANCH   6   7
HETATM    7  N1  UNL     1      24.338   5.011  51.168  1.00  0.00    -0.414 N 
HETATM    8  H11 UNL     1      23.951   5.906  51.590  1.00  0.00     0.153 HD
BRANCH   7   9
HETATM    9  C7  UNL     1      25.397   5.261  50.344  1.00  0.00     0.103 C 
HETATM   10  C8  UNL     1      26.272   4.150  49.902  1.00  0.00    -0.002 C 
HETATM   11  C9  UNL     1      27.247   4.356  48.997  1.00  0.00    -0.001 C 
HETATM   12  C10 UNL     1      27.672   5.559  48.285  1.00  0.00     0.012 C 
HETATM   13  C11 UNL     1      27.288   6.739  48.659  1.00  0.00    -0.030 C 
HETATM   14  C12 UNL     1      26.014   7.074  48.782  1.00  0.00    -0.012 C 
HETATM   15  C13 UNL     1      24.978   6.040  49.118  1.00  0.00     0.056 C 
ENDBRANCH   7   9
ENDBRANCH   6   7
ENDBRANCH   5   6
ENDBRANCH   1   5
BRANCH   1  16
HETATM   16  C14 UNL     1      25.144   1.344  51.373  1.00  0.00     0.051 C 
BRANCH  16  17
HETATM   17  C15 UNL     1      26.383   1.107  52.151  1.00  0.00    -0.057 A 
HETATM   18  C16 UNL     1      27.224   2.025  52.724  1.00  0.00     0.007 A 
HETATM   19  C17 UNL     1      28.360   1.697  53.428  1.00  0.00     0.001 A 
HETATM   20  C18 UNL     1      28.683   0.346  53.572  1.00  0.00     0.000 A 
HETATM   21  C19 UNL     1      27.870  -0.641  53.014  1.00  0.00     0.001 A 
HETATM   22  C20 UNL     1      26.762  -0.225  52.331  1.00  0.00     0.007 A 
ENDBRANCH  16  17
ENDBRANCH   1  16
TORSDOF 7
ENDMDL
MODEL 7
REMARK VINA RESULT:      -6.4      1.978      3.192
REMARK  7 active torsions:
REMARK  status: ('A' for Active; 'I' for Inactive)
REMARK    1  A    between atoms: C2_2  and  C3_3 
REMARK    2  A    between atoms: C3_3  and  C5_5 
REMARK    3  A    between atoms: C3_3  and  C14_15 
REMARK    4  A    between atoms: C5_5  and  C6_6 
REMARK    5  A    between atoms: C6_6  and  N1_7 
REMARK    6  A    between atoms: N1_7  and  C7_8 
REMARK    7  A    between atoms: C14_15  and  C15_16 
ROOT
HETATM    1  C3  UNL     1      25.059   2.223  52.481  1.00  0.00    -0.022 C 
HETATM    2  C4  UNL     1      25.813   2.932  51.380  1.00  0.00     0.020 C 
ENDROOT
BRANCH   1   3
HETATM    3  C2  UNL     1      26.034   1.850  53.547  1.00  0.00    -0.027 C 
HETATM    4  C1  UNL     1      27.310   2.050  53.296  1.00  0.00     0.007 C 
ENDBRANCH   1   3
BRANCH   1   5
HETATM    5  C5  UNL     1      24.007   3.144  53.078  1.00  0.00     0.032 C 
BRANCH   5   6
HETATM    6  C6  UNL     1      23.770   4.370  52.234  1.00  0.00     0.115 C 
BRANCH   6   7
HETATM    7  N1  UNL     1      22.553   4.373  51.604  1.00  0.00    -0.414 N 
HETATM    8  H11 UNL     1      21.939   5.221  51.786  1.00  0.00     0.153 HD
BRANCH   7   9
HETATM    9  C7  UNL     1      21.847   3.355  51.031  1.00  0.00     0.103 C 
HETATM   10  C8  UNL     1      20.379   3.273  51.216  1.00  0.00    -0.002 C 
HETATM   11  C9  UNL     1      19.650   2.348  50.563  1.00  0.00    -0.001 C 
HETATM   12  C10 UNL     1      20.033   1.301  49.618  1.00  0.00     0.012 C 
HETATM   13  C11 UNL     1      21.270   0.940  49.471  1.00  0.00    -0.030 C 
HETATM   14  C12 UNL     1      22.233   1.791  49.157  1.00  0.00    -0.012 C 
HETATM   15  C13 UNL     1      22.139   3.237  49.552  1.00  0.00     0.056 C 
ENDBRANCH   7   9
ENDBRANCH   6   7
ENDBRANCH   5   6
ENDBRANCH   1   5
BRANCH   1  16
HETATM   16  C14 UNL     1      24.431   0.954  52.008  1.00  0.00     0.051 C 
BRANCH  16  17
HETATM   17  C15 UNL     1      23.595   0.289  53.035  1.00  0.00    -0.057 A 
HETATM   18  C16 UNL     1      23.989  -0.527  54.064  1.00  0.00     0.007 A 
HETATM   19  C17 UNL     1      23.124  -1.101  54.967  1.00  0.00     0.001 A 
HETATM   20  C18 UNL     1      21.758  -0.842  54.833  1.00  0.00     0.000 A 
HETATM   21  C19 UNL     1      21.289  -0.021  53.807  1.00  0.00     0.001 A 
HETATM   22  C20 UNL     1      22.218   0.508  52.956  1.00  0.00     0.007 A 
ENDBRANCH  16  17
ENDBRANCH   1  16
TORSDOF 7
ENDMDL
MODEL 8
REMARK VINA RESULT:      -6.4      1.835      6.513
REMARK  7 active torsions:
REMARK  status: ('A' for Active; 'I' for Inactive)
REMARK    1  A    between atoms: C2_2  and  C3_3 
REMARK    2  A    between atoms: C3_3  and  C5_5 
REMARK    3  A    between atoms: C3_3  and  C14_15 
REMARK    4  A    between atoms: C5_5  and  C6_6 
REMARK    5  A    between atoms: C6_6  and  N1_7 
REMARK    6  A    between atoms: N1_7  and  C7_8 
REMARK    7  A    between atoms: C14_15  and  C15_16 
ROOT
HETATM    1  C3  UNL     1      23.230   2.517  51.524  1.00  0.00    -0.022 C 
HETATM    2  C4  UNL     1      21.843   3.061  51.271  1.00  0.00     0.020 C 
ENDROOT
BRANCH   1   3
HETATM    3  C2  UNL     1      23.835   3.288  52.649  1.00  0.00    -0.027 C 
HETATM    4  C1  UNL     1      23.587   4.579  52.699  1.00  0.00     0.007 C 
ENDBRANCH   1   3
BRANCH   1   5
HETATM    5  C5  UNL     1      23.159   1.050  51.915  1.00  0.00     0.032 C 
BRANCH   5   6
HETATM    6  C6  UNL     1      23.985   0.741  53.138  1.00  0.00     0.115 C 
BRANCH   6   7
HETATM    7  N1  UNL     1      25.099  -0.013  52.869  1.00  0.00    -0.414 N 
HETATM    8  H11 UNL     1      24.918  -1.023  52.595  1.00  0.00     0.153 HD
BRANCH   7   9
HETATM    9  C7  UNL     1      26.410   0.197  53.183  1.00  0.00     0.103 C 
HETATM   10  C8  UNL     1      27.370  -0.930  53.158  1.00  0.00    -0.002 C 
HETATM   11  C9  UNL     1      28.687  -0.723  53.348  1.00  0.00    -0.001 C 
HETATM   12  C10 UNL     1      29.450   0.498  53.600  1.00  0.00     0.012 C 
HETATM   13  C11 UNL     1      28.867   1.601  53.953  1.00  0.00    -0.030 C 
HETATM   14  C12 UNL     1      27.905   2.165  53.240  1.00  0.00    -0.012 C 
HETATM   15  C13 UNL     1      27.001   1.332  52.377  1.00  0.00     0.056 C 
ENDBRANCH   7   9
ENDBRANCH   6   7
ENDBRANCH   5   6
ENDBRANCH   1   5
BRANCH   1  16
HETATM   16  C14 UNL     1      24.129   2.698  50.346  1.00  0.00     0.051 C 
BRANCH  16  17
HETATM   17  C15 UNL     1      23.461   3.335  49.185  1.00  0.00    -0.057 A 
HETATM   18  C16 UNL     1      23.426   4.660  48.838  1.00  0.00     0.007 A 
HETATM   19  C17 UNL     1      22.768   5.150  47.732  1.00  0.00     0.001 A 
HETATM   20  C18 UNL     1      22.092   4.247  46.908  1.00  0.00     0.000 A 
HETATM   21  C19 UNL     1      22.088   2.883  47.205  1.00  0.00     0.001 A 
HETATM   22  C20 UNL     1      22.767   2.484  48.322  1.00  0.00     0.007 A 
ENDBRANCH  16  17
ENDBRANCH   1  16
TORSDOF 7
ENDMDL
MODEL 9
REMARK VINA RESULT:      -6.2      2.865      5.040
REMARK  7 active torsions:
REMARK  status: ('A' for Active; 'I' for Inactive)
REMARK    1  A    between atoms: C2_2  and  C3_3 
REMARK    2  A    between atoms: C3_3  and  C5_5 
REMARK    3  A    between atoms: C3_3  and  C14_15 
REMARK    4  A    between atoms: C5_5  and  C6_6 
REMARK    5  A    between atoms: C6_6  and  N1_7 
REMARK    6  A    between atoms: N1_7  and  C7_8 
REMARK    7  A    between atoms: C14_15  and  C15_16 
ROOT
HETATM    1  C3  UNL     1      24.648   2.512  51.964  1.00  0.00    -0.022 C 
HETATM    2  C4  UNL     1      24.846   2.711  53.448  1.00  0.00     0.020 C 
ENDROOT
BRANCH   1   3
HETATM    3  C2  UNL     1      23.684   1.391  51.768  1.00  0.00    -0.027 C 
HETATM    4  C1  UNL     1      23.266   0.758  52.844  1.00  0.00     0.007 C 
ENDBRANCH   1   3
BRANCH   1   5
HETATM    5  C5  UNL     1      24.072   3.771  51.334  1.00  0.00     0.032 C 
BRANCH   5   6
HETATM    6  C6  UNL     1      23.671   4.796  52.363  1.00  0.00     0.115 C 
BRANCH   6   7
HETATM    7  N1  UNL     1      23.964   6.084  51.994  1.00  0.00    -0.414 N 
HETATM    8  H11 UNL     1      23.875   6.816  52.759  1.00  0.00     0.153 HD
BRANCH   7   9
HETATM    9  C7  UNL     1      24.049   6.656  50.758  1.00  0.00     0.103 C 
HETATM   10  C8  UNL     1      23.237   7.851  50.434  1.00  0.00    -0.002 C 
HETATM   11  C9  UNL     1      23.395   8.500  49.265  1.00  0.00    -0.001 C 
HETATM   12  C10 UNL     1      24.283   8.253  48.131  1.00  0.00     0.012 C 
HETATM   13  C11 UNL     1      24.911   7.127  47.994  1.00  0.00    -0.030 C 
HETATM   14  C12 UNL     1      25.709   6.632  48.927  1.00  0.00    -0.012 C 
HETATM   15  C13 UNL     1      25.483   6.949  50.377  1.00  0.00     0.056 C 
ENDBRANCH   7   9
ENDBRANCH   6   7
ENDBRANCH   5   6
ENDBRANCH   1   5
BRANCH   1  16
HETATM   16  C14 UNL     1      25.913   2.118  51.275  1.00  0.00     0.051 C 
BRANCH  16  17
HETATM   17  C15 UNL     1      26.861   1.388  52.151  1.00  0.00    -0.057 A 
HETATM   18  C16 UNL     1      27.814   1.897  52.993  1.00  0.00     0.007 A 
HETATM   19  C17 UNL     1      28.652   1.125  53.766  1.00  0.00     0.001 A 
HETATM   20  C18 UNL     1      28.529  -0.265  53.691  1.00  0.00     0.000 A 
HETATM   21  C19 UNL     1      27.578  -0.849  52.852  1.00  0.00     0.001 A 
HETATM   22  C20 UNL     1      26.788  -0.006  52.122  1.00  0.00     0.007 A 
ENDBRANCH  16  17
ENDBRANCH   1  16
TORSDOF 7
ENDMDL
