MODEL 1
REMARK VINA RESULT:      -8.1      0.000      0.000
REMARK  7 active torsions:
REMARK  status: ('A' for Active; 'I' for Inactive)
REMARK    1  A    between atoms: C2_2  and  C3_3 
REMARK    2  A    between atoms: C2_2  and  N5_18 
REMARK    3  A    between atoms: C3_3  and  C4_4 
REMARK    4  A    between atoms: C4_4  and  C5_5 
REMARK    5  A    between atoms: C5_5  and  N1_6 
REMARK    6  A    between atoms: N1_6  and  C6_7 
REMARK       I    between atoms: N5_18  and  C14_19 
REMARK    7  A    between atoms: C14_19  and  C15_21 
ROOT
HETATM    1  C4  UNL     1      20.713   1.322  53.159  1.00  0.00     0.093 C 
ENDROOT
BRANCH   1   2
HETATM    2  C3  UNL     1      20.953   2.332  52.335  1.00  0.00    -0.123 C 
BRANCH   2   3
HETATM    3  C2  UNL     1      20.903   3.419  51.610  1.00  0.00     0.050 C 
HETATM    4  C1  UNL     1      19.615   4.018  51.362  1.00  0.00     0.077 C 
BRANCH   3   5
HETATM    5  N5  UNL     1      22.141   3.843  51.177  1.00  0.00    -0.320 N 
HETATM    6  C14 UNL     1      22.942   3.242  50.188  1.00  0.00     0.256 C 
HETATM    7  O1  UNL     1      22.546   2.207  49.598  1.00  0.00    -0.267 OA
HETATM    8  H14 UNL     1      22.500   4.703  51.649  1.00  0.00     0.169 HD
BRANCH   6   9
HETATM    9  C15 UNL     1      24.248   3.750  49.779  1.00  0.00     0.032 A 
HETATM   10  C16 UNL     1      24.332   5.023  49.255  1.00  0.00     0.017 A 
HETATM   11  C17 UNL     1      25.570   5.524  48.858  1.00  0.00     0.007 A 
HETATM   12  C18 UNL     1      26.732   4.792  48.967  1.00  0.00    -0.062 A 
HETATM   13  C19 UNL     1      28.071   5.285  48.557  1.00  0.00     0.048 C 
HETATM   14  C20 UNL     1      26.653   3.519  49.490  1.00  0.00     0.007 A 
HETATM   15  C21 UNL     1      25.425   3.036  49.877  1.00  0.00     0.017 A 
ENDBRANCH   6   9
ENDBRANCH   3   5
ENDBRANCH   2   3
ENDBRANCH   1   2
BRANCH   1  16
HETATM   16  C5  UNL     1      21.804   0.384  53.454  1.00  0.00     0.156 C 
BRANCH  16  17
HETATM   17  N1  UNL     1      22.822   0.538  52.427  1.00  0.00    -0.221 N 
HETATM   18  H7  UNL     1      22.592   0.473  51.408  1.00  0.00     0.177 HD
BRANCH  17  19
HETATM   19  C6  UNL     1      24.190   0.785  52.722  1.00  0.00     0.722 A 
HETATM   20  N2  UNL     1      24.320   2.065  53.149  1.00  0.00    -0.074 NA
HETATM   21  C7  UNL     1      25.543   2.552  53.494  1.00  0.00     0.151 A 
HETATM   22  C8  UNL     1      26.627   1.676  53.385  1.00  0.00     0.025 A 
HETATM   23  C9  UNL     1      26.476   0.378  52.947  1.00  0.00     0.070 A 
HETATM   24  C13 UNL     1      27.870   2.357  53.795  1.00  0.00     0.131 C 
HETATM   25  N3  UNL     1      25.242  -0.045  52.621  1.00  0.00    -0.067 NA
HETATM   26  C10 UNL     1      27.481  -0.659  52.770  1.00  0.00     0.089 C 
HETATM   27  C11 UNL     1      28.610  -0.628  53.722  1.00  0.00    -0.002 C 
HETATM   28  C12 UNL     1      29.247   0.370  54.339  1.00  0.00     0.112 C 
HETATM   29  N4  UNL     1      28.928   1.742  54.184  1.00  0.00    -0.272 NA
ENDBRANCH  17  19
ENDBRANCH  16  17
ENDBRANCH   1  16
TORSDOF 7
ENDMDL
MODEL 2
REMARK VINA RESULT:      -8.0      4.045      6.381
REMARK  7 active torsions:
REMARK  status: ('A' for Active; 'I' for Inactive)
REMARK    1  A    between atoms: C2_2  and  C3_3 
REMARK    2  A    between atoms: C2_2  and  N5_18 
REMARK    3  A    between atoms: C3_3  and  C4_4 
REMARK    4  A    between atoms: C4_4  and  C5_5 
REMARK    5  A    between atoms: C5_5  and  N1_6 
REMARK    6  A    between atoms: N1_6  and  C6_7 
REMARK       I    between atoms: N5_18  and  C14_19 
REMARK    7  A    between atoms: C14_19  and  C15_21 
ROOT
HETATM    1  C4  UNL     1      27.100   4.097  49.190  1.00  0.00     0.093 C 
ENDROOT
BRANCH   1   2
HETATM    2  C3  UNL     1      27.548   5.253  48.720  1.00  0.00    -0.123 C 
BRANCH   2   3
HETATM    3  C2  UNL     1      28.268   6.249  48.274  1.00  0.00     0.050 C 
HETATM    4  C1  UNL     1      27.814   7.593  48.537  1.00  0.00     0.077 C 
BRANCH   3   5
HETATM    5  N5  UNL     1      29.396   5.845  47.595  1.00  0.00    -0.320 N 
HETATM    6  C14 UNL     1      30.653   5.540  48.149  1.00  0.00     0.256 C 
HETATM    7  O1  UNL     1      30.834   5.625  49.388  1.00  0.00    -0.267 OA
HETATM    8  H14 UNL     1      29.279   5.764  46.560  1.00  0.00     0.169 HD
BRANCH   6   9
HETATM    9  C15 UNL     1      31.808   5.115  47.364  1.00  0.00     0.032 A 
HETATM   10  C16 UNL     1      32.519   6.065  46.659  1.00  0.00     0.017 A 
HETATM   11  C17 UNL     1      33.623   5.678  45.903  1.00  0.00     0.007 A 
HETATM   12  C18 UNL     1      34.044   4.368  45.827  1.00  0.00    -0.062 A 
HETATM   13  C19 UNL     1      35.214   3.912  45.036  1.00  0.00     0.048 C 
HETATM   14  C20 UNL     1      33.337   3.416  46.530  1.00  0.00     0.007 A 
HETATM   15  C21 UNL     1      32.248   3.811  47.271  1.00  0.00     0.017 A 
ENDBRANCH   6   9
ENDBRANCH   3   5
ENDBRANCH   2   3
ENDBRANCH   1   2
BRANCH   1  16
HETATM   16  C5  UNL     1      25.746   4.050  49.759  1.00  0.00     0.156 C 
BRANCH  16  17
HETATM   17  N1  UNL     1      25.866   3.849  51.193  1.00  0.00    -0.221 N 
HETATM   18  H7  UNL     1      25.609   4.596  51.879  1.00  0.00     0.177 HD
BRANCH  17  19
HETATM   19  C6  UNL     1      26.335   2.638  51.771  1.00  0.00     0.722 A 
HETATM   20  N2  UNL     1      25.391   1.680  51.601  1.00  0.00    -0.074 NA
HETATM   21  C7  UNL     1      25.600   0.420  52.072  1.00  0.00     0.151 A 
HETATM   22  C8  UNL     1      26.814   0.181  52.722  1.00  0.00     0.025 A 
HETATM   23  C9  UNL     1      27.762   1.168  52.887  1.00  0.00     0.070 A 
HETATM   24  C13 UNL     1      26.881  -1.225  53.167  1.00  0.00     0.131 C 
HETATM   25  N3  UNL     1      27.498   2.393  52.400  1.00  0.00    -0.067 NA
HETATM   26  C10 UNL     1      29.064   1.100  53.533  1.00  0.00     0.089 C 
HETATM   27  C11 UNL     1      29.768  -0.194  53.423  1.00  0.00    -0.002 C 
HETATM   28  C12 UNL     1      29.340  -1.457  53.373  1.00  0.00     0.112 C 
HETATM   29  N4  UNL     1      27.977  -1.844  53.419  1.00  0.00    -0.272 NA
ENDBRANCH  17  19
ENDBRANCH  16  17
ENDBRANCH   1  16
TORSDOF 7
ENDMDL
MODEL 3
REMARK VINA RESULT:      -8.0      1.685      2.477
REMARK  7 active torsions:
REMARK  status: ('A' for Active; 'I' for Inactive)
REMARK    1  A    between atoms: C2_2  and  C3_3 
REMARK    2  A    between atoms: C2_2  and  N5_18 
REMARK    3  A    between atoms: C3_3  and  C4_4 
REMARK    4  A    between atoms: C4_4  and  C5_5 
REMARK    5  A    between atoms: C5_5  and  N1_6 
REMARK    6  A    between atoms: N1_6  and  C6_7 
REMARK       I    between atoms: N5_18  and  C14_19 
REMARK    7  A    between atoms: C14_19  and  C15_21 
ROOT
HETATM    1  C4  UNL     1      20.871  -1.103  54.348  1.00  0.00     0.093 C 
ENDROOT
BRANCH   1   2
HETATM    2  C3  UNL     1      20.416  -0.246  53.445  1.00  0.00    -0.123 C 
BRANCH   2   3
HETATM    3  C2  UNL     1      20.079   0.389  52.353  1.00  0.00     0.050 C 
HETATM    4  C1  UNL     1      18.780   0.130  51.783  1.00  0.00     0.077 C 
BRANCH   3   5
HETATM    5  N5  UNL     1      21.059   1.243  51.895  1.00  0.00    -0.320 N 
HETATM    6  C14 UNL     1      21.128   2.634  52.095  1.00  0.00     0.256 C 
HETATM    7  O1  UNL     1      20.234   3.223  52.751  1.00  0.00    -0.267 OA
HETATM    8  H14 UNL     1      21.819   0.784  51.344  1.00  0.00     0.169 HD
BRANCH   6   9
HETATM    9  C15 UNL     1      22.201   3.479  51.579  1.00  0.00     0.032 A 
HETATM   10  C16 UNL     1      22.824   3.117  50.402  1.00  0.00     0.017 A 
HETATM   11  C17 UNL     1      23.851   3.911  49.895  1.00  0.00     0.007 A 
HETATM   12  C18 UNL     1      24.278   5.058  50.526  1.00  0.00    -0.062 A 
HETATM   13  C19 UNL     1      25.367   5.932  50.022  1.00  0.00     0.048 C 
HETATM   14  C20 UNL     1      23.659   5.423  51.703  1.00  0.00     0.007 A 
HETATM   15  C21 UNL     1      22.647   4.631  52.193  1.00  0.00     0.017 A 
ENDBRANCH   6   9
ENDBRANCH   3   5
ENDBRANCH   2   3
ENDBRANCH   1   2
BRANCH   1  16
HETATM   16  C5  UNL     1      22.293  -1.046  54.713  1.00  0.00     0.156 C 
BRANCH  16  17
HETATM   17  N1  UNL     1      23.076  -1.122  53.492  1.00  0.00    -0.221 N 
HETATM   18  H7  UNL     1      22.753  -1.670  52.661  1.00  0.00     0.177 HD
BRANCH  17  19
HETATM   19  C6  UNL     1      24.327  -0.466  53.329  1.00  0.00     0.722 A 
HETATM   20  N2  UNL     1      24.106   0.863  53.181  1.00  0.00    -0.074 NA
HETATM   21  C7  UNL     1      25.152   1.717  53.006  1.00  0.00     0.151 A 
HETATM   22  C8  UNL     1      26.432   1.155  52.989  1.00  0.00     0.025 A 
HETATM   23  C9  UNL     1      26.637  -0.199  53.140  1.00  0.00     0.070 A 
HETATM   24  C13 UNL     1      27.444   2.210  52.792  1.00  0.00     0.131 C 
HETATM   25  N3  UNL     1      25.564  -0.992  53.310  1.00  0.00    -0.067 NA
HETATM   26  C10 UNL     1      27.884  -0.950  53.145  1.00  0.00     0.089 C 
HETATM   27  C11 UNL     1      29.054  -0.246  53.708  1.00  0.00    -0.002 C 
HETATM   28  C12 UNL     1      29.421   1.037  53.717  1.00  0.00     0.112 C 
HETATM   29  N4  UNL     1      28.679   2.088  53.124  1.00  0.00    -0.272 NA
ENDBRANCH  17  19
ENDBRANCH  16  17
ENDBRANCH   1  16
TORSDOF 7
ENDMDL
MODEL 4
REMARK VINA RESULT:      -7.8      2.027      3.172
REMARK  7 active torsions:
REMARK  status: ('A' for Active; 'I' for Inactive)
REMARK    1  A    between atoms: C2_2  and  C3_3 
REMARK    2  A    between atoms: C2_2  and  N5_18 
REMARK    3  A    between atoms: C3_3  and  C4_4 
REMARK    4  A    between atoms: C4_4  and  C5_5 
REMARK    5  A    between atoms: C5_5  and  N1_6 
REMARK    6  A    between atoms: N1_6  and  C6_7 
REMARK       I    between atoms: N5_18  and  C14_19 
REMARK    7  A    between atoms: C14_19  and  C15_21 
ROOT
HETATM    1  C4  UNL     1      23.330   4.699  52.666  1.00  0.00     0.093 C 
ENDROOT
BRANCH   1   2
HETATM    2  C3  UNL     1      22.993   4.889  51.398  1.00  0.00    -0.123 C 
BRANCH   2   3
HETATM    3  C2  UNL     1      22.960   4.997  50.095  1.00  0.00     0.050 C 
HETATM    4  C1  UNL     1      21.767   4.575  49.403  1.00  0.00     0.077 C 
BRANCH   3   5
HETATM    5  N5  UNL     1      24.118   5.520  49.562  1.00  0.00    -0.320 N 
HETATM    6  C14 UNL     1      25.368   4.880  49.464  1.00  0.00     0.256 C 
HETATM    7  O1  UNL     1      25.512   3.708  49.890  1.00  0.00    -0.267 OA
HETATM    8  H14 UNL     1      24.032   6.495  49.198  1.00  0.00     0.169 HD
BRANCH   6   9
HETATM    9  C15 UNL     1      26.556   5.498  48.884  1.00  0.00     0.032 A 
HETATM   10  C16 UNL     1      27.684   4.726  48.698  1.00  0.00     0.017 A 
HETATM   11  C17 UNL     1      28.828   5.299  48.146  1.00  0.00     0.007 A 
HETATM   12  C18 UNL     1      28.883   6.624  47.772  1.00  0.00    -0.062 A 
HETATM   13  C19 UNL     1      30.079   7.275  47.181  1.00  0.00     0.048 C 
HETATM   14  C20 UNL     1      27.758   7.400  47.957  1.00  0.00     0.007 A 
HETATM   15  C21 UNL     1      26.636   6.822  48.503  1.00  0.00     0.017 A 
ENDBRANCH   6   9
ENDBRANCH   3   5
ENDBRANCH   2   3
ENDBRANCH   1   2
BRANCH   1  16
HETATM   16  C5  UNL     1      23.730   3.351  53.090  1.00  0.00     0.156 C 
BRANCH  16  17
HETATM   17  N1  UNL     1      25.150   3.195  52.820  1.00  0.00    -0.221 N 
HETATM   18  H7  UNL     1      25.742   3.996  52.498  1.00  0.00     0.177 HD
BRANCH  17  19
HETATM   19  C6  UNL     1      25.838   1.961  52.971  1.00  0.00     0.722 A 
HETATM   20  N2  UNL     1      25.136   0.990  52.336  1.00  0.00    -0.074 NA
HETATM   21  C7  UNL     1      25.587  -0.294  52.336  1.00  0.00     0.151 A 
HETATM   22  C8  UNL     1      26.786  -0.544  53.011  1.00  0.00     0.025 A 
HETATM   23  C9  UNL     1      27.486   0.456  53.652  1.00  0.00     0.070 A 
HETATM   24  C13 UNL     1      27.132  -1.975  52.913  1.00  0.00     0.131 C 
HETATM   25  N3  UNL     1      26.989   1.705  53.617  1.00  0.00    -0.067 NA
HETATM   26  C10 UNL     1      28.732   0.378  54.398  1.00  0.00     0.089 C 
HETATM   27  C11 UNL     1      29.707  -0.623  53.917  1.00  0.00    -0.002 C 
HETATM   28  C12 UNL     1      29.566  -1.823  53.349  1.00  0.00     0.112 C 
HETATM   29  N4  UNL     1      28.321  -2.435  53.067  1.00  0.00    -0.272 NA
ENDBRANCH  17  19
ENDBRANCH  16  17
ENDBRANCH   1  16
TORSDOF 7
ENDMDL
MODEL 5
REMARK VINA RESULT:      -7.7      2.390      5.318
REMARK  7 active torsions:
REMARK  status: ('A' for Active; 'I' for Inactive)
REMARK    1  A    between atoms: C2_2  and  C3_3 
REMARK    2  A    between atoms: C2_2  and  N5_18 
REMARK    3  A    between atoms: C3_3  and  C4_4 
REMARK    4  A    between atoms: C4_4  and  C5_5 
REMARK    5  A    between atoms: C5_5  and  N1_6 
REMARK    6  A    between atoms: N1_6  and  C6_7 
REMARK       I    between atoms: N5_18  and  C14_19 
REMARK    7  A    between atoms: C14_19  and  C15_21 
ROOT
HETATM    1  C4  UNL     1      22.442   2.459  48.035  1.00  0.00     0.093 C 
ENDROOT
BRANCH   1   2
HETATM    2  C3  UNL     1      23.340   3.023  48.830  1.00  0.00    -0.123 C 
BRANCH   2   3
HETATM    3  C2  UNL     1      23.975   3.730  49.729  1.00  0.00     0.050 C 
HETATM    4  C1  UNL     1      23.860   5.167  49.676  1.00  0.00     0.077 C 
BRANCH   3   5
HETATM    5  N5  UNL     1      24.685   2.961  50.625  1.00  0.00    -0.320 N 
HETATM    6  C14 UNL     1      26.071   2.716  50.617  1.00  0.00     0.256 C 
HETATM    7  O1  UNL     1      26.795   3.222  49.725  1.00  0.00    -0.267 OA
HETATM    8  H14 UNL     1      24.110   2.525  51.380  1.00  0.00     0.169 HD
BRANCH   6   9
HETATM    9  C15 UNL     1      26.757   1.888  51.603  1.00  0.00     0.032 A 
HETATM   10  C16 UNL     1      27.557   2.502  52.545  1.00  0.00     0.017 A 
HETATM   11  C17 UNL     1      28.221   1.727  53.495  1.00  0.00     0.007 A 
HETATM   12  C18 UNL     1      28.113   0.355  53.534  1.00  0.00    -0.062 A 
HETATM   13  C19 UNL     1      28.802  -0.509  54.526  1.00  0.00     0.048 C 
HETATM   14  C20 UNL     1      27.315  -0.263  52.594  1.00  0.00     0.007 A 
HETATM   15  C21 UNL     1      26.666   0.513  51.663  1.00  0.00     0.017 A 
ENDBRANCH   6   9
ENDBRANCH   3   5
ENDBRANCH   2   3
ENDBRANCH   1   2
BRANCH   1  16
HETATM   16  C5  UNL     1      21.028   2.508  48.428  1.00  0.00     0.156 C 
BRANCH  16  17
HETATM   17  N1  UNL     1      20.664   1.209  48.969  1.00  0.00    -0.221 N 
HETATM   18  H7  UNL     1      20.210   0.473  48.379  1.00  0.00     0.177 HD
BRANCH  17  19
HETATM   19  C6  UNL     1      20.893   0.839  50.322  1.00  0.00     0.722 A 
HETATM   20  N2  UNL     1      19.711   0.488  50.884  1.00  0.00    -0.074 NA
HETATM   21  C7  UNL     1      19.660   0.093  52.185  1.00  0.00     0.151 A 
HETATM   22  C8  UNL     1      20.869   0.071  52.887  1.00  0.00     0.025 A 
HETATM   23  C9  UNL     1      22.062   0.432  52.299  1.00  0.00     0.070 A 
HETATM   24  C13 UNL     1      20.640  -0.378  54.274  1.00  0.00     0.131 C 
HETATM   25  N3  UNL     1      22.048   0.814  51.010  1.00  0.00    -0.067 NA
HETATM   26  C10 UNL     1      23.399   0.473  52.872  1.00  0.00     0.089 C 
HETATM   27  C11 UNL     1      23.689  -0.548  53.898  1.00  0.00    -0.002 C 
HETATM   28  C12 UNL     1      22.933  -1.141  54.825  1.00  0.00     0.112 C 
HETATM   29  N4  UNL     1      21.555  -0.877  55.024  1.00  0.00    -0.272 NA
ENDBRANCH  17  19
ENDBRANCH  16  17
ENDBRANCH   1  16
TORSDOF 7
ENDMDL
MODEL 6
REMARK VINA RESULT:      -7.7      4.244      7.603
REMARK  7 active torsions:
REMARK  status: ('A' for Active; 'I' for Inactive)
REMARK    1  A    between atoms: C2_2  and  C3_3 
REMARK    2  A    between atoms: C2_2  and  N5_18 
REMARK    3  A    between atoms: C3_3  and  C4_4 
REMARK    4  A    between atoms: C4_4  and  C5_5 
REMARK    5  A    between atoms: C5_5  and  N1_6 
REMARK    6  A    between atoms: N1_6  and  C6_7 
REMARK       I    between atoms: N5_18  and  C14_19 
REMARK    7  A    between atoms: C14_19  and  C15_21 
ROOT
HETATM    1  C4  UNL     1      27.286   4.575  48.953  1.00  0.00     0.093 C 
ENDROOT
BRANCH   1   2
HETATM    2  C3  UNL     1      26.019   4.417  49.306  1.00  0.00    -0.123 C 
BRANCH   2   3
HETATM    3  C2  UNL     1      24.714   4.354  49.361  1.00  0.00     0.050 C 
HETATM    4  C1  UNL     1      23.951   5.405  48.732  1.00  0.00     0.077 C 
BRANCH   3   5
HETATM    5  N5  UNL     1      24.249   3.249  50.038  1.00  0.00    -0.320 N 
HETATM    6  C14 UNL     1      23.817   3.196  51.377  1.00  0.00     0.256 C 
HETATM    7  O1  UNL     1      23.833   4.233  52.086  1.00  0.00    -0.267 OA
HETATM    8  H14 UNL     1      24.223   2.369  49.477  1.00  0.00     0.169 HD
BRANCH   6   9
HETATM    9  C15 UNL     1      23.334   1.985  52.031  1.00  0.00     0.032 A 
HETATM   10  C16 UNL     1      24.222   1.228  52.769  1.00  0.00     0.017 A 
HETATM   11  C17 UNL     1      23.779   0.067  53.399  1.00  0.00     0.007 A 
HETATM   12  C18 UNL     1      22.474  -0.366  53.316  1.00  0.00    -0.062 A 
HETATM   13  C19 UNL     1      21.959  -1.595  53.971  1.00  0.00     0.048 C 
HETATM   14  C20 UNL     1      21.584   0.386  52.580  1.00  0.00     0.007 A 
HETATM   15  C21 UNL     1      22.033   1.530  51.962  1.00  0.00     0.017 A 
ENDBRANCH   6   9
ENDBRANCH   3   5
ENDBRANCH   2   3
ENDBRANCH   1   2
BRANCH   1  16
HETATM   16  C5  UNL     1      27.670   5.812  48.260  1.00  0.00     0.156 C 
BRANCH  16  17
HETATM   17  N1  UNL     1      28.845   6.355  48.923  1.00  0.00    -0.221 N 
HETATM   18  H7  UNL     1      28.769   7.072  49.681  1.00  0.00     0.177 HD
BRANCH  17  19
HETATM   19  C6  UNL     1      30.171   5.960  48.599  1.00  0.00     0.722 A 
HETATM   20  N2  UNL     1      31.036   6.865  49.119  1.00  0.00    -0.074 NA
HETATM   21  C7  UNL     1      32.377   6.712  48.944  1.00  0.00     0.151 A 
HETATM   22  C8  UNL     1      32.797   5.595  48.215  1.00  0.00     0.025 A 
HETATM   23  C9  UNL     1      31.903   4.685  47.692  1.00  0.00     0.070 A 
HETATM   24  C13 UNL     1      34.269   5.579  48.119  1.00  0.00     0.131 C 
HETATM   25  N3  UNL     1      30.590   4.891  47.899  1.00  0.00    -0.067 NA
HETATM   26  C10 UNL     1      32.157   3.483  46.914  1.00  0.00     0.089 C 
HETATM   27  C11 UNL     1      33.404   2.760  47.239  1.00  0.00    -0.002 C 
HETATM   28  C12 UNL     1      34.607   3.169  47.651  1.00  0.00     0.112 C 
HETATM   29  N4  UNL     1      34.958   4.522  47.880  1.00  0.00    -0.272 NA
ENDBRANCH  17  19
ENDBRANCH  16  17
ENDBRANCH   1  16
TORSDOF 7
ENDMDL
MODEL 7
REMARK VINA RESULT:      -7.6      2.168      6.016
REMARK  7 active torsions:
REMARK  status: ('A' for Active; 'I' for Inactive)
REMARK    1  A    between atoms: C2_2  and  C3_3 
REMARK    2  A    between atoms: C2_2  and  N5_18 
REMARK    3  A    between atoms: C3_3  and  C4_4 
REMARK    4  A    between atoms: C4_4  and  C5_5 
REMARK    5  A    between atoms: C5_5  and  N1_6 
REMARK    6  A    between atoms: N1_6  and  C6_7 
REMARK       I    between atoms: N5_18  and  C14_19 
REMARK    7  A    between atoms: C14_19  and  C15_21 
ROOT
HETATM    1  C4  UNL     1      21.392   0.235  51.060  1.00  0.00     0.093 C 
ENDROOT
BRANCH   1   2
HETATM    2  C3  UNL     1      21.742   0.152  52.336  1.00  0.00    -0.123 C 
BRANCH   2   3
HETATM    3  C2  UNL     1      22.142  -0.231  53.521  1.00  0.00     0.050 C 
HETATM    4  C1  UNL     1      21.168  -0.300  54.582  1.00  0.00     0.077 C 
BRANCH   3   5
HETATM    5  N5  UNL     1      23.488  -0.520  53.574  1.00  0.00    -0.320 N 
HETATM    6  C14 UNL     1      24.553   0.400  53.543  1.00  0.00     0.256 C 
HETATM    7  O1  UNL     1      24.321   1.631  53.457  1.00  0.00    -0.267 OA
HETATM    8  H14 UNL     1      23.715  -1.537  53.646  1.00  0.00     0.169 HD
BRANCH   6   9
HETATM    9  C15 UNL     1      25.960   0.019  53.605  1.00  0.00     0.032 A 
HETATM   10  C16 UNL     1      26.760   0.584  54.577  1.00  0.00     0.017 A 
HETATM   11  C17 UNL     1      28.106   0.233  54.651  1.00  0.00     0.007 A 
HETATM   12  C18 UNL     1      28.683  -0.668  53.783  1.00  0.00    -0.062 A 
HETATM   13  C19 UNL     1      30.111  -1.070  53.825  1.00  0.00     0.048 C 
HETATM   14  C20 UNL     1      27.888  -1.235  52.810  1.00  0.00     0.007 A 
HETATM   15  C21 UNL     1      26.561  -0.880  52.747  1.00  0.00     0.017 A 
ENDBRANCH   6   9
ENDBRANCH   3   5
ENDBRANCH   2   3
ENDBRANCH   1   2
BRANCH   1  16
HETATM   16  C5  UNL     1      21.932   1.340  50.257  1.00  0.00     0.156 C 
BRANCH  16  17
HETATM   17  N1  UNL     1      22.367   2.388  51.164  1.00  0.00    -0.221 N 
HETATM   18  H7  UNL     1      22.014   2.449  52.148  1.00  0.00     0.177 HD
BRANCH  17  19
HETATM   19  C6  UNL     1      23.294   3.400  50.794  1.00  0.00     0.722 A 
HETATM   20  N2  UNL     1      24.219   2.862  49.963  1.00  0.00    -0.074 NA
HETATM   21  C7  UNL     1      25.225   3.631  49.465  1.00  0.00     0.151 A 
HETATM   22  C8  UNL     1      25.246   4.974  49.853  1.00  0.00     0.025 A 
HETATM   23  C9  UNL     1      24.297   5.505  50.701  1.00  0.00     0.070 A 
HETATM   24  C13 UNL     1      26.393   5.663  49.230  1.00  0.00     0.131 C 
HETATM   25  N3  UNL     1      23.327   4.694  51.159  1.00  0.00    -0.067 NA
HETATM   26  C10 UNL     1      24.167   6.862  51.208  1.00  0.00     0.089 C 
HETATM   27  C11 UNL     1      24.610   7.934  50.292  1.00  0.00    -0.002 C 
HETATM   28  C12 UNL     1      25.575   7.998  49.372  1.00  0.00     0.112 C 
HETATM   29  N4  UNL     1      26.458   6.934  49.061  1.00  0.00    -0.272 NA
ENDBRANCH  17  19
ENDBRANCH  16  17
ENDBRANCH   1  16
TORSDOF 7
ENDMDL
MODEL 8
REMARK VINA RESULT:      -7.6      4.342      7.386
REMARK  7 active torsions:
REMARK  status: ('A' for Active; 'I' for Inactive)
REMARK    1  A    between atoms: C2_2  and  C3_3 
REMARK    2  A    between atoms: C2_2  and  N5_18 
REMARK    3  A    between atoms: C3_3  and  C4_4 
REMARK    4  A    between atoms: C4_4  and  C5_5 
REMARK    5  A    between atoms: C5_5  and  N1_6 
REMARK    6  A    between atoms: N1_6  and  C6_7 
REMARK       I    between atoms: N5_18  and  C14_19 
REMARK    7  A    between atoms: C14_19  and  C15_21 
ROOT
HETATM    1  C4  UNL     1      26.894   7.634  48.583  1.00  0.00     0.093 C 
ENDROOT
BRANCH   1   2
HETATM    2  C3  UNL     1      26.129   6.983  49.447  1.00  0.00    -0.123 C 
BRANCH   2   3
HETATM    3  C2  UNL     1      25.158   6.546  50.206  1.00  0.00     0.050 C 
HETATM    4  C1  UNL     1      23.974   7.360  50.339  1.00  0.00     0.077 C 
BRANCH   3   5
HETATM    5  N5  UNL     1      25.425   5.325  50.785  1.00  0.00    -0.320 N 
HETATM    6  C14 UNL     1      24.924   4.072  50.386  1.00  0.00     0.256 C 
HETATM    7  O1  UNL     1      24.144   3.988  49.406  1.00  0.00    -0.267 OA
HETATM    8  H14 UNL     1      26.072   5.361  51.604  1.00  0.00     0.169 HD
BRANCH   6   9
HETATM    9  C15 UNL     1      25.253   2.815  51.049  1.00  0.00     0.032 A 
HETATM   10  C16 UNL     1      24.242   2.101  51.661  1.00  0.00     0.017 A 
HETATM   11  C17 UNL     1      24.538   0.898  52.300  1.00  0.00     0.007 A 
HETATM   12  C18 UNL     1      25.815   0.383  52.349  1.00  0.00    -0.062 A 
HETATM   13  C19 UNL     1      26.174  -0.893  53.018  1.00  0.00     0.048 C 
HETATM   14  C20 UNL     1      26.827   1.093  51.740  1.00  0.00     0.007 A 
HETATM   15  C21 UNL     1      26.522   2.278  51.113  1.00  0.00     0.017 A 
ENDBRANCH   6   9
ENDBRANCH   3   5
ENDBRANCH   2   3
ENDBRANCH   1   2
BRANCH   1  16
HETATM   16  C5  UNL     1      27.935   6.886  47.866  1.00  0.00     0.156 C 
BRANCH  16  17
HETATM   17  N1  UNL     1      28.829   6.300  48.851  1.00  0.00    -0.221 N 
HETATM   18  H7  UNL     1      28.523   6.116  49.835  1.00  0.00     0.177 HD
BRANCH  17  19
HETATM   19  C6  UNL     1      30.172   5.935  48.560  1.00  0.00     0.722 A 
HETATM   20  N2  UNL     1      31.000   6.880  49.067  1.00  0.00    -0.074 NA
HETATM   21  C7  UNL     1      32.348   6.762  48.918  1.00  0.00     0.151 A 
HETATM   22  C8  UNL     1      32.813   5.637  48.230  1.00  0.00     0.025 A 
HETATM   23  C9  UNL     1      31.955   4.686  47.721  1.00  0.00     0.070 A 
HETATM   24  C13 UNL     1      34.286   5.662  48.159  1.00  0.00     0.131 C 
HETATM   25  N3  UNL     1      30.633   4.858  47.900  1.00  0.00    -0.067 NA
HETATM   26  C10 UNL     1      32.258   3.469  46.984  1.00  0.00     0.089 C 
HETATM   27  C11 UNL     1      33.520   2.794  47.351  1.00  0.00    -0.002 C 
HETATM   28  C12 UNL     1      34.702   3.250  47.769  1.00  0.00     0.112 C 
HETATM   29  N4  UNL     1      35.010   4.619  47.964  1.00  0.00    -0.272 NA
ENDBRANCH  17  19
ENDBRANCH  16  17
ENDBRANCH   1  16
TORSDOF 7
ENDMDL
MODEL 9
REMARK VINA RESULT:      -7.5      1.743      5.073
REMARK  7 active torsions:
REMARK  status: ('A' for Active; 'I' for Inactive)
REMARK    1  A    between atoms: C2_2  and  C3_3 
REMARK    2  A    between atoms: C2_2  and  N5_18 
REMARK    3  A    between atoms: C3_3  and  C4_4 
REMARK    4  A    between atoms: C4_4  and  C5_5 
REMARK    5  A    between atoms: C5_5  and  N1_6 
REMARK    6  A    between atoms: N1_6  and  C6_7 
REMARK       I    between atoms: N5_18  and  C14_19 
REMARK    7  A    between atoms: C14_19  and  C15_21 
ROOT
HETATM    1  C4  UNL     1      26.357   5.173  48.782  1.00  0.00     0.093 C 
ENDROOT
BRANCH   1   2
HETATM    2  C3  UNL     1      25.083   5.518  48.903  1.00  0.00    -0.123 C 
BRANCH   2   3
HETATM    3  C2  UNL     1      23.791   5.670  48.773  1.00  0.00     0.050 C 
HETATM    4  C1  UNL     1      23.308   6.672  47.854  1.00  0.00     0.077 C 
BRANCH   3   5
HETATM    5  N5  UNL     1      23.059   4.815  49.568  1.00  0.00    -0.320 N 
HETATM    6  C14 UNL     1      22.792   3.454  49.323  1.00  0.00     0.256 C 
HETATM    7  O1  UNL     1      23.239   2.900  48.289  1.00  0.00    -0.267 OA
HETATM    8  H14 UNL     1      22.673   5.246  50.437  1.00  0.00     0.169 HD
BRANCH   6   9
HETATM    9  C15 UNL     1      22.006   2.606  50.214  1.00  0.00     0.032 A 
HETATM   10  C16 UNL     1      21.650   1.343  49.786  1.00  0.00     0.017 A 
HETATM   11  C17 UNL     1      20.899   0.520  50.623  1.00  0.00     0.007 A 
HETATM   12  C18 UNL     1      20.490   0.917  51.877  1.00  0.00    -0.062 A 
HETATM   13  C19 UNL     1      19.689   0.074  52.799  1.00  0.00     0.048 C 
HETATM   14  C20 UNL     1      20.843   2.178  52.307  1.00  0.00     0.007 A 
HETATM   15  C21 UNL     1      21.584   2.981  51.473  1.00  0.00     0.017 A 
ENDBRANCH   6   9
ENDBRANCH   3   5
ENDBRANCH   2   3
ENDBRANCH   1   2
BRANCH   1  16
HETATM   16  C5  UNL     1      26.790   3.885  49.338  1.00  0.00     0.156 C 
BRANCH  16  17
HETATM   17  N1  UNL     1      26.565   3.914  50.774  1.00  0.00    -0.221 N 
HETATM   18  H7  UNL     1      26.539   4.812  51.310  1.00  0.00     0.177 HD
BRANCH  17  19
HETATM   19  C6  UNL     1      26.365   2.742  51.552  1.00  0.00     0.722 A 
HETATM   20  N2  UNL     1      27.543   2.390  52.123  1.00  0.00    -0.074 NA
HETATM   21  C7  UNL     1      27.617   1.291  52.922  1.00  0.00     0.151 A 
HETATM   22  C8  UNL     1      26.437   0.566  53.113  1.00  0.00     0.025 A 
HETATM   23  C9  UNL     1      25.248   0.938  52.523  1.00  0.00     0.070 A 
HETATM   24  C13 UNL     1      26.690  -0.587  53.999  1.00  0.00     0.131 C 
HETATM   25  N3  UNL     1      25.238   2.034  51.744  1.00  0.00    -0.067 NA
HETATM   26  C10 UNL     1      23.939   0.308  52.607  1.00  0.00     0.089 C 
HETATM   27  C11 UNL     1      23.624  -0.349  53.891  1.00  0.00    -0.002 C 
HETATM   28  C12 UNL     1      24.376  -0.991  54.789  1.00  0.00     0.112 C 
HETATM   29  N4  UNL     1      25.774  -1.186  54.670  1.00  0.00    -0.272 NA
ENDBRANCH  17  19
ENDBRANCH  16  17
ENDBRANCH   1  16
TORSDOF 7
ENDMDL
