MODEL 1
REMARK VINA RESULT:      -7.1      0.000      0.000
REMARK  7 active torsions:
REMARK  status: ('A' for Active; 'I' for Inactive)
REMARK    1  A    between atoms: O1_2  and  C2_3 
REMARK    2  A    between atoms: C5_6  and  C6_7 
REMARK    3  A    between atoms: N1_8  and  C7_9 
REMARK    4  A    between atoms: N2_10  and  C8_11 
REMARK    5  A    between atoms: C8_11  and  N3_12 
REMARK    6  A    between atoms: N3_12  and  C9_13 
REMARK    7  A    between atoms: C15_21  and  O2_22 
ROOT
HETATM    1  C6  UNL     1      24.930   2.911  53.154  1.00  0.00     0.126 C 
HETATM    2  N1  UNL     1      24.235   3.315  52.147  1.00  0.00    -0.256 NA
ENDROOT
BRANCH   2   3
HETATM    3  C7  UNL     1      23.067   4.092  52.460  1.00  0.00     0.228 C 
HETATM    4  N2  UNL     1      21.845   3.753  52.244  1.00  0.00    -0.264 NA
BRANCH   4   5
HETATM    5  C8  UNL     1      21.588   2.472  51.629  1.00  0.00     0.272 C 
BRANCH   5   6
HETATM    6  N3  UNL     1      20.622   1.802  52.475  1.00  0.00    -0.372 N 
HETATM    7  H12 UNL     1      19.639   2.165  52.658  1.00  0.00     0.161 HD
BRANCH   6   8
HETATM    8  C9  UNL     1      20.881   0.573  53.163  1.00  0.00     0.030 A 
HETATM    9  C10 UNL     1      19.960  -0.431  53.411  1.00  0.00     0.029 A 
HETATM   10  C11 UNL     1      20.331  -1.574  54.086  1.00  0.00     0.004 A 
HETATM   11  C12 UNL     1      21.632  -1.727  54.523  1.00  0.00     0.024 A 
HETATM   12  C13 UNL     1      22.573  -0.743  54.291  1.00  0.00     0.036 A 
HETATM   13 CL1  UNL     1      24.231  -0.965  54.861  1.00  0.00    -0.084 Cl
HETATM   14  C14 UNL     1      22.174   0.395  53.610  1.00  0.00     0.053 A 
ENDBRANCH   6   8
ENDBRANCH   5   6
ENDBRANCH   4   5
ENDBRANCH   2   3
BRANCH   1  15
HETATM   15  C5  UNL     1      26.162   2.099  52.989  1.00  0.00     0.268 C 
HETATM   16  C4  UNL     1      25.995   1.087  51.878  1.00  0.00     0.071 C 
HETATM   17  C3  UNL     1      26.586  -0.219  52.206  1.00  0.00     0.012 C 
HETATM   18  C2  UNL     1      27.408  -0.430  53.230  1.00  0.00     0.100 C 
HETATM   19  C15 UNL     1      27.727   0.747  54.072  1.00  0.00     0.414 C 
HETATM   20  N4  UNL     1      26.484   1.486  54.254  1.00  0.00     0.128 N 
HETATM   21  H17 UNL     1      25.741   0.838  54.569  1.00  0.00     0.320 HD
BRANCH  18  22
HETATM   22  O1  UNL     1      27.968  -1.665  53.544  1.00  0.00    -0.356 OA
HETATM   23  C1  UNL     1      29.337  -1.950  53.338  1.00  0.00     0.209 C 
ENDBRANCH  18  22
BRANCH  19  24
HETATM   24  O2  UNL     1      28.629   1.624  53.477  1.00  0.00    -0.357 OA
HETATM   25  C16 UNL     1      29.531   2.148  54.397  1.00  0.00     0.204 C 
ENDBRANCH  19  24
ENDBRANCH   1  15
TORSDOF 7
ENDMDL
MODEL 2
REMARK VINA RESULT:      -7.0      3.078      5.558
REMARK  7 active torsions:
REMARK  status: ('A' for Active; 'I' for Inactive)
REMARK    1  A    between atoms: O1_2  and  C2_3 
REMARK    2  A    between atoms: C5_6  and  C6_7 
REMARK    3  A    between atoms: N1_8  and  C7_9 
REMARK    4  A    between atoms: N2_10  and  C8_11 
REMARK    5  A    between atoms: C8_11  and  N3_12 
REMARK    6  A    between atoms: N3_12  and  C9_13 
REMARK    7  A    between atoms: C15_21  and  O2_22 
ROOT
HETATM    1  C6  UNL     1      26.796   1.854  51.576  1.00  0.00     0.126 C 
HETATM    2  N1  UNL     1      26.418   0.723  52.066  1.00  0.00    -0.256 NA
ENDROOT
BRANCH   2   3
HETATM    3  C7  UNL     1      27.417  -0.013  52.792  1.00  0.00     0.228 C 
HETATM    4  N2  UNL     1      27.367  -0.341  54.035  1.00  0.00    -0.264 NA
BRANCH   4   5
HETATM    5  C8  UNL     1      26.209   0.052  54.802  1.00  0.00     0.272 C 
BRANCH   5   6
HETATM    6  N3  UNL     1      25.268  -1.046  54.710  1.00  0.00    -0.372 N 
HETATM    7  H12 UNL     1      25.531  -2.067  54.853  1.00  0.00     0.161 HD
BRANCH   6   8
HETATM    8  C9  UNL     1      23.878  -0.881  54.413  1.00  0.00     0.030 A 
HETATM    9  C10 UNL     1      22.821  -1.268  55.221  1.00  0.00     0.029 A 
HETATM   10  C11 UNL     1      21.519  -1.055  54.825  1.00  0.00     0.004 A 
HETATM   11  C12 UNL     1      21.256  -0.450  53.610  1.00  0.00     0.024 A 
HETATM   12  C13 UNL     1      22.288  -0.055  52.782  1.00  0.00     0.036 A 
HETATM   13 CL1  UNL     1      21.922   0.715  51.234  1.00  0.00    -0.084 Cl
HETATM   14  C14 UNL     1      23.587  -0.281  53.205  1.00  0.00     0.053 A 
ENDBRANCH   6   8
ENDBRANCH   5   6
ENDBRANCH   4   5
ENDBRANCH   2   3
BRANCH   1  15
HETATM   15  C5  UNL     1      25.877   2.726  50.801  1.00  0.00     0.268 C 
HETATM   16  C4  UNL     1      26.597   3.369  49.638  1.00  0.00     0.071 C 
HETATM   17  C3  UNL     1      26.211   4.774  49.438  1.00  0.00     0.012 C 
HETATM   18  C2  UNL     1      25.163   5.349  50.019  1.00  0.00     0.100 C 
HETATM   19  C15 UNL     1      24.356   4.493  50.919  1.00  0.00     0.414 C 
HETATM   20  N4  UNL     1      25.295   3.695  51.697  1.00  0.00     0.128 N 
HETATM   21  H17 UNL     1      26.011   4.314  52.114  1.00  0.00     0.320 HD
BRANCH  18  22
HETATM   22  O1  UNL     1      24.795   6.679  49.832  1.00  0.00    -0.356 OA
HETATM   23  C1  UNL     1      24.061   7.405  50.797  1.00  0.00     0.209 C 
ENDBRANCH  18  22
BRANCH  19  24
HETATM   24  O2  UNL     1      23.537   3.596  50.240  1.00  0.00    -0.357 OA
HETATM   25  C16 UNL     1      22.296   4.148  49.938  1.00  0.00     0.204 C 
ENDBRANCH  19  24
ENDBRANCH   1  15
TORSDOF 7
ENDMDL
MODEL 3
REMARK VINA RESULT:      -6.9      5.016      7.052
REMARK  7 active torsions:
REMARK  status: ('A' for Active; 'I' for Inactive)
REMARK    1  A    between atoms: O1_2  and  C2_3 
REMARK    2  A    between atoms: C5_6  and  C6_7 
REMARK    3  A    between atoms: N1_8  and  C7_9 
REMARK    4  A    between atoms: N2_10  and  C8_11 
REMARK    5  A    between atoms: C8_11  and  N3_12 
REMARK    6  A    between atoms: N3_12  and  C9_13 
REMARK    7  A    between atoms: C15_21  and  O2_22 
ROOT
HETATM    1  C6  UNL     1      25.447   5.910  50.141  1.00  0.00     0.126 C 
HETATM    2  N1  UNL     1      24.861   4.763  50.159  1.00  0.00    -0.256 NA
ENDROOT
BRANCH   2   3
HETATM    3  C7  UNL     1      23.969   4.529  51.261  1.00  0.00     0.228 C 
HETATM    4  N2  UNL     1      23.914   3.466  51.985  1.00  0.00    -0.264 NA
BRANCH   4   5
HETATM    5  C8  UNL     1      24.824   2.386  51.686  1.00  0.00     0.272 C 
BRANCH   5   6
HETATM    6  N3  UNL     1      26.083   2.730  52.317  1.00  0.00    -0.372 N 
HETATM    7  H12 UNL     1      26.396   3.727  52.512  1.00  0.00     0.161 HD
BRANCH   6   8
HETATM    8  C9  UNL     1      27.047   1.765  52.749  1.00  0.00     0.030 A 
HETATM    9  C10 UNL     1      28.255   2.041  53.369  1.00  0.00     0.029 A 
HETATM   10  C11 UNL     1      29.104   1.022  53.740  1.00  0.00     0.004 A 
HETATM   11  C12 UNL     1      28.755  -0.293  53.495  1.00  0.00     0.024 A 
HETATM   12  C13 UNL     1      27.559  -0.600  52.878  1.00  0.00     0.036 A 
HETATM   13 CL1  UNL     1      27.137  -2.290  52.576  1.00  0.00    -0.084 Cl
HETATM   14  C14 UNL     1      26.723   0.444  52.516  1.00  0.00     0.053 A 
ENDBRANCH   6   8
ENDBRANCH   5   6
ENDBRANCH   4   5
ENDBRANCH   2   3
BRANCH   1  15
HETATM   15  C5  UNL     1      26.397   6.296  49.067  1.00  0.00     0.268 C 
HETATM   16  C4  UNL     1      27.231   5.112  48.634  1.00  0.00     0.071 C 
HETATM   17  C3  UNL     1      28.638   5.468  48.390  1.00  0.00     0.012 C 
HETATM   18  C2  UNL     1      29.084   6.715  48.290  1.00  0.00     0.100 C 
HETATM   19  C15 UNL     1      28.076   7.790  48.438  1.00  0.00     0.414 C 
HETATM   20  N4  UNL     1      27.200   7.400  49.535  1.00  0.00     0.128 N 
HETATM   21  H17 UNL     1      27.771   7.139  50.357  1.00  0.00     0.320 HD
BRANCH  18  22
HETATM   22  O1  UNL     1      30.414   7.055  48.059  1.00  0.00    -0.356 OA
HETATM   23  C1  UNL     1      31.082   8.056  48.801  1.00  0.00     0.209 C 
ENDBRANCH  18  22
BRANCH  19  24
HETATM   24  O2  UNL     1      27.267   7.948  47.317  1.00  0.00    -0.357 OA
HETATM   25  C16 UNL     1      27.968   8.476  46.237  1.00  0.00     0.204 C 
ENDBRANCH  19  24
ENDBRANCH   1  15
TORSDOF 7
ENDMDL
MODEL 4
REMARK VINA RESULT:      -6.8      2.353      3.786
REMARK  7 active torsions:
REMARK  status: ('A' for Active; 'I' for Inactive)
REMARK    1  A    between atoms: O1_2  and  C2_3 
REMARK    2  A    between atoms: C5_6  and  C6_7 
REMARK    3  A    between atoms: N1_8  and  C7_9 
REMARK    4  A    between atoms: N2_10  and  C8_11 
REMARK    5  A    between atoms: C8_11  and  N3_12 
REMARK    6  A    between atoms: N3_12  and  C9_13 
REMARK    7  A    between atoms: C15_21  and  O2_22 
ROOT
HETATM    1  C6  UNL     1      24.037  -0.451  54.137  1.00  0.00     0.126 C 
HETATM    2  N1  UNL     1      23.195  -0.777  53.218  1.00  0.00    -0.256 NA
ENDROOT
BRANCH   2   3
HETATM    3  C7  UNL     1      21.934  -1.295  53.674  1.00  0.00     0.228 C 
HETATM    4  N2  UNL     1      20.781  -0.752  53.502  1.00  0.00    -0.264 NA
BRANCH   4   5
HETATM    5  C8  UNL     1      20.712   0.498  52.783  1.00  0.00     0.272 C 
BRANCH   5   6
HETATM    6  N3  UNL     1      20.821   0.166  51.377  1.00  0.00    -0.372 N 
HETATM    7  H12 UNL     1      20.400  -0.707  50.939  1.00  0.00     0.161 HD
BRANCH   6   8
HETATM    8  C9  UNL     1      21.509   0.975  50.418  1.00  0.00     0.030 A 
HETATM    9  C10 UNL     1      21.310   0.960  49.047  1.00  0.00     0.029 A 
HETATM   10  C11 UNL     1      22.038   1.789  48.222  1.00  0.00     0.004 A 
HETATM   11  C12 UNL     1      22.977   2.648  48.760  1.00  0.00     0.024 A 
HETATM   12  C13 UNL     1      23.199   2.686  50.122  1.00  0.00     0.036 A 
HETATM   13 CL1  UNL     1      24.407   3.794  50.783  1.00  0.00    -0.084 Cl
HETATM   14  C14 UNL     1      22.454   1.842  50.929  1.00  0.00     0.053 A 
ENDBRANCH   6   8
ENDBRANCH   5   6
ENDBRANCH   4   5
ENDBRANCH   2   3
BRANCH   1  15
HETATM   15  C5  UNL     1      25.381   0.097  53.820  1.00  0.00     0.268 C 
HETATM   16  C4  UNL     1      25.881  -0.436  52.497  1.00  0.00     0.071 C 
HETATM   17  C3  UNL     1      27.314  -0.767  52.523  1.00  0.00     0.012 C 
HETATM   18  C2  UNL     1      28.147  -0.398  53.491  1.00  0.00     0.100 C 
HETATM   19  C15 UNL     1      27.561   0.395  54.597  1.00  0.00     0.414 C 
HETATM   20  N4  UNL     1      26.272  -0.206  54.913  1.00  0.00     0.128 N 
HETATM   21  H17 UNL     1      26.391  -1.226  55.043  1.00  0.00     0.320 HD
BRANCH  18  22
HETATM   22  O1  UNL     1      29.503  -0.710  53.519  1.00  0.00    -0.356 OA
HETATM   23  C1  UNL     1      29.974  -2.040  53.594  1.00  0.00     0.209 C 
ENDBRANCH  18  22
BRANCH  19  24
HETATM   24  O2  UNL     1      27.310   1.720  54.254  1.00  0.00    -0.357 OA
HETATM   25  C16 UNL     1      28.448   2.361  53.774  1.00  0.00     0.204 C 
ENDBRANCH  19  24
ENDBRANCH   1  15
TORSDOF 7
ENDMDL
MODEL 5
REMARK VINA RESULT:      -6.7      2.237      3.393
REMARK  7 active torsions:
REMARK  status: ('A' for Active; 'I' for Inactive)
REMARK    1  A    between atoms: O1_2  and  C2_3 
REMARK    2  A    between atoms: C5_6  and  C6_7 
REMARK    3  A    between atoms: N1_8  and  C7_9 
REMARK    4  A    between atoms: N2_10  and  C8_11 
REMARK    5  A    between atoms: C8_11  and  N3_12 
REMARK    6  A    between atoms: N3_12  and  C9_13 
REMARK    7  A    between atoms: C15_21  and  O2_22 
ROOT
HETATM    1  C6  UNL     1      26.915   2.389  51.855  1.00  0.00     0.126 C 
HETATM    2  N1  UNL     1      26.197   2.608  50.807  1.00  0.00    -0.256 NA
ENDROOT
BRANCH   2   3
HETATM    3  C7  UNL     1      26.332   3.909  50.212  1.00  0.00     0.228 C 
HETATM    4  N2  UNL     1      25.519   4.453  49.377  1.00  0.00    -0.264 NA
BRANCH   4   5
HETATM    5  C8  UNL     1      24.347   3.711  48.979  1.00  0.00     0.272 C 
BRANCH   5   6
HETATM    6  N3  UNL     1      23.535   3.566  50.170  1.00  0.00    -0.372 N 
HETATM    7  H12 UNL     1      23.517   4.270  50.966  1.00  0.00     0.161 HD
BRANCH   6   8
HETATM    8  C9  UNL     1      22.664   2.455  50.410  1.00  0.00     0.030 A 
HETATM    9  C10 UNL     1      21.992   1.724  49.444  1.00  0.00     0.029 A 
HETATM   10  C11 UNL     1      21.178   0.671  49.800  1.00  0.00     0.004 A 
HETATM   11  C12 UNL     1      21.026   0.334  51.132  1.00  0.00     0.024 A 
HETATM   12  C13 UNL     1      21.681   1.044  52.117  1.00  0.00     0.036 A 
HETATM   13 CL1  UNL     1      21.468   0.592  53.812  1.00  0.00    -0.084 Cl
HETATM   14  C14 UNL     1      22.494   2.098  51.732  1.00  0.00     0.053 A 
ENDBRANCH   6   8
ENDBRANCH   5   6
ENDBRANCH   4   5
ENDBRANCH   2   3
BRANCH   1  15
HETATM   15  C5  UNL     1      26.882   1.092  52.578  1.00  0.00     0.268 C 
HETATM   16  C4  UNL     1      25.654   0.295  52.200  1.00  0.00     0.071 C 
HETATM   17  C3  UNL     1      25.041  -0.385  53.351  1.00  0.00     0.012 C 
HETATM   18  C2  UNL     1      25.629  -0.521  54.536  1.00  0.00     0.100 C 
HETATM   19  C15 UNL     1      26.985   0.061  54.670  1.00  0.00     0.414 C 
HETATM   20  N4  UNL     1      26.959   1.352  53.995  1.00  0.00     0.128 N 
HETATM   21  H17 UNL     1      26.149   1.901  54.331  1.00  0.00     0.320 HD
BRANCH  18  22
HETATM   22  O1  UNL     1      25.052  -1.163  55.628  1.00  0.00    -0.356 OA
HETATM   23  C1  UNL     1      23.665  -1.426  55.707  1.00  0.00     0.209 C 
ENDBRANCH  18  22
BRANCH  19  24
HETATM   24  O2  UNL     1      27.974  -0.694  54.048  1.00  0.00    -0.357 OA
HETATM   25  C16 UNL     1      29.252  -0.303  54.438  1.00  0.00     0.204 C 
ENDBRANCH  19  24
ENDBRANCH   1  15
TORSDOF 7
ENDMDL
MODEL 6
REMARK VINA RESULT:      -6.7      3.487      5.355
REMARK  7 active torsions:
REMARK  status: ('A' for Active; 'I' for Inactive)
REMARK    1  A    between atoms: O1_2  and  C2_3 
REMARK    2  A    between atoms: C5_6  and  C6_7 
REMARK    3  A    between atoms: N1_8  and  C7_9 
REMARK    4  A    between atoms: N2_10  and  C8_11 
REMARK    5  A    between atoms: C8_11  and  N3_12 
REMARK    6  A    between atoms: N3_12  and  C9_13 
REMARK    7  A    between atoms: C15_21  and  O2_22 
ROOT
HETATM    1  C6  UNL     1      24.105   2.169  52.296  1.00  0.00     0.126 C 
HETATM    2  N1  UNL     1      23.593   3.320  52.564  1.00  0.00    -0.256 NA
ENDROOT
BRANCH   2   3
HETATM    3  C7  UNL     1      22.200   3.479  52.247  1.00  0.00     0.228 C 
HETATM    4  N2  UNL     1      21.689   4.386  51.492  1.00  0.00    -0.264 NA
BRANCH   4   5
HETATM    5  C8  UNL     1      22.574   5.354  50.889  1.00  0.00     0.272 C 
BRANCH   5   6
HETATM    6  N3  UNL     1      23.199   4.687  49.765  1.00  0.00    -0.372 N 
HETATM    7  H12 UNL     1      22.686   4.032  49.102  1.00  0.00     0.161 HD
BRANCH   6   8
HETATM    8  C9  UNL     1      24.580   4.833  49.420  1.00  0.00     0.030 A 
HETATM    9  C10 UNL     1      25.558   3.858  49.540  1.00  0.00     0.029 A 
HETATM   10  C11 UNL     1      26.860   4.120  49.173  1.00  0.00     0.004 A 
HETATM   11  C12 UNL     1      27.203   5.364  48.679  1.00  0.00     0.024 A 
HETATM   12  C13 UNL     1      26.252   6.356  48.548  1.00  0.00     0.036 A 
HETATM   13 CL1  UNL     1      26.718   7.938  47.913  1.00  0.00    -0.084 Cl
HETATM   14  C14 UNL     1      24.950   6.067  48.924  1.00  0.00     0.053 A 
ENDBRANCH   6   8
ENDBRANCH   5   6
ENDBRANCH   4   5
ENDBRANCH   2   3
BRANCH   1  15
HETATM   15  C5  UNL     1      25.531   1.856  52.567  1.00  0.00     0.268 C 
HETATM   16  C4  UNL     1      26.049   0.818  51.597  1.00  0.00     0.071 C 
HETATM   17  C3  UNL     1      26.926  -0.173  52.240  1.00  0.00     0.012 C 
HETATM   18  C2  UNL     1      27.435  -0.037  53.461  1.00  0.00     0.100 C 
HETATM   19  C15 UNL     1      27.075   1.201  54.191  1.00  0.00     0.414 C 
HETATM   20  N4  UNL     1      25.660   1.442  53.943  1.00  0.00     0.128 N 
HETATM   21  H17 UNL     1      25.124   0.579  54.138  1.00  0.00     0.320 HD
BRANCH  18  22
HETATM   22  O1  UNL     1      28.265  -0.972  54.072  1.00  0.00    -0.356 OA
HETATM   23  C1  UNL     1      29.165  -1.780  53.341  1.00  0.00     0.209 C 
ENDBRANCH  18  22
BRANCH  19  24
HETATM   24  O2  UNL     1      27.757   2.327  53.739  1.00  0.00    -0.357 OA
HETATM   25  C16 UNL     1      29.121   2.254  54.006  1.00  0.00     0.204 C 
ENDBRANCH  19  24
ENDBRANCH   1  15
TORSDOF 7
ENDMDL
MODEL 7
REMARK VINA RESULT:      -6.6      3.168      5.317
REMARK  7 active torsions:
REMARK  status: ('A' for Active; 'I' for Inactive)
REMARK    1  A    between atoms: O1_2  and  C2_3 
REMARK    2  A    between atoms: C5_6  and  C6_7 
REMARK    3  A    between atoms: N1_8  and  C7_9 
REMARK    4  A    between atoms: N2_10  and  C8_11 
REMARK    5  A    between atoms: C8_11  and  N3_12 
REMARK    6  A    between atoms: N3_12  and  C9_13 
REMARK    7  A    between atoms: C15_21  and  O2_22 
ROOT
HETATM    1  C6  UNL     1      26.898   1.864  52.063  1.00  0.00     0.126 C 
HETATM    2  N1  UNL     1      27.091   1.855  53.337  1.00  0.00    -0.256 NA
ENDROOT
BRANCH   2   3
HETATM    3  C7  UNL     1      27.894   0.777  53.845  1.00  0.00     0.228 C 
HETATM    4  N2  UNL     1      27.506  -0.149  54.650  1.00  0.00    -0.264 NA
BRANCH   4   5
HETATM    5  C8  UNL     1      26.136  -0.131  55.105  1.00  0.00     0.272 C 
BRANCH   5   6
HETATM    6  N3  UNL     1      25.345  -0.707  54.037  1.00  0.00    -0.372 N 
HETATM    7  H12 UNL     1      25.760  -1.175  53.176  1.00  0.00     0.161 HD
BRANCH   6   8
HETATM    8  C9  UNL     1      23.914  -0.711  54.017  1.00  0.00     0.030 A 
HETATM    9  C10 UNL     1      23.087  -1.132  55.046  1.00  0.00     0.029 A 
HETATM   10  C11 UNL     1      21.717  -1.088  54.909  1.00  0.00     0.004 A 
HETATM   11  C12 UNL     1      21.154  -0.620  53.737  1.00  0.00     0.024 A 
HETATM   12  C13 UNL     1      21.952  -0.195  52.694  1.00  0.00     0.036 A 
HETATM   13 CL1  UNL     1      21.205   0.398  51.205  1.00  0.00    -0.084 Cl
HETATM   14  C14 UNL     1      23.326  -0.250  52.858  1.00  0.00     0.053 A 
ENDBRANCH   6   8
ENDBRANCH   5   6
ENDBRANCH   4   5
ENDBRANCH   2   3
BRANCH   1  15
HETATM   15  C5  UNL     1      26.090   2.914  51.392  1.00  0.00     0.268 C 
HETATM   16  C4  UNL     1      24.622   2.752  51.715  1.00  0.00     0.071 C 
HETATM   17  C3  UNL     1      23.755   2.994  50.552  1.00  0.00     0.012 C 
HETATM   18  C2  UNL     1      24.167   3.554  49.419  1.00  0.00     0.100 C 
HETATM   19  C15 UNL     1      25.594   3.945  49.358  1.00  0.00     0.414 C 
HETATM   20  N4  UNL     1      26.355   2.866  49.975  1.00  0.00     0.128 N 
HETATM   21  H17 UNL     1      26.071   1.963  49.560  1.00  0.00     0.320 HD
BRANCH  18  22
HETATM   22  O1  UNL     1      23.349   3.784  48.316  1.00  0.00    -0.356 OA
HETATM   23  C1  UNL     1      22.330   4.764  48.320  1.00  0.00     0.209 C 
ENDBRANCH  18  22
BRANCH  19  24
HETATM   24  O2  UNL     1      25.882   5.100  50.079  1.00  0.00    -0.357 OA
HETATM   25  C16 UNL     1      25.735   6.248  49.307  1.00  0.00     0.204 C 
ENDBRANCH  19  24
ENDBRANCH   1  15
TORSDOF 7
ENDMDL
MODEL 8
REMARK VINA RESULT:      -6.6      5.334      6.637
REMARK  7 active torsions:
REMARK  status: ('A' for Active; 'I' for Inactive)
REMARK    1  A    between atoms: O1_2  and  C2_3 
REMARK    2  A    between atoms: C5_6  and  C6_7 
REMARK    3  A    between atoms: N1_8  and  C7_9 
REMARK    4  A    between atoms: N2_10  and  C8_11 
REMARK    5  A    between atoms: C8_11  and  N3_12 
REMARK    6  A    between atoms: N3_12  and  C9_13 
REMARK    7  A    between atoms: C15_21  and  O2_22 
ROOT
HETATM    1  C6  UNL     1      25.909   7.096  49.907  1.00  0.00     0.126 C 
HETATM    2  N1  UNL     1      25.147   6.075  50.105  1.00  0.00    -0.256 NA
ENDROOT
BRANCH   2   3
HETATM    3  C7  UNL     1      24.146   6.225  51.126  1.00  0.00     0.228 C 
HETATM    4  N2  UNL     1      23.483   5.277  51.687  1.00  0.00    -0.264 NA
BRANCH   4   5
HETATM    5  C8  UNL     1      23.746   3.919  51.275  1.00  0.00     0.272 C 
BRANCH   5   6
HETATM    6  N3  UNL     1      24.957   3.514  51.961  1.00  0.00    -0.372 N 
HETATM    7  H12 UNL     1      25.681   4.194  52.339  1.00  0.00     0.161 HD
BRANCH   6   8
HETATM    8  C9  UNL     1      25.316   2.150  52.205  1.00  0.00     0.030 A 
HETATM    9  C10 UNL     1      26.438   1.503  51.713  1.00  0.00     0.029 A 
HETATM   10  C11 UNL     1      26.677   0.181  52.019  1.00  0.00     0.004 A 
HETATM   11  C12 UNL     1      25.794  -0.513  52.824  1.00  0.00     0.024 A 
HETATM   12  C13 UNL     1      24.667   0.104  53.328  1.00  0.00     0.036 A 
HETATM   13 CL1  UNL     1      23.554  -0.808  54.356  1.00  0.00    -0.084 Cl
HETATM   14  C14 UNL     1      24.450   1.433  53.006  1.00  0.00     0.053 A 
ENDBRANCH   6   8
ENDBRANCH   5   6
ENDBRANCH   4   5
ENDBRANCH   2   3
BRANCH   1  15
HETATM   15  C5  UNL     1      26.988   7.090  48.887  1.00  0.00     0.268 C 
HETATM   16  C4  UNL     1      27.361   5.676  48.504  1.00  0.00     0.071 C 
HETATM   17  C3  UNL     1      28.811   5.496  48.339  1.00  0.00     0.012 C 
HETATM   18  C2  UNL     1      29.683   6.497  48.262  1.00  0.00     0.100 C 
HETATM   19  C15 UNL     1      29.123   7.866  48.351  1.00  0.00     0.414 C 
HETATM   20  N4  UNL     1      28.109   7.841  49.397  1.00  0.00     0.128 N 
HETATM   21  H17 UNL     1      28.505   7.411  50.251  1.00  0.00     0.320 HD
BRANCH  18  22
HETATM   22  O1  UNL     1      31.056   6.331  48.106  1.00  0.00    -0.356 OA
HETATM   23  C1  UNL     1      31.685   6.365  46.840  1.00  0.00     0.209 C 
ENDBRANCH  18  22
BRANCH  19  24
HETATM   24  O2  UNL     1      28.484   8.280  47.186  1.00  0.00    -0.357 OA
HETATM   25  C16 UNL     1      29.244   9.203  46.474  1.00  0.00     0.204 C 
ENDBRANCH  19  24
ENDBRANCH   1  15
TORSDOF 7
ENDMDL
MODEL 9
REMARK VINA RESULT:      -6.4      5.531      7.350
REMARK  7 active torsions:
REMARK  status: ('A' for Active; 'I' for Inactive)
REMARK    1  A    between atoms: O1_2  and  C2_3 
REMARK    2  A    between atoms: C5_6  and  C6_7 
REMARK    3  A    between atoms: N1_8  and  C7_9 
REMARK    4  A    between atoms: N2_10  and  C8_11 
REMARK    5  A    between atoms: C8_11  and  N3_12 
REMARK    6  A    between atoms: N3_12  and  C9_13 
REMARK    7  A    between atoms: C15_21  and  O2_22 
ROOT
HETATM    1  C6  UNL     1      24.911   7.439  50.494  1.00  0.00     0.126 C 
HETATM    2  N1  UNL     1      24.964   6.152  50.521  1.00  0.00    -0.256 NA
ENDROOT
BRANCH   2   3
HETATM    3  C7  UNL     1      23.949   5.497  51.300  1.00  0.00     0.228 C 
HETATM    4  N2  UNL     1      23.786   4.227  51.425  1.00  0.00    -0.264 NA
BRANCH   4   5
HETATM    5  C8  UNL     1      24.695   3.347  50.728  1.00  0.00     0.272 C 
BRANCH   5   6
HETATM    6  N3  UNL     1      25.822   3.142  51.616  1.00  0.00    -0.372 N 
HETATM    7  H12 UNL     1      26.476   3.918  51.934  1.00  0.00     0.161 HD
BRANCH   6   8
HETATM    8  C9  UNL     1      26.181   1.871  52.166  1.00  0.00     0.030 A 
HETATM    9  C10 UNL     1      25.351   0.768  52.279  1.00  0.00     0.029 A 
HETATM   10  C11 UNL     1      25.814  -0.407  52.829  1.00  0.00     0.004 A 
HETATM   11  C12 UNL     1      27.119  -0.495  53.274  1.00  0.00     0.024 A 
HETATM   12  C13 UNL     1      27.971   0.587  53.176  1.00  0.00     0.036 A 
HETATM   13 CL1  UNL     1      29.635   0.447  53.753  1.00  0.00    -0.084 Cl
HETATM   14  C14 UNL     1      27.480   1.756  52.619  1.00  0.00     0.053 A 
ENDBRANCH   6   8
ENDBRANCH   5   6
ENDBRANCH   4   5
ENDBRANCH   2   3
BRANCH   1  15
HETATM   15  C5  UNL     1      25.892   8.255  49.733  1.00  0.00     0.268 C 
HETATM   16  C4  UNL     1      26.255   7.582  48.428  1.00  0.00     0.071 C 
HETATM   17  C3  UNL     1      27.687   7.692  48.112  1.00  0.00     0.012 C 
HETATM   18  C2  UNL     1      28.528   8.509  48.739  1.00  0.00     0.100 C 
HETATM   19  C15 UNL     1      27.953   9.346  49.818  1.00  0.00     0.414 C 
HETATM   20  N4  UNL     1      27.041   8.496  50.571  1.00  0.00     0.128 N 
HETATM   21  H17 UNL     1      27.521   7.617  50.829  1.00  0.00     0.320 HD
BRANCH  18  22
HETATM   22  O1  UNL     1      29.884   8.616  48.442  1.00  0.00    -0.356 OA
HETATM   23  C1  UNL     1      30.836   9.049  49.392  1.00  0.00     0.209 C 
ENDBRANCH  18  22
BRANCH  19  24
HETATM   24  O2  UNL     1      27.202  10.418  49.345  1.00  0.00    -0.357 OA
HETATM   25  C16 UNL     1      28.004  11.424  48.815  1.00  0.00     0.204 C 
ENDBRANCH  19  24
ENDBRANCH   1  15
TORSDOF 7
ENDMDL
