MODEL 1
REMARK VINA RESULT:      -7.4      0.000      0.000
REMARK  3 active torsions:
REMARK  status: ('A' for Active; 'I' for Inactive)
REMARK    1  A    between atoms: O1_2  and  C2_3 
REMARK    2  A    between atoms: C6_9  and  N3_10 
REMARK    3  A    between atoms: N3_10  and  C7_11 
ROOT
HETATM    1  C2  UNL     1      27.507   0.096  54.251  1.00  0.00     0.088 A 
HETATM    2  C3  UNL     1      26.438   0.373  54.995  1.00  0.00     0.066 A 
HETATM    3  C4  UNL     1      25.636   0.625  53.789  1.00  0.00     0.079 A 
HETATM    4  N1  UNL     1      24.387   0.980  53.601  1.00  0.00    -0.243 NA
HETATM    5  C5  UNL     1      23.731   1.195  52.329  1.00  0.00     0.235 C 
HETATM    6  N2  UNL     1      24.142   1.755  51.212  1.00  0.00    -0.223 NA
HETATM    7  C6  UNL     1      25.387   2.341  50.886  1.00  0.00     0.151 C 
HETATM    8  C13 UNL     1      26.669   2.266  51.238  1.00  0.00     0.187 C 
HETATM    9  O2  UNL     1      27.242   1.435  52.205  1.00  0.00    -0.335 OA
HETATM   10  C14 UNL     1      26.833   0.309  52.954  1.00  0.00     0.155 A 
HETATM   11  C15 UNL     1      26.734  -0.992  52.197  1.00  0.00     0.061 C 
ENDROOT
BRANCH   7  12
HETATM   12  N3  UNL     1      25.310   3.344  49.856  1.00  0.00    -0.339 N 
HETATM   13  H6  UNL     1      24.756   3.260  48.978  1.00  0.00     0.167 HD
BRANCH  12  14
HETATM   14  C7  UNL     1      25.836   4.639  49.612  1.00  0.00     0.035 A 
HETATM   15  C8  UNL     1      25.088   5.612  50.286  1.00  0.00     0.029 A 
HETATM   16  C9  UNL     1      25.394   6.978  50.220  1.00  0.00     0.004 A 
HETATM   17  C10 UNL     1      26.489   7.293  49.440  1.00  0.00     0.019 A 
HETATM   18  C11 UNL     1      27.243   6.374  48.766  1.00  0.00     0.013 A 
HETATM   19 BR1  UNL     1      28.749   6.795  47.693  1.00  0.00    -0.051 Br
HETATM   20  C12 UNL     1      26.921   5.038  48.847  1.00  0.00     0.048 A 
ENDBRANCH  12  14
ENDBRANCH   7  12
BRANCH   1  21
HETATM   21  O1  UNL     1      28.821  -0.271  54.517  1.00  0.00    -0.357 OA
HETATM   22  C1  UNL     1      29.856  -0.211  53.579  1.00  0.00     0.209 C 
ENDBRANCH   1  21
TORSDOF 3
ENDMDL
MODEL 2
REMARK VINA RESULT:      -7.1      4.386      6.934
REMARK  3 active torsions:
REMARK  status: ('A' for Active; 'I' for Inactive)
REMARK    1  A    between atoms: O1_2  and  C2_3 
REMARK    2  A    between atoms: C6_9  and  N3_10 
REMARK    3  A    between atoms: N3_10  and  C7_11 
ROOT
HETATM    1  C2  UNL     1      27.017  -0.447  53.091  1.00  0.00     0.088 A 
HETATM    2  C3  UNL     1      26.863   0.142  51.907  1.00  0.00     0.066 A 
HETATM    3  C4  UNL     1      25.577   0.713  52.332  1.00  0.00     0.079 A 
HETATM    4  N1  UNL     1      24.693   1.475  51.731  1.00  0.00    -0.243 NA
HETATM    5  C5  UNL     1      23.451   1.962  52.291  1.00  0.00     0.235 C 
HETATM    6  N2  UNL     1      22.553   1.394  53.067  1.00  0.00    -0.223 NA
HETATM    7  C6  UNL     1      22.512   0.092  53.617  1.00  0.00     0.151 C 
HETATM    8  C13 UNL     1      23.341  -0.886  53.978  1.00  0.00     0.187 C 
HETATM    9  O2  UNL     1      24.736  -0.896  53.896  1.00  0.00    -0.335 OA
HETATM   10  C14 UNL     1      25.752   0.058  53.662  1.00  0.00     0.155 A 
HETATM   11  C15 UNL     1      26.034   1.018  54.791  1.00  0.00     0.061 C 
ENDROOT
BRANCH   7  12
HETATM   12  N3  UNL     1      21.182  -0.384  53.895  1.00  0.00    -0.339 N 
HETATM   13  H6  UNL     1      20.871  -0.797  54.800  1.00  0.00     0.167 HD
BRANCH  12  14
HETATM   14  C7  UNL     1      19.942  -0.487  53.216  1.00  0.00     0.035 A 
HETATM   15  C8  UNL     1      19.116  -1.433  53.833  1.00  0.00     0.029 A 
HETATM   16  C9  UNL     1      17.828  -1.731  53.366  1.00  0.00     0.004 A 
HETATM   17  C10 UNL     1      17.435  -1.019  52.251  1.00  0.00     0.019 A 
HETATM   18  C11 UNL     1      18.211  -0.089  51.619  1.00  0.00     0.013 A 
HETATM   19 BR1  UNL     1      17.680   0.895  50.087  1.00  0.00    -0.051 Br
HETATM   20  C12 UNL     1      19.472   0.184  52.097  1.00  0.00     0.048 A 
ENDBRANCH  12  14
ENDBRANCH   7  12
BRANCH   1  21
HETATM   21  O1  UNL     1      27.987  -1.258  53.667  1.00  0.00    -0.357 OA
HETATM   22  C1  UNL     1      29.330  -0.893  53.808  1.00  0.00     0.209 C 
ENDBRANCH   1  21
TORSDOF 3
ENDMDL
MODEL 3
REMARK VINA RESULT:      -6.9      2.760      4.298
REMARK  3 active torsions:
REMARK  status: ('A' for Active; 'I' for Inactive)
REMARK    1  A    between atoms: O1_2  and  C2_3 
REMARK    2  A    between atoms: C6_9  and  N3_10 
REMARK    3  A    between atoms: N3_10  and  C7_11 
ROOT
HETATM    1  C2  UNL     1      22.523   1.792  52.224  1.00  0.00     0.088 A 
HETATM    2  C3  UNL     1      23.228   0.692  52.478  1.00  0.00     0.066 A 
HETATM    3  C4  UNL     1      24.486   1.418  52.250  1.00  0.00     0.079 A 
HETATM    4  N1  UNL     1      25.748   1.059  52.290  1.00  0.00    -0.243 NA
HETATM    5  C5  UNL     1      26.895   1.904  52.034  1.00  0.00     0.235 C 
HETATM    6  N2  UNL     1      27.109   2.849  51.145  1.00  0.00    -0.223 NA
HETATM    7  C6  UNL     1      26.267   3.358  50.128  1.00  0.00     0.151 C 
HETATM    8  C13 UNL     1      24.971   3.490  49.854  1.00  0.00     0.187 C 
HETATM    9  O2  UNL     1      23.886   3.088  50.639  1.00  0.00    -0.335 OA
HETATM   10  C14 UNL     1      23.696   2.653  51.969  1.00  0.00     0.155 A 
HETATM   11  C15 UNL     1      23.806   3.713  53.037  1.00  0.00     0.061 C 
ENDROOT
BRANCH   7  12
HETATM   12  N3  UNL     1      26.975   3.922  49.009  1.00  0.00    -0.339 N 
HETATM   13  H6  UNL     1      27.322   3.384  48.187  1.00  0.00     0.167 HD
BRANCH  12  14
HETATM   14  C7  UNL     1      27.430   5.199  48.592  1.00  0.00     0.035 A 
HETATM   15  C8  UNL     1      28.807   5.175  48.338  1.00  0.00     0.029 A 
HETATM   16  C9  UNL     1      29.514   6.305  47.908  1.00  0.00     0.004 A 
HETATM   17  C10 UNL     1      28.751   7.446  47.752  1.00  0.00     0.019 A 
HETATM   18  C11 UNL     1      27.407   7.510  47.989  1.00  0.00     0.013 A 
HETATM   19 BR1  UNL     1      26.350   9.070  47.777  1.00  0.00    -0.051 Br
HETATM   20  C12 UNL     1      26.736   6.385  48.412  1.00  0.00     0.048 A 
ENDBRANCH  12  14
ENDBRANCH   7  12
BRANCH   1  21
HETATM   21  O1  UNL     1      21.170   2.105  52.189  1.00  0.00    -0.357 OA
HETATM   22  C1  UNL     1      20.155   1.241  52.613  1.00  0.00     0.209 C 
ENDBRANCH   1  21
TORSDOF 3
ENDMDL
MODEL 4
REMARK VINA RESULT:      -6.8      3.632      7.131
REMARK  3 active torsions:
REMARK  status: ('A' for Active; 'I' for Inactive)
REMARK    1  A    between atoms: O1_2  and  C2_3 
REMARK    2  A    between atoms: C6_9  and  N3_10 
REMARK    3  A    between atoms: N3_10  and  C7_11 
ROOT
HETATM    1  C2  UNL     1      22.671   5.405  49.114  1.00  0.00     0.088 A 
HETATM    2  C3  UNL     1      23.699   6.159  48.728  1.00  0.00     0.066 A 
HETATM    3  C4  UNL     1      24.644   5.090  49.079  1.00  0.00     0.079 A 
HETATM    4  N1  UNL     1      25.952   4.994  49.017  1.00  0.00    -0.243 NA
HETATM    5  C5  UNL     1      26.754   3.855  49.410  1.00  0.00     0.235 C 
HETATM    6  N2  UNL     1      26.661   3.022  50.424  1.00  0.00    -0.223 NA
HETATM    7  C6  UNL     1      25.723   2.969  51.481  1.00  0.00     0.151 C 
HETATM    8  C13 UNL     1      24.466   3.318  51.744  1.00  0.00     0.187 C 
HETATM    9  O2  UNL     1      23.560   3.952  50.888  1.00  0.00    -0.335 OA
HETATM   10  C14 UNL     1      23.492   4.242  49.507  1.00  0.00     0.155 A 
HETATM   11  C15 UNL     1      23.212   3.073  48.596  1.00  0.00     0.061 C 
ENDROOT
BRANCH   7  12
HETATM   12  N3  UNL     1      26.230   2.355  52.682  1.00  0.00    -0.339 N 
HETATM   13  H6  UNL     1      25.846   2.505  53.638  1.00  0.00     0.167 HD
BRANCH  12  14
HETATM   14  C7  UNL     1      27.263   1.453  53.042  1.00  0.00     0.035 A 
HETATM   15  C8  UNL     1      28.306   2.128  53.688  1.00  0.00     0.029 A 
HETATM   16  C9  UNL     1      29.453   1.473  54.155  1.00  0.00     0.004 A 
HETATM   17  C10 UNL     1      29.479   0.111  53.930  1.00  0.00     0.019 A 
HETATM   18  C11 UNL     1      28.483  -0.583  53.303  1.00  0.00     0.013 A 
HETATM   19 BR1  UNL     1      28.507  -2.454  52.990  1.00  0.00    -0.051 Br
HETATM   20  C12 UNL     1      27.366   0.083  52.854  1.00  0.00     0.048 A 
ENDBRANCH  12  14
ENDBRANCH   7  12
BRANCH   1  21
HETATM   21  O1  UNL     1      21.293   5.574  49.161  1.00  0.00    -0.357 OA
HETATM   22  C1  UNL     1      20.522   5.396  50.315  1.00  0.00     0.209 C 
ENDBRANCH   1  21
TORSDOF 3
ENDMDL
MODEL 5
REMARK VINA RESULT:      -6.8      3.694      6.384
REMARK  3 active torsions:
REMARK  status: ('A' for Active; 'I' for Inactive)
REMARK    1  A    between atoms: O1_2  and  C2_3 
REMARK    2  A    between atoms: C6_9  and  N3_10 
REMARK    3  A    between atoms: N3_10  and  C7_11 
ROOT
HETATM    1  C2  UNL     1      20.575   1.610  52.338  1.00  0.00     0.088 A 
HETATM    2  C3  UNL     1      20.350   2.922  52.338  1.00  0.00     0.066 A 
HETATM    3  C4  UNL     1      21.668   3.172  51.737  1.00  0.00     0.079 A 
HETATM    4  N1  UNL     1      22.299   4.267  51.383  1.00  0.00    -0.243 NA
HETATM    5  C5  UNL     1      23.618   4.353  50.796  1.00  0.00     0.235 C 
HETATM    6  N2  UNL     1      24.732   3.693  51.035  1.00  0.00    -0.223 NA
HETATM    7  C6  UNL     1      25.003   2.663  51.966  1.00  0.00     0.151 C 
HETATM    8  C13 UNL     1      24.370   1.693  52.622  1.00  0.00     0.187 C 
HETATM    9  O2  UNL     1      23.012   1.367  52.561  1.00  0.00    -0.335 OA
HETATM   10  C14 UNL     1      21.919   1.700  51.731  1.00  0.00     0.155 A 
HETATM   11  C15 UNL     1      21.914   1.078  50.357  1.00  0.00     0.061 C 
ENDROOT
BRANCH   7  12
HETATM   12  N3  UNL     1      26.383   2.591  52.371  1.00  0.00    -0.339 N 
HETATM   13  H6  UNL     1      27.050   3.391  52.370  1.00  0.00     0.167 HD
BRANCH  12  14
HETATM   14  C7  UNL     1      27.281   1.609  52.861  1.00  0.00     0.035 A 
HETATM   15  C8  UNL     1      28.307   2.204  53.606  1.00  0.00     0.029 A 
HETATM   16  C9  UNL     1      29.331   1.461  54.209  1.00  0.00     0.004 A 
HETATM   17  C10 UNL     1      29.252   0.096  54.013  1.00  0.00     0.019 A 
HETATM   18  C11 UNL     1      28.270  -0.522  53.293  1.00  0.00     0.013 A 
HETATM   19 BR1  UNL     1      28.152  -2.395  53.019  1.00  0.00    -0.051 Br
HETATM   20  C12 UNL     1      27.276   0.231  52.710  1.00  0.00     0.048 A 
ENDBRANCH  12  14
ENDBRANCH   7  12
BRANCH   1  21
HETATM   21  O1  UNL     1      19.858   0.490  52.741  1.00  0.00    -0.357 OA
HETATM   22  C1  UNL     1      20.204  -0.309  53.836  1.00  0.00     0.209 C 
ENDBRANCH   1  21
TORSDOF 3
ENDMDL
MODEL 6
REMARK VINA RESULT:      -6.8      2.361      2.823
REMARK  3 active torsions:
REMARK  status: ('A' for Active; 'I' for Inactive)
REMARK    1  A    between atoms: O1_2  and  C2_3 
REMARK    2  A    between atoms: C6_9  and  N3_10 
REMARK    3  A    between atoms: N3_10  and  C7_11 
ROOT
HETATM    1  C2  UNL     1      26.101  -0.274  54.251  1.00  0.00     0.088 A 
HETATM    2  C3  UNL     1      24.939  -0.922  54.302  1.00  0.00     0.066 A 
HETATM    3  C4  UNL     1      24.341   0.029  53.353  1.00  0.00     0.079 A 
HETATM    4  N1  UNL     1      23.144   0.136  52.826  1.00  0.00    -0.243 NA
HETATM    5  C5  UNL     1      22.699   1.147  51.892  1.00  0.00     0.235 C 
HETATM    6  N2  UNL     1      22.935   2.439  51.816  1.00  0.00    -0.223 NA
HETATM    7  C6  UNL     1      23.720   3.276  52.644  1.00  0.00     0.151 C 
HETATM    8  C13 UNL     1      24.768   3.203  53.461  1.00  0.00     0.187 C 
HETATM    9  O2  UNL     1      25.520   2.070  53.786  1.00  0.00    -0.335 OA
HETATM   10  C14 UNL     1      25.646   0.752  53.292  1.00  0.00     0.155 A 
HETATM   11  C15 UNL     1      26.375   0.602  51.980  1.00  0.00     0.061 C 
ENDROOT
BRANCH   7  12
HETATM   12  N3  UNL     1      23.301   4.653  52.648  1.00  0.00    -0.339 N 
HETATM   13  H6  UNL     1      22.945   5.168  53.480  1.00  0.00     0.167 HD
BRANCH  12  14
HETATM   14  C7  UNL     1      23.202   5.722  51.721  1.00  0.00     0.035 A 
HETATM   15  C8  UNL     1      21.882   5.873  51.279  1.00  0.00     0.029 A 
HETATM   16  C9  UNL     1      21.502   6.860  50.359  1.00  0.00     0.004 A 
HETATM   17  C10 UNL     1      22.529   7.673  49.921  1.00  0.00     0.019 A 
HETATM   18  C11 UNL     1      23.828   7.557  50.326  1.00  0.00     0.013 A 
HETATM   19 BR1  UNL     1      25.245   8.668  49.731  1.00  0.00    -0.051 Br
HETATM   20  C12 UNL     1      24.175   6.579  51.230  1.00  0.00     0.048 A 
ENDBRANCH  12  14
ENDBRANCH   7  12
BRANCH   1  21
HETATM   21  O1  UNL     1      27.344  -0.438  54.850  1.00  0.00    -0.357 OA
HETATM   22  C1  UNL     1      28.418   0.441  54.678  1.00  0.00     0.209 C 
ENDBRANCH   1  21
TORSDOF 3
ENDMDL
MODEL 7
REMARK VINA RESULT:      -6.7      6.020      9.046
REMARK  3 active torsions:
REMARK  status: ('A' for Active; 'I' for Inactive)
REMARK    1  A    between atoms: O1_2  and  C2_3 
REMARK    2  A    between atoms: C6_9  and  N3_10 
REMARK    3  A    between atoms: N3_10  and  C7_11 
ROOT
HETATM    1  C2  UNL     1      23.272   3.342  52.186  1.00  0.00     0.088 A 
HETATM    2  C3  UNL     1      24.196   2.812  52.985  1.00  0.00     0.066 A 
HETATM    3  C4  UNL     1      23.527   1.505  52.931  1.00  0.00     0.079 A 
HETATM    4  N1  UNL     1      23.788   0.341  53.479  1.00  0.00    -0.243 NA
HETATM    5  C5  UNL     1      23.019  -0.876  53.331  1.00  0.00     0.235 C 
HETATM    6  N2  UNL     1      21.722  -1.097  53.288  1.00  0.00    -0.223 NA
HETATM    7  C6  UNL     1      20.637  -0.194  53.375  1.00  0.00     0.151 C 
HETATM    8  C13 UNL     1      20.356   1.085  53.132  1.00  0.00     0.187 C 
HETATM    9  O2  UNL     1      21.216   2.068  52.635  1.00  0.00    -0.335 OA
HETATM   10  C14 UNL     1      22.493   2.096  52.031  1.00  0.00     0.155 A 
HETATM   11  C15 UNL     1      22.564   1.610  50.604  1.00  0.00     0.061 C 
ENDROOT
BRANCH   7  12
HETATM   12  N3  UNL     1      19.424  -0.784  53.879  1.00  0.00    -0.339 N 
HETATM   13  H6  UNL     1      19.199  -0.920  54.887  1.00  0.00     0.167 HD
BRANCH  12  14
HETATM   14  C7  UNL     1      18.228  -1.335  53.352  1.00  0.00     0.035 A 
HETATM   15  C8  UNL     1      18.048  -2.649  53.800  1.00  0.00     0.029 A 
HETATM   16  C9  UNL     1      16.942  -3.427  53.434  1.00  0.00     0.004 A 
HETATM   17  C10 UNL     1      16.042  -2.800  52.595  1.00  0.00     0.019 A 
HETATM   18  C11 UNL     1      16.181  -1.521  52.136  1.00  0.00     0.013 A 
HETATM   19 BR1  UNL     1      14.950  -0.651  50.985  1.00  0.00    -0.051 Br
HETATM   20  C12 UNL     1      17.277  -0.778  52.510  1.00  0.00     0.048 A 
ENDBRANCH  12  14
ENDBRANCH   7  12
BRANCH   1  21
HETATM   21  O1  UNL     1      23.047   4.601  51.643  1.00  0.00    -0.357 OA
HETATM   22  C1  UNL     1      21.784   5.191  51.531  1.00  0.00     0.209 C 
ENDBRANCH   1  21
TORSDOF 3
ENDMDL
MODEL 8
REMARK VINA RESULT:      -6.7      3.341      4.198
REMARK  3 active torsions:
REMARK  status: ('A' for Active; 'I' for Inactive)
REMARK    1  A    between atoms: O1_2  and  C2_3 
REMARK    2  A    between atoms: C6_9  and  N3_10 
REMARK    3  A    between atoms: N3_10  and  C7_11 
ROOT
HETATM    1  C2  UNL     1      21.884   0.229  53.305  1.00  0.00     0.088 A 
HETATM    2  C3  UNL     1      20.693   0.627  53.748  1.00  0.00     0.066 A 
HETATM    3  C4  UNL     1      20.728   1.796  52.857  1.00  0.00     0.079 A 
HETATM    4  N1  UNL     1      19.893   2.787  52.647  1.00  0.00    -0.243 NA
HETATM    5  C5  UNL     1      20.072   3.886  51.722  1.00  0.00     0.235 C 
HETATM    6  N2  UNL     1      21.129   4.601  51.400  1.00  0.00    -0.223 NA
HETATM    7  C6  UNL     1      22.462   4.524  51.866  1.00  0.00     0.151 C 
HETATM    8  C13 UNL     1      23.308   3.638  52.386  1.00  0.00     0.187 C 
HETATM    9  O2  UNL     1      23.065   2.290  52.668  1.00  0.00    -0.335 OA
HETATM   10  C14 UNL     1      22.061   1.347  52.357  1.00  0.00     0.155 A 
HETATM   11  C15 UNL     1      22.047   0.835  50.937  1.00  0.00     0.061 C 
ENDROOT
BRANCH   7  12
HETATM   12  N3  UNL     1      23.185   5.767  51.777  1.00  0.00    -0.339 N 
HETATM   13  H6  UNL     1      23.076   6.570  52.430  1.00  0.00     0.167 HD
BRANCH  12  14
HETATM   14  C7  UNL     1      24.171   6.348  50.940  1.00  0.00     0.035 A 
HETATM   15  C8  UNL     1      24.004   7.736  50.869  1.00  0.00     0.029 A 
HETATM   16  C9  UNL     1      24.847   8.560  50.111  1.00  0.00     0.004 A 
HETATM   17  C10 UNL     1      25.857   7.899  49.439  1.00  0.00     0.019 A 
HETATM   18  C11 UNL     1      26.052   6.548  49.482  1.00  0.00     0.013 A 
HETATM   19 BR1  UNL     1      27.436   5.631  48.564  1.00  0.00    -0.051 Br
HETATM   20  C12 UNL     1      25.210   5.761  50.233  1.00  0.00     0.048 A 
ENDBRANCH  12  14
ENDBRANCH   7  12
BRANCH   1  21
HETATM   21  O1  UNL     1      22.727  -0.841  53.580  1.00  0.00    -0.357 OA
HETATM   22  C1  UNL     1      23.978  -0.715  54.193  1.00  0.00     0.209 C 
ENDBRANCH   1  21
TORSDOF 3
ENDMDL
MODEL 9
REMARK VINA RESULT:      -6.6      3.501      7.387
REMARK  3 active torsions:
REMARK  status: ('A' for Active; 'I' for Inactive)
REMARK    1  A    between atoms: O1_2  and  C2_3 
REMARK    2  A    between atoms: C6_9  and  N3_10 
REMARK    3  A    between atoms: N3_10  and  C7_11 
ROOT
HETATM    1  C2  UNL     1      23.293   6.832  48.933  1.00  0.00     0.088 A 
HETATM    2  C3  UNL     1      24.506   7.283  48.620  1.00  0.00     0.066 A 
HETATM    3  C4  UNL     1      25.096   5.968  48.913  1.00  0.00     0.079 A 
HETATM    4  N1  UNL     1      26.323   5.506  48.868  1.00  0.00    -0.243 NA
HETATM    5  C5  UNL     1      26.754   4.164  49.195  1.00  0.00     0.235 C 
HETATM    6  N2  UNL     1      26.390   3.331  50.146  1.00  0.00    -0.223 NA
HETATM    7  C6  UNL     1      25.437   3.482  51.180  1.00  0.00     0.151 C 
HETATM    8  C13 UNL     1      24.321   4.160  51.443  1.00  0.00     0.187 C 
HETATM    9  O2  UNL     1      23.665   5.078  50.617  1.00  0.00    -0.335 OA
HETATM   10  C14 UNL     1      23.735   5.461  49.259  1.00  0.00     0.155 A 
HETATM   11  C15 UNL     1      23.169   4.479  48.263  1.00  0.00     0.061 C 
ENDROOT
BRANCH   7  12
HETATM   12  N3  UNL     1      25.702   2.677  52.343  1.00  0.00    -0.339 N 
HETATM   13  H6  UNL     1      25.426   2.922  53.317  1.00  0.00     0.167 HD
BRANCH  12  14
HETATM   14  C7  UNL     1      26.327   1.439  52.640  1.00  0.00     0.035 A 
HETATM   15  C8  UNL     1      25.395   0.394  52.611  1.00  0.00     0.029 A 
HETATM   16  C9  UNL     1      25.746  -0.938  52.865  1.00  0.00     0.004 A 
HETATM   17  C10 UNL     1      27.082  -1.145  53.147  1.00  0.00     0.019 A 
HETATM   18  C11 UNL     1      28.021  -0.154  53.186  1.00  0.00     0.013 A 
HETATM   19 BR1  UNL     1      29.858  -0.426  53.572  1.00  0.00    -0.051 Br
HETATM   20  C12 UNL     1      27.650   1.147  52.934  1.00  0.00     0.048 A 
ENDBRANCH  12  14
ENDBRANCH   7  12
BRANCH   1  21
HETATM   21  O1  UNL     1      22.019   7.384  48.967  1.00  0.00    -0.357 OA
HETATM   22  C1  UNL     1      21.317   7.662  50.145  1.00  0.00     0.209 C 
ENDBRANCH   1  21
TORSDOF 3
ENDMDL
