MODEL 1
REMARK VINA RESULT:      -6.6      0.000      0.000
REMARK  2 active torsions:
REMARK  status: ('A' for Active; 'I' for Inactive)
REMARK    1  A    between atoms: C5_6  and  C6_7 
REMARK    2  A    between atoms: C6_7  and  O1_8 
ROOT
HETATM    1  C1  UNL     1      21.435   3.271  51.818  1.00  0.00     0.150 C 
HETATM    2  N1  UNL     1      22.408   4.265  51.398  1.00  0.00    -0.379 N 
HETATM    3  C2  UNL     1      22.386   5.693  51.142  1.00  0.00     0.150 C 
HETATM    4  C3  UNL     1      23.711   6.299  51.205  1.00  0.00    -0.005 C 
HETATM    5  C4  UNL     1      24.850   6.852  50.890  1.00  0.00     0.027 C 
HETATM    6  C5  UNL     1      25.500   7.230  49.667  1.00  0.00     0.059 C 
HETATM    7  N2  UNL     1      25.043   6.925  48.521  1.00  0.00    -0.244 NA
HETATM    8  C7  UNL     1      23.890   6.188  48.291  1.00  0.00     0.234 C 
HETATM    9  N3  UNL     1      23.520   5.083  48.779  1.00  0.00    -0.232 NA
HETATM   10  C8  UNL     1      24.162   4.249  49.722  1.00  0.00     0.126 A 
HETATM   11  S1  UNL     1      25.845   3.436  49.580  1.00  0.00    -0.072 SA
HETATM   12  C9  UNL     1      25.770   2.645  51.107  1.00  0.00    -0.007 A 
HETATM   13  C10 UNL     1      24.574   2.984  51.652  1.00  0.00    -0.015 A 
HETATM   14  C11 UNL     1      23.725   3.785  51.006  1.00  0.00     0.073 A 
HETATM   15  C12 UNL     1      24.378   2.351  52.981  1.00  0.00     0.042 C 
HETATM   16  C13 UNL     1      25.654   2.437  53.815  1.00  0.00     0.005 C 
HETATM   17  C14 UNL     1      26.821   1.744  53.201  1.00  0.00     0.005 C 
HETATM   18  C15 UNL     1      26.816   1.742  51.709  1.00  0.00     0.047 C 
ENDROOT
BRANCH   6  19
HETATM   19  C6  UNL     1      26.730   8.005  49.569  1.00  0.00     0.223 C 
BRANCH  19  20
HETATM   20  O1  UNL     1      26.989   8.550  50.839  1.00  0.00    -0.395 OA
HETATM   21  H10 UNL     1      26.177   8.398  51.380  1.00  0.00     0.209 HD
ENDBRANCH  19  20
ENDBRANCH   6  19
TORSDOF 2
ENDMDL
MODEL 2
REMARK VINA RESULT:      -6.6      1.938      2.618
REMARK  2 active torsions:
REMARK  status: ('A' for Active; 'I' for Inactive)
REMARK    1  A    between atoms: C5_6  and  C6_7 
REMARK    2  A    between atoms: C6_7  and  O1_8 
ROOT
HETATM    1  C1  UNL     1      21.884  -0.120  52.323  1.00  0.00     0.150 C 
HETATM    2  N1  UNL     1      22.077   1.306  52.113  1.00  0.00    -0.379 N 
HETATM    3  C2  UNL     1      21.224   2.480  52.127  1.00  0.00     0.150 C 
HETATM    4  C3  UNL     1      21.969   3.717  52.326  1.00  0.00    -0.005 C 
HETATM    5  C4  UNL     1      22.558   4.866  52.141  1.00  0.00     0.027 C 
HETATM    6  C5  UNL     1      22.761   5.743  51.021  1.00  0.00     0.059 C 
HETATM    7  N2  UNL     1      22.456   5.422  49.831  1.00  0.00    -0.244 NA
HETATM    8  C7  UNL     1      21.910   4.205  49.447  1.00  0.00     0.234 C 
HETATM    9  N3  UNL     1      22.280   3.027  49.713  1.00  0.00    -0.232 NA
HETATM   10  C8  UNL     1      23.366   2.575  50.496  1.00  0.00     0.126 A 
HETATM   11  S1  UNL     1      25.190   2.914  50.236  1.00  0.00    -0.072 SA
HETATM   12  C9  UNL     1      25.720   1.988  51.587  1.00  0.00    -0.007 A 
HETATM   13  C10 UNL     1      24.599   1.483  52.164  1.00  0.00    -0.015 A 
HETATM   14  C11 UNL     1      23.390   1.742  51.663  1.00  0.00     0.073 A 
HETATM   15  C12 UNL     1      24.921   0.647  53.348  1.00  0.00     0.042 C 
HETATM   16  C13 UNL     1      25.993   1.313  54.207  1.00  0.00     0.005 C 
HETATM   17  C14 UNL     1      27.284   1.529  53.496  1.00  0.00     0.005 C 
HETATM   18  C15 UNL     1      27.143   1.768  52.030  1.00  0.00     0.047 C 
ENDROOT
BRANCH   6  19
HETATM   19  C6  UNL     1      23.318   7.088  51.093  1.00  0.00     0.223 C 
BRANCH  19  20
HETATM   20  O1  UNL     1      24.432   7.040  51.949  1.00  0.00    -0.395 OA
HETATM   21  H10 UNL     1      25.198   6.750  51.397  1.00  0.00     0.209 HD
ENDBRANCH  19  20
ENDBRANCH   6  19
TORSDOF 2
ENDMDL
MODEL 3
REMARK VINA RESULT:      -6.4      3.738      5.287
REMARK  2 active torsions:
REMARK  status: ('A' for Active; 'I' for Inactive)
REMARK    1  A    between atoms: C5_6  and  C6_7 
REMARK    2  A    between atoms: C6_7  and  O1_8 
ROOT
HETATM    1  C1  UNL     1      25.349   2.471  53.408  1.00  0.00     0.150 C 
HETATM    2  N1  UNL     1      24.442   2.526  52.273  1.00  0.00    -0.379 N 
HETATM    3  C2  UNL     1      24.543   2.937  50.885  1.00  0.00     0.150 C 
HETATM    4  C3  UNL     1      23.500   2.358  50.047  1.00  0.00    -0.005 C 
HETATM    5  C4  UNL     1      22.436   2.191  49.312  1.00  0.00     0.027 C 
HETATM    6  C5  UNL     1      21.351   3.025  48.876  1.00  0.00     0.059 C 
HETATM    7  N2  UNL     1      21.175   4.206  49.309  1.00  0.00    -0.244 NA
HETATM    8  C7  UNL     1      21.972   4.839  50.252  1.00  0.00     0.234 C 
HETATM    9  N3  UNL     1      22.367   4.440  51.384  1.00  0.00    -0.232 NA
HETATM   10  C8  UNL     1      22.127   3.214  52.044  1.00  0.00     0.126 A 
HETATM   11  S1  UNL     1      20.477   2.481  52.544  1.00  0.00    -0.072 SA
HETATM   12  C9  UNL     1      21.141   1.068  53.268  1.00  0.00    -0.007 A 
HETATM   13  C10 UNL     1      22.488   1.166  53.128  1.00  0.00    -0.015 A 
HETATM   14  C11 UNL     1      23.042   2.219  52.523  1.00  0.00     0.073 A 
HETATM   15  C12 UNL     1      23.189   0.003  53.727  1.00  0.00     0.042 C 
HETATM   16  C13 UNL     1      22.474  -1.300  53.375  1.00  0.00     0.005 C 
HETATM   17  C14 UNL     1      21.071  -1.368  53.871  1.00  0.00     0.005 C 
HETATM   18  C15 UNL     1      20.381  -0.047  53.939  1.00  0.00     0.047 C 
ENDROOT
BRANCH   6  19
HETATM   19  C6  UNL     1      20.340   2.652  47.895  1.00  0.00     0.223 C 
BRANCH  19  20
HETATM   20  O1  UNL     1      19.342   1.927  48.571  1.00  0.00    -0.395 OA
HETATM   21  H10 UNL     1      18.514   2.461  48.505  1.00  0.00     0.209 HD
ENDBRANCH  19  20
ENDBRANCH   6  19
TORSDOF 2
ENDMDL
MODEL 4
REMARK VINA RESULT:      -6.3      3.145      4.224
REMARK  2 active torsions:
REMARK  status: ('A' for Active; 'I' for Inactive)
REMARK    1  A    between atoms: C5_6  and  C6_7 
REMARK    2  A    between atoms: C6_7  and  O1_8 
ROOT
HETATM    1  C1  UNL     1      18.464   0.548  51.073  1.00  0.00     0.150 C 
HETATM    2  N1  UNL     1      19.416   1.631  51.258  1.00  0.00    -0.379 N 
HETATM    3  C2  UNL     1      19.381   3.076  51.127  1.00  0.00     0.150 C 
HETATM    4  C3  UNL     1      20.441   3.737  51.878  1.00  0.00    -0.005 C 
HETATM    5  C4  UNL     1      21.529   4.378  52.206  1.00  0.00     0.027 C 
HETATM    6  C5  UNL     1      22.651   4.922  51.492  1.00  0.00     0.059 C 
HETATM    7  N2  UNL     1      22.840   4.722  50.252  1.00  0.00    -0.244 NA
HETATM    8  C7  UNL     1      22.022   3.958  49.432  1.00  0.00     0.234 C 
HETATM    9  N3  UNL     1      21.572   2.788  49.593  1.00  0.00    -0.232 NA
HETATM   10  C8  UNL     1      21.755   1.889  50.669  1.00  0.00     0.126 A 
HETATM   11  S1  UNL     1      23.365   1.184  51.316  1.00  0.00    -0.072 SA
HETATM   12  C9  UNL     1      22.638   0.226  52.547  1.00  0.00    -0.007 A 
HETATM   13  C10 UNL     1      21.300   0.441  52.455  1.00  0.00    -0.015 A 
HETATM   14  C11 UNL     1      20.798   1.265  51.533  1.00  0.00     0.073 A 
HETATM   15  C12 UNL     1      20.547  -0.344  53.465  1.00  0.00     0.042 C 
HETATM   16  C13 UNL     1      21.242  -0.287  54.824  1.00  0.00     0.005 C 
HETATM   17  C14 UNL     1      22.622  -0.847  54.816  1.00  0.00     0.005 C 
HETATM   18  C15 UNL     1      23.342  -0.684  53.520  1.00  0.00     0.047 C 
ENDROOT
BRANCH   6  19
HETATM   19  C6  UNL     1      23.690   5.765  52.069  1.00  0.00     0.223 C 
BRANCH  19  20
HETATM   20  O1  UNL     1      23.798   5.432  53.431  1.00  0.00    -0.395 OA
HETATM   21  H10 UNL     1      24.597   4.859  53.518  1.00  0.00     0.209 HD
ENDBRANCH  19  20
ENDBRANCH   6  19
TORSDOF 2
ENDMDL
MODEL 5
REMARK VINA RESULT:      -6.2      6.126      8.808
REMARK  2 active torsions:
REMARK  status: ('A' for Active; 'I' for Inactive)
REMARK    1  A    between atoms: C5_6  and  C6_7 
REMARK    2  A    between atoms: C6_7  and  O1_8 
ROOT
HETATM    1  C1  UNL     1      34.140   8.710  45.923  1.00  0.00     0.150 C 
HETATM    2  N1  UNL     1      32.763   8.508  46.344  1.00  0.00    -0.379 N 
HETATM    3  C2  UNL     1      31.526   9.259  46.238  1.00  0.00     0.150 C 
HETATM    4  C3  UNL     1      30.342   8.423  46.395  1.00  0.00    -0.005 C 
HETATM    5  C4  UNL     1      29.270   7.848  46.866  1.00  0.00     0.027 C 
HETATM    6  C5  UNL     1      28.528   7.917  48.094  1.00  0.00     0.059 C 
HETATM    7  N2  UNL     1      28.938   8.559  49.111  1.00  0.00    -0.244 NA
HETATM    8  C7  UNL     1      30.136   9.254  49.187  1.00  0.00     0.234 C 
HETATM    9  N3  UNL     1      31.310   8.888  48.894  1.00  0.00    -0.232 NA
HETATM   10  C8  UNL     1      31.772   7.653  48.386  1.00  0.00     0.126 A 
HETATM   11  S1  UNL     1      31.614   5.957  49.168  1.00  0.00    -0.072 SA
HETATM   12  C9  UNL     1      32.443   5.123  47.911  1.00  0.00    -0.007 A 
HETATM   13  C10 UNL     1      32.794   6.065  46.997  1.00  0.00    -0.015 A 
HETATM   14  C11 UNL     1      32.484   7.350  47.180  1.00  0.00     0.073 A 
HETATM   15  C12 UNL     1      33.533   5.472  45.855  1.00  0.00     0.042 C 
HETATM   16  C13 UNL     1      32.877   4.169  45.402  1.00  0.00     0.005 C 
HETATM   17  C14 UNL     1      32.842   3.117  46.456  1.00  0.00     0.005 C 
HETATM   18  C15 UNL     1      32.737   3.647  47.847  1.00  0.00     0.047 C 
ENDROOT
BRANCH   6  19
HETATM   19  C6  UNL     1      27.234   7.292  48.335  1.00  0.00     0.223 C 
BRANCH  19  20
HETATM   20  O1  UNL     1      27.412   6.323  49.338  1.00  0.00    -0.395 OA
HETATM   21  H10 UNL     1      28.050   6.706  49.988  1.00  0.00     0.209 HD
ENDBRANCH  19  20
ENDBRANCH   6  19
TORSDOF 2
ENDMDL
MODEL 6
REMARK VINA RESULT:      -6.1      2.507      4.205
REMARK  2 active torsions:
REMARK  status: ('A' for Active; 'I' for Inactive)
REMARK    1  A    between atoms: C5_6  and  C6_7 
REMARK    2  A    between atoms: C6_7  and  O1_8 
ROOT
HETATM    1  C1  UNL     1      25.600   2.026  53.423  1.00  0.00     0.150 C 
HETATM    2  N1  UNL     1      25.074   2.649  52.219  1.00  0.00    -0.379 N 
HETATM    3  C2  UNL     1      25.645   3.213  51.010  1.00  0.00     0.150 C 
HETATM    4  C3  UNL     1      24.689   3.275  49.910  1.00  0.00    -0.005 C 
HETATM    5  C4  UNL     1      23.845   3.696  49.010  1.00  0.00     0.027 C 
HETATM    6  C5  UNL     1      23.287   4.969  48.645  1.00  0.00     0.059 C 
HETATM    7  N2  UNL     1      23.468   6.022  49.332  1.00  0.00    -0.244 NA
HETATM    8  C7  UNL     1      24.199   6.092  50.510  1.00  0.00     0.234 C 
HETATM    9  N3  UNL     1      24.138   5.376  51.549  1.00  0.00    -0.232 NA
HETATM   10  C8  UNL     1      23.309   4.268  51.837  1.00  0.00     0.126 A 
HETATM   11  S1  UNL     1      21.436   4.217  51.890  1.00  0.00    -0.072 SA
HETATM   12  C9  UNL     1      21.334   2.554  52.323  1.00  0.00    -0.007 A 
HETATM   13  C10 UNL     1      22.612   2.104  52.410  1.00  0.00    -0.015 A 
HETATM   14  C11 UNL     1      23.645   2.917  52.177  1.00  0.00     0.073 A 
HETATM   15  C12 UNL     1      22.664   0.671  52.791  1.00  0.00     0.042 C 
HETATM   16  C13 UNL     1      21.619  -0.133  52.022  1.00  0.00     0.005 C 
HETATM   17  C14 UNL     1      20.218   0.306  52.275  1.00  0.00     0.005 C 
HETATM   18  C15 UNL     1      20.077   1.761  52.573  1.00  0.00     0.047 C 
ENDROOT
BRANCH   6  19
HETATM   19  C6  UNL     1      22.470   5.226  47.466  1.00  0.00     0.223 C 
BRANCH  19  20
HETATM   20  O1  UNL     1      22.708   6.553  47.068  1.00  0.00    -0.395 OA
HETATM   21  H10 UNL     1      21.855   6.896  46.708  1.00  0.00     0.209 HD
ENDBRANCH  19  20
ENDBRANCH   6  19
TORSDOF 2
ENDMDL
MODEL 7
REMARK VINA RESULT:      -5.8      4.235      6.187
REMARK  2 active torsions:
REMARK  status: ('A' for Active; 'I' for Inactive)
REMARK    1  A    between atoms: C5_6  and  C6_7 
REMARK    2  A    between atoms: C6_7  and  O1_8 
ROOT
HETATM    1  C1  UNL     1      23.670  -0.167  53.089  1.00  0.00     0.150 C 
HETATM    2  N1  UNL     1      22.461   0.586  52.793  1.00  0.00    -0.379 N 
HETATM    3  C2  UNL     1      21.206   0.840  53.476  1.00  0.00     0.150 C 
HETATM    4  C3  UNL     1      20.524   2.029  52.979  1.00  0.00    -0.005 C 
HETATM    5  C4  UNL     1      19.690   2.835  52.381  1.00  0.00     0.027 C 
HETATM    6  C5  UNL     1      18.534   2.674  51.545  1.00  0.00     0.059 C 
HETATM    7  N2  UNL     1      18.164   1.547  51.090  1.00  0.00    -0.244 NA
HETATM    8  C7  UNL     1      18.814   0.342  51.317  1.00  0.00     0.234 C 
HETATM    9  N3  UNL     1      20.034   0.039  51.190  1.00  0.00    -0.232 NA
HETATM   10  C8  UNL     1      21.127   0.838  50.783  1.00  0.00     0.126 A 
HETATM   11  S1  UNL     1      21.350   1.738  49.155  1.00  0.00    -0.072 SA
HETATM   12  C9  UNL     1      22.899   2.382  49.538  1.00  0.00    -0.007 A 
HETATM   13  C10 UNL     1      23.194   1.942  50.789  1.00  0.00    -0.015 A 
HETATM   14  C11 UNL     1      22.345   1.165  51.463  1.00  0.00     0.073 A 
HETATM   15  C12 UNL     1      24.524   2.423  51.239  1.00  0.00     0.042 C 
HETATM   16  C13 UNL     1      24.721   3.893  50.877  1.00  0.00     0.005 C 
HETATM   17  C14 UNL     1      24.663   4.163  49.412  1.00  0.00     0.005 C 
HETATM   18  C15 UNL     1      23.763   3.245  48.656  1.00  0.00     0.047 C 
ENDROOT
BRANCH   6  19
HETATM   19  C6  UNL     1      17.641   3.747  51.123  1.00  0.00     0.223 C 
BRANCH  19  20
HETATM   20  O1  UNL     1      16.858   4.107  52.234  1.00  0.00    -0.395 OA
HETATM   21  H10 UNL     1      17.194   3.578  52.997  1.00  0.00     0.209 HD
ENDBRANCH  19  20
ENDBRANCH   6  19
TORSDOF 2
ENDMDL
MODEL 8
REMARK VINA RESULT:      -5.8      2.173      5.229
REMARK  2 active torsions:
REMARK  status: ('A' for Active; 'I' for Inactive)
REMARK    1  A    between atoms: C5_6  and  C6_7 
REMARK    2  A    between atoms: C6_7  and  O1_8 
ROOT
HETATM    1  C1  UNL     1      22.546   6.337  46.557  1.00  0.00     0.150 C 
HETATM    2  N1  UNL     1      22.910   5.489  47.681  1.00  0.00    -0.379 N 
HETATM    3  C2  UNL     1      22.645   4.117  48.072  1.00  0.00     0.150 C 
HETATM    4  C3  UNL     1      23.616   3.607  49.033  1.00  0.00    -0.005 C 
HETATM    5  C4  UNL     1      24.195   3.191  50.126  1.00  0.00     0.027 C 
HETATM    6  C5  UNL     1      23.802   3.047  51.500  1.00  0.00     0.059 C 
HETATM    7  N2  UNL     1      22.699   3.485  51.950  1.00  0.00    -0.244 NA
HETATM    8  C7  UNL     1      21.744   4.162  51.205  1.00  0.00     0.234 C 
HETATM    9  N3  UNL     1      21.868   5.153  50.431  1.00  0.00    -0.232 NA
HETATM   10  C8  UNL     1      23.024   5.882  50.072  1.00  0.00     0.126 A 
HETATM   11  S1  UNL     1      24.184   6.826  51.201  1.00  0.00    -0.072 SA
HETATM   12  C9  UNL     1      25.222   7.375  49.942  1.00  0.00    -0.007 A 
HETATM   13  C10 UNL     1      24.716   6.872  48.786  1.00  0.00    -0.015 A 
HETATM   14  C11 UNL     1      23.616   6.117  48.788  1.00  0.00     0.073 A 
HETATM   15  C12 UNL     1      25.521   7.285  47.610  1.00  0.00     0.042 C 
HETATM   16  C13 UNL     1      27.014   7.169  47.908  1.00  0.00     0.005 C 
HETATM   17  C14 UNL     1      27.470   8.029  49.036  1.00  0.00     0.005 C 
HETATM   18  C15 UNL     1      26.438   8.251  50.091  1.00  0.00     0.047 C 
ENDROOT
BRANCH   6  19
HETATM   19  C6  UNL     1      24.585   2.386  52.536  1.00  0.00     0.223 C 
BRANCH  19  20
HETATM   20  O1  UNL     1      24.811   3.324  53.559  1.00  0.00    -0.395 OA
HETATM   21  H10 UNL     1      23.974   3.839  53.657  1.00  0.00     0.209 HD
ENDBRANCH  19  20
ENDBRANCH   6  19
TORSDOF 2
ENDMDL
MODEL 9
REMARK VINA RESULT:      -5.7      3.550      6.276
REMARK  2 active torsions:
REMARK  status: ('A' for Active; 'I' for Inactive)
REMARK    1  A    between atoms: C5_6  and  C6_7 
REMARK    2  A    between atoms: C6_7  and  O1_8 
ROOT
HETATM    1  C1  UNL     1      25.395   2.752  51.282  1.00  0.00     0.150 C 
HETATM    2  N1  UNL     1      23.952   2.692  51.446  1.00  0.00    -0.379 N 
HETATM    3  C2  UNL     1      23.042   2.513  52.562  1.00  0.00     0.150 C 
HETATM    4  C3  UNL     1      21.697   3.000  52.277  1.00  0.00    -0.005 C 
HETATM    5  C4  UNL     1      20.423   3.068  52.006  1.00  0.00     0.027 C 
HETATM    6  C5  UNL     1      19.378   2.116  51.753  1.00  0.00     0.059 C 
HETATM    7  N2  UNL     1      19.599   0.872  51.615  1.00  0.00    -0.244 NA
HETATM    8  C7  UNL     1      20.849   0.272  51.671  1.00  0.00     0.234 C 
HETATM    9  N3  UNL     1      21.922   0.570  51.075  1.00  0.00    -0.232 NA
HETATM   10  C8  UNL     1      22.192   1.619  50.167  1.00  0.00     0.126 A 
HETATM   11  S1  UNL     1      21.375   1.946  48.513  1.00  0.00    -0.072 SA
HETATM   12  C9  UNL     1      22.316   3.338  48.141  1.00  0.00    -0.007 A 
HETATM   13  C10 UNL     1      23.159   3.518  49.190  1.00  0.00    -0.015 A 
HETATM   14  C11 UNL     1      23.144   2.688  50.235  1.00  0.00     0.073 A 
HETATM   15  C12 UNL     1      24.043   4.693  48.989  1.00  0.00     0.042 C 
HETATM   16  C13 UNL     1      23.254   5.874  48.427  1.00  0.00     0.005 C 
HETATM   17  C14 UNL     1      22.627   5.603  47.103  1.00  0.00     0.005 C 
HETATM   18  C15 UNL     1      22.232   4.180  46.894  1.00  0.00     0.047 C 
ENDROOT
BRANCH   6  19
HETATM   19  C6  UNL     1      17.960   2.429  51.637  1.00  0.00     0.223 C 
BRANCH  19  20
HETATM   20  O1  UNL     1      17.791   3.772  52.017  1.00  0.00    -0.395 OA
HETATM   21  H10 UNL     1      18.696   4.138  52.163  1.00  0.00     0.209 HD
ENDBRANCH  19  20
ENDBRANCH   6  19
TORSDOF 2
ENDMDL
