MODEL 1
REMARK VINA RESULT:      -9.6      0.000      0.000
REMARK  4 active torsions:
REMARK  status: ('A' for Active; 'I' for Inactive)
REMARK    1  A    between atoms: O1_2  and  C2_3 
REMARK    2  A    between atoms: C6_9  and  N3_10 
REMARK    3  A    between atoms: N3_10  and  C7_11 
REMARK    4  A    between atoms: C22_30  and  O3_31 
ROOT
HETATM    1  C2  UNL     1      20.733   1.610  50.881  1.00  0.00     0.076 C 
HETATM    2  C3  UNL     1      21.633   0.620  51.040  1.00  0.00     0.067 C 
HETATM    3  C4  UNL     1      22.731   0.572  51.992  1.00  0.00     0.074 A 
HETATM    4  N1  UNL     1      22.336  -0.334  52.902  1.00  0.00    -0.241 NA
HETATM    5  C5  UNL     1      23.096  -0.667  53.964  1.00  0.00     0.236 A 
HETATM    6  N2  UNL     1      24.294  -0.109  54.169  1.00  0.00    -0.224 NA
HETATM    7  C6  UNL     1      24.697   0.803  53.256  1.00  0.00     0.142 A 
HETATM    8  C13 UNL     1      23.951   1.174  52.157  1.00  0.00     0.041 A 
HETATM    9  C14 UNL     1      24.547   2.191  51.302  1.00  0.00     0.045 C 
HETATM   10  C15 UNL     1      24.582   3.458  50.967  1.00  0.00     0.032 C 
HETATM   11  C16 UNL     1      25.553   3.837  49.874  1.00  0.00     0.224 C 
HETATM   12  O2  UNL     1      24.793   4.332  48.843  1.00  0.00    -0.384 OA
HETATM   13  C17 UNL     1      24.360   5.615  49.161  1.00  0.00     0.187 C 
HETATM   14  C18 UNL     1      24.268   5.844  50.644  1.00  0.00     0.149 C 
HETATM   15  N4  UNL     1      23.912   4.638  51.396  1.00  0.00    -0.380 N 
HETATM   16  C19 UNL     1      22.916   4.901  52.453  1.00  0.00     0.123 C 
HETATM   17  C20 UNL     1      21.562   5.157  51.802  1.00  0.00     0.023 C 
HETATM   18  C21 UNL     1      21.156   3.954  50.971  1.00  0.00     0.040 C 
HETATM   19  C22 UNL     1      21.000   2.720  51.837  1.00  0.00     0.174 C 
ENDROOT
BRANCH   7  20
HETATM   20  N3  UNL     1      25.968   1.416  53.395  1.00  0.00    -0.340 N 
HETATM   21  H6  UNL     1      26.092   2.470  53.387  1.00  0.00     0.167 HD
BRANCH  20  22
HETATM   22  C7  UNL     1      27.211   0.756  53.554  1.00  0.00     0.035 A 
HETATM   23  C8  UNL     1      28.406   1.301  53.974  1.00  0.00     0.032 A 
HETATM   24  C9  UNL     1      29.588   0.633  54.097  1.00  0.00     0.046 A 
HETATM   25  C10 UNL     1      29.650  -0.690  53.791  1.00  0.00     0.138 A 
HETATM   26  F1  UNL     1      30.801  -1.390  53.898  1.00  0.00    -0.204 F 
HETATM   27  C11 UNL     1      28.514  -1.305  53.367  1.00  0.00     0.074 A 
HETATM   28 CL1  UNL     1      28.589  -3.008  52.973  1.00  0.00    -0.081 Cl
HETATM   29  C12 UNL     1      27.354  -0.594  53.261  1.00  0.00     0.056 A 
ENDBRANCH  20  22
ENDBRANCH   7  20
BRANCH   1  30
HETATM   30  O1  UNL     1      19.647   1.806  50.039  1.00  0.00    -0.357 OA
HETATM   31  C1  UNL     1      18.477   1.040  50.048  1.00  0.00     0.209 C 
ENDBRANCH   1  30
BRANCH  19  32
HETATM   32  O3  UNL     1      19.850   2.890  52.649  1.00  0.00    -0.389 OA
HETATM   33  H24 UNL     1      19.876   2.121  53.281  1.00  0.00     0.210 HD
ENDBRANCH  19  32
TORSDOF 4
ENDMDL
MODEL 2
REMARK VINA RESULT:      -9.0      1.787      2.112
REMARK  4 active torsions:
REMARK  status: ('A' for Active; 'I' for Inactive)
REMARK    1  A    between atoms: O1_2  and  C2_3 
REMARK    2  A    between atoms: C6_9  and  N3_10 
REMARK    3  A    between atoms: N3_10  and  C7_11 
REMARK    4  A    between atoms: C22_30  and  O3_31 
ROOT
HETATM    1  C2  UNL     1      21.604   3.656  49.025  1.00  0.00     0.076 C 
HETATM    2  C3  UNL     1      22.283   2.516  49.262  1.00  0.00     0.067 C 
HETATM    3  C4  UNL     1      23.119   2.211  50.413  1.00  0.00     0.074 A 
HETATM    4  N1  UNL     1      22.396   1.324  51.116  1.00  0.00    -0.241 NA
HETATM    5  C5  UNL     1      22.837   0.790  52.272  1.00  0.00     0.236 A 
HETATM    6  N2  UNL     1      24.029   1.116  52.782  1.00  0.00    -0.224 NA
HETATM    7  C6  UNL     1      24.762   2.008  52.079  1.00  0.00     0.142 A 
HETATM    8  C13 UNL     1      24.348   2.580  50.893  1.00  0.00     0.041 A 
HETATM    9  C14 UNL     1      25.268   3.538  50.298  1.00  0.00     0.045 C 
HETATM   10  C15 UNL     1      25.572   4.800  50.115  1.00  0.00     0.032 C 
HETATM   11  C16 UNL     1      26.809   5.083  49.298  1.00  0.00     0.224 C 
HETATM   12  O2  UNL     1      26.386   5.774  48.190  1.00  0.00    -0.384 OA
HETATM   13  C17 UNL     1      26.094   7.086  48.547  1.00  0.00     0.187 C 
HETATM   14  C18 UNL     1      25.707   7.221  49.993  1.00  0.00     0.149 C 
HETATM   15  N4  UNL     1      25.011   6.044  50.519  1.00  0.00    -0.380 N 
HETATM   16  C19 UNL     1      23.855   6.399  51.366  1.00  0.00     0.123 C 
HETATM   17  C20 UNL     1      22.737   6.931  50.477  1.00  0.00     0.023 C 
HETATM   18  C21 UNL     1      22.349   5.879  49.454  1.00  0.00     0.040 C 
HETATM   19  C22 UNL     1      21.816   4.631  50.130  1.00  0.00     0.174 C 
ENDROOT
BRANCH   7  20
HETATM   20  N3  UNL     1      26.047   2.381  52.546  1.00  0.00    -0.340 N 
HETATM   21  H6  UNL     1      26.342   3.396  52.642  1.00  0.00     0.167 HD
BRANCH  20  22
HETATM   22  C7  UNL     1      27.091   1.506  52.936  1.00  0.00     0.035 A 
HETATM   23  C8  UNL     1      28.290   1.837  53.530  1.00  0.00     0.032 A 
HETATM   24  C9  UNL     1      29.278   0.964  53.873  1.00  0.00     0.046 A 
HETATM   25  C10 UNL     1      29.119  -0.365  53.631  1.00  0.00     0.138 A 
HETATM   26  F1  UNL     1      30.073  -1.265  53.955  1.00  0.00    -0.204 F 
HETATM   27  C11 UNL     1      27.963  -0.776  53.046  1.00  0.00     0.074 A 
HETATM   28 CL1  UNL     1      27.753  -2.485  52.733  1.00  0.00    -0.081 Cl
HETATM   29  C12 UNL     1      27.002   0.136  52.720  1.00  0.00     0.056 A 
ENDBRANCH  20  22
ENDBRANCH   7  20
BRANCH   1  30
HETATM   30  O1  UNL     1      20.779   4.096  48.000  1.00  0.00    -0.357 OA
HETATM   31  C1  UNL     1      20.013   3.266  47.174  1.00  0.00     0.209 C 
ENDBRANCH   1  30
BRANCH  19  32
HETATM   32  O3  UNL     1      20.552   4.939  50.696  1.00  0.00    -0.389 OA
HETATM   33  H24 UNL     1      19.919   4.324  50.236  1.00  0.00     0.210 HD
ENDBRANCH  19  32
TORSDOF 4
ENDMDL
MODEL 3
REMARK VINA RESULT:      -8.7      2.238      2.703
REMARK  4 active torsions:
REMARK  status: ('A' for Active; 'I' for Inactive)
REMARK    1  A    between atoms: O1_2  and  C2_3 
REMARK    2  A    between atoms: C6_9  and  N3_10 
REMARK    3  A    between atoms: N3_10  and  C7_11 
REMARK    4  A    between atoms: C22_30  and  O3_31 
ROOT
HETATM    1  C2  UNL     1      18.590   1.486  50.908  1.00  0.00     0.076 C 
HETATM    2  C3  UNL     1      19.443   0.479  51.183  1.00  0.00     0.067 C 
HETATM    3  C4  UNL     1      20.779   0.587  51.748  1.00  0.00     0.074 A 
HETATM    4  N1  UNL     1      20.641   0.130  53.004  1.00  0.00    -0.241 NA
HETATM    5  C5  UNL     1      21.674   0.068  53.866  1.00  0.00     0.236 A 
HETATM    6  N2  UNL     1      22.903   0.458  53.513  1.00  0.00    -0.224 NA
HETATM    7  C6  UNL     1      23.049   0.918  52.250  1.00  0.00     0.142 A 
HETATM    8  C13 UNL     1      22.019   1.001  51.336  1.00  0.00     0.041 A 
HETATM    9  C14 UNL     1      22.370   1.547  50.034  1.00  0.00     0.045 C 
HETATM   10  C15 UNL     1      22.365   2.594  49.245  1.00  0.00     0.032 C 
HETATM   11  C16 UNL     1      22.966   2.407  47.873  1.00  0.00     0.224 C 
HETATM   12  O2  UNL     1      21.950   2.630  46.977  1.00  0.00    -0.384 OA
HETATM   13  C17 UNL     1      21.703   3.995  46.887  1.00  0.00     0.187 C 
HETATM   14  C18 UNL     1      22.088   4.737  48.137  1.00  0.00     0.149 C 
HETATM   15  N4  UNL     1      21.922   3.942  49.357  1.00  0.00    -0.380 N 
HETATM   16  C19 UNL     1      21.318   4.715  50.460  1.00  0.00     0.123 C 
HETATM   17  C20 UNL     1      19.843   4.946  50.151  1.00  0.00     0.023 C 
HETATM   18  C21 UNL     1      19.139   3.613  49.982  1.00  0.00     0.040 C 
HETATM   19  C22 UNL     1      19.197   2.799  51.260  1.00  0.00     0.174 C 
ENDROOT
BRANCH   7  20
HETATM   20  N3  UNL     1      24.330   1.326  51.798  1.00  0.00    -0.340 N 
HETATM   21  H6  UNL     1      24.456   2.049  51.031  1.00  0.00     0.167 HD
BRANCH  20  22
HETATM   22  C7  UNL     1      25.580   0.857  52.269  1.00  0.00     0.035 A 
HETATM   23  C8  UNL     1      26.006  -0.451  52.366  1.00  0.00     0.032 A 
HETATM   24  C9  UNL     1      27.215  -0.863  52.844  1.00  0.00     0.046 A 
HETATM   25  C10 UNL     1      28.118   0.056  53.276  1.00  0.00     0.138 A 
HETATM   26  F1  UNL     1      29.327  -0.308  53.757  1.00  0.00    -0.204 F 
HETATM   27  C11 UNL     1      27.776   1.370  53.215  1.00  0.00     0.074 A 
HETATM   28 CL1  UNL     1      28.936   2.557  53.770  1.00  0.00    -0.081 Cl
HETATM   29  C12 UNL     1      26.554   1.734  52.729  1.00  0.00     0.056 A 
ENDBRANCH  20  22
ENDBRANCH   7  20
BRANCH   1  30
HETATM   30  O1  UNL     1      17.308   1.551  50.380  1.00  0.00    -0.357 OA
HETATM   31  C1  UNL     1      16.160   1.043  50.997  1.00  0.00     0.209 C 
ENDBRANCH   1  30
BRANCH  19  32
HETATM   32  O3  UNL     1      18.366   3.425  52.223  1.00  0.00    -0.389 OA
HETATM   33  H24 UNL     1      17.440   3.201  51.935  1.00  0.00     0.210 HD
ENDBRANCH  19  32
TORSDOF 4
ENDMDL
MODEL 4
REMARK VINA RESULT:      -8.7      2.707      3.581
REMARK  4 active torsions:
REMARK  status: ('A' for Active; 'I' for Inactive)
REMARK    1  A    between atoms: O1_2  and  C2_3 
REMARK    2  A    between atoms: C6_9  and  N3_10 
REMARK    3  A    between atoms: N3_10  and  C7_11 
REMARK    4  A    between atoms: C22_30  and  O3_31 
ROOT
HETATM    1  C2  UNL     1      22.063   3.694  46.950  1.00  0.00     0.076 C 
HETATM    2  C3  UNL     1      22.366   2.501  47.498  1.00  0.00     0.067 C 
HETATM    3  C4  UNL     1      22.476   2.185  48.914  1.00  0.00     0.074 A 
HETATM    4  N1  UNL     1      21.381   1.450  49.171  1.00  0.00    -0.241 NA
HETATM    5  C5  UNL     1      21.117   0.955  50.396  1.00  0.00     0.236 A 
HETATM    6  N2  UNL     1      21.938   1.170  51.429  1.00  0.00    -0.224 NA
HETATM    7  C6  UNL     1      23.042   1.908  51.176  1.00  0.00     0.142 A 
HETATM    8  C13 UNL     1      23.350   2.435  49.939  1.00  0.00     0.041 A 
HETATM    9  C14 UNL     1      24.572   3.224  49.873  1.00  0.00     0.045 C 
HETATM   10  C15 UNL     1      25.105   4.422  49.858  1.00  0.00     0.032 C 
HETATM   11  C16 UNL     1      26.610   4.487  49.761  1.00  0.00     0.224 C 
HETATM   12  O2  UNL     1      26.889   5.138  48.585  1.00  0.00    -0.384 OA
HETATM   13  C17 UNL     1      26.653   6.500  48.743  1.00  0.00     0.187 C 
HETATM   14  C18 UNL     1      25.631   6.791  49.806  1.00  0.00     0.149 C 
HETATM   15  N4  UNL     1      24.605   5.752  49.924  1.00  0.00    -0.380 N 
HETATM   16  C19 UNL     1      23.247   6.310  50.084  1.00  0.00     0.123 C 
HETATM   17  C20 UNL     1      22.799   6.906  48.754  1.00  0.00     0.023 C 
HETATM   18  C21 UNL     1      22.815   5.835  47.680  1.00  0.00     0.040 C 
HETATM   19  C22 UNL     1      21.844   4.717  48.009  1.00  0.00     0.174 C 
ENDROOT
BRANCH   7  20
HETATM   20  N3  UNL     1      23.971   2.156  52.218  1.00  0.00    -0.340 N 
HETATM   21  H6  UNL     1      23.822   2.916  52.942  1.00  0.00     0.167 HD
BRANCH  20  22
HETATM   22  C7  UNL     1      25.187   1.465  52.445  1.00  0.00     0.035 A 
HETATM   23  C8  UNL     1      25.429   0.116  52.298  1.00  0.00     0.032 A 
HETATM   24  C9  UNL     1      26.613  -0.514  52.545  1.00  0.00     0.046 A 
HETATM   25  C10 UNL     1      27.683   0.205  52.977  1.00  0.00     0.138 A 
HETATM   26  F1  UNL     1      28.874  -0.379  53.235  1.00  0.00    -0.204 F 
HETATM   27  C11 UNL     1      27.528   1.545  53.149  1.00  0.00     0.074 A 
HETATM   28 CL1  UNL     1      28.903   2.475  53.704  1.00  0.00    -0.081 Cl
HETATM   29  C12 UNL     1      26.323   2.130  52.888  1.00  0.00     0.056 A 
ENDBRANCH  20  22
ENDBRANCH   7  20
BRANCH   1  30
HETATM   30  O1  UNL     1      21.920   4.152  45.648  1.00  0.00    -0.357 OA
HETATM   31  C1  UNL     1      20.893   3.779  44.774  1.00  0.00     0.209 C 
ENDBRANCH   1  30
BRANCH  19  32
HETATM   32  O3  UNL     1      20.526   5.221  47.871  1.00  0.00    -0.389 OA
HETATM   33  H24 UNL     1      20.037   4.851  48.656  1.00  0.00     0.210 HD
ENDBRANCH  19  32
TORSDOF 4
ENDMDL
MODEL 5
REMARK VINA RESULT:      -8.1      3.405      6.540
REMARK  4 active torsions:
REMARK  status: ('A' for Active; 'I' for Inactive)
REMARK    1  A    between atoms: O1_2  and  C2_3 
REMARK    2  A    between atoms: C6_9  and  N3_10 
REMARK    3  A    between atoms: N3_10  and  C7_11 
REMARK    4  A    between atoms: C22_30  and  O3_31 
ROOT
HETATM    1  C2  UNL     1      25.570   8.783  48.134  1.00  0.00     0.076 C 
HETATM    2  C3  UNL     1      26.364   8.095  48.977  1.00  0.00     0.067 C 
HETATM    3  C4  UNL     1      26.534   6.652  49.046  1.00  0.00     0.074 A 
HETATM    4  N1  UNL     1      27.759   6.443  48.535  1.00  0.00    -0.241 NA
HETATM    5  C5  UNL     1      28.294   5.211  48.427  1.00  0.00     0.236 A 
HETATM    6  N2  UNL     1      27.629   4.122  48.828  1.00  0.00    -0.224 NA
HETATM    7  C6  UNL     1      26.396   4.326  49.343  1.00  0.00     0.142 A 
HETATM    8  C13 UNL     1      25.810   5.569  49.470  1.00  0.00     0.041 A 
HETATM    9  C14 UNL     1      24.465   5.581  50.027  1.00  0.00     0.045 C 
HETATM   10  C15 UNL     1      23.178   5.653  49.785  1.00  0.00     0.032 C 
HETATM   11  C16 UNL     1      22.264   5.597  50.985  1.00  0.00     0.224 C 
HETATM   12  O2  UNL     1      21.591   6.794  51.010  1.00  0.00    -0.384 OA
HETATM   13  C17 UNL     1      20.608   6.793  50.026  1.00  0.00     0.187 C 
HETATM   14  C18 UNL     1      20.936   5.876  48.880  1.00  0.00     0.149 C 
HETATM   15  N4  UNL     1      22.373   5.768  48.617  1.00  0.00    -0.380 N 
HETATM   16  C19 UNL     1      22.691   5.806  47.176  1.00  0.00     0.123 C 
HETATM   17  C20 UNL     1      22.483   7.227  46.662  1.00  0.00     0.023 C 
HETATM   18  C21 UNL     1      23.371   8.186  47.432  1.00  0.00     0.040 C 
HETATM   19  C22 UNL     1      24.837   7.856  47.229  1.00  0.00     0.174 C 
ENDROOT
BRANCH   7  20
HETATM   20  N3  UNL     1      25.642   3.221  49.812  1.00  0.00    -0.340 N 
HETATM   21  H6  UNL     1      24.878   2.768  49.231  1.00  0.00     0.167 HD
BRANCH  20  22
HETATM   22  C7  UNL     1      25.777   2.579  51.068  1.00  0.00     0.035 A 
HETATM   23  C8  UNL     1      24.817   1.871  51.759  1.00  0.00     0.032 A 
HETATM   24  C9  UNL     1      24.983   1.282  52.977  1.00  0.00     0.046 A 
HETATM   25  C10 UNL     1      26.182   1.370  53.612  1.00  0.00     0.138 A 
HETATM   26  F1  UNL     1      26.390   0.802  54.820  1.00  0.00    -0.204 F 
HETATM   27  C11 UNL     1      27.184   2.053  52.997  1.00  0.00     0.074 A 
HETATM   28 CL1  UNL     1      28.730   2.168  53.810  1.00  0.00    -0.081 Cl
HETATM   29  C12 UNL     1      26.970   2.625  51.777  1.00  0.00     0.056 A 
ENDBRANCH  20  22
ENDBRANCH   7  20
BRANCH   1  30
HETATM   30  O1  UNL     1      25.299  10.131  47.942  1.00  0.00    -0.357 OA
HETATM   31  C1  UNL     1      26.267  11.127  47.775  1.00  0.00     0.209 C 
ENDBRANCH   1  30
BRANCH  19  32
HETATM   32  O3  UNL     1      25.183   8.179  45.892  1.00  0.00    -0.389 OA
HETATM   33  H24 UNL     1      25.600   9.080  45.955  1.00  0.00     0.210 HD
ENDBRANCH  19  32
TORSDOF 4
ENDMDL
MODEL 6
REMARK VINA RESULT:      -7.9      4.028      5.515
REMARK  4 active torsions:
REMARK  status: ('A' for Active; 'I' for Inactive)
REMARK    1  A    between atoms: O1_2  and  C2_3 
REMARK    2  A    between atoms: C6_9  and  N3_10 
REMARK    3  A    between atoms: N3_10  and  C7_11 
REMARK    4  A    between atoms: C22_30  and  O3_31 
ROOT
HETATM    1  C2  UNL     1      20.393   1.404  51.239  1.00  0.00     0.076 C 
HETATM    2  C3  UNL     1      21.604   0.880  50.964  1.00  0.00     0.067 C 
HETATM    3  C4  UNL     1      22.866   1.595  50.843  1.00  0.00     0.074 A 
HETATM    4  N1  UNL     1      23.540   1.258  51.956  1.00  0.00    -0.241 NA
HETATM    5  C5  UNL     1      24.776   1.724  52.218  1.00  0.00     0.236 A 
HETATM    6  N2  UNL     1      25.404   2.552  51.376  1.00  0.00    -0.224 NA
HETATM    7  C6  UNL     1      24.731   2.894  50.255  1.00  0.00     0.142 A 
HETATM    8  C13 UNL     1      23.464   2.442  49.948  1.00  0.00     0.041 A 
HETATM    9  C14 UNL     1      22.897   2.943  48.705  1.00  0.00     0.045 C 
HETATM   10  C15 UNL     1      22.086   3.802  48.137  1.00  0.00     0.032 C 
HETATM   11  C16 UNL     1      21.984   3.738  46.632  1.00  0.00     0.224 C 
HETATM   12  O2  UNL     1      20.679   3.421  46.350  1.00  0.00    -0.384 OA
HETATM   13  C17 UNL     1      19.878   4.541  46.543  1.00  0.00     0.187 C 
HETATM   14  C18 UNL     1      20.459   5.504  47.542  1.00  0.00     0.149 C 
HETATM   15  N4  UNL     1      21.235   4.846  48.596  1.00  0.00    -0.380 N 
HETATM   16  C19 UNL     1      20.965   5.409  49.934  1.00  0.00     0.123 C 
HETATM   17  C20 UNL     1      19.576   4.970  50.383  1.00  0.00     0.023 C 
HETATM   18  C21 UNL     1      19.501   3.455  50.414  1.00  0.00     0.040 C 
HETATM   19  C22 UNL     1      20.487   2.879  51.412  1.00  0.00     0.174 C 
ENDROOT
BRANCH   7  20
HETATM   20  N3  UNL     1      25.345   3.748  49.304  1.00  0.00    -0.340 N 
HETATM   21  H6  UNL     1      25.622   3.413  48.336  1.00  0.00     0.167 HD
BRANCH  20  22
HETATM   22  C7  UNL     1      25.672   5.115  49.484  1.00  0.00     0.035 A 
HETATM   23  C8  UNL     1      25.053   6.026  50.313  1.00  0.00     0.032 A 
HETATM   24  C9  UNL     1      25.388   7.341  50.444  1.00  0.00     0.046 A 
HETATM   25  C10 UNL     1      26.417   7.851  49.716  1.00  0.00     0.138 A 
HETATM   26  F1  UNL     1      26.782   9.148  49.815  1.00  0.00    -0.204 F 
HETATM   27  C11 UNL     1      27.081   7.017  48.872  1.00  0.00     0.074 A 
HETATM   28 CL1  UNL     1      28.407   7.669  47.934  1.00  0.00    -0.081 Cl
HETATM   29  C12 UNL     1      26.709   5.708  48.775  1.00  0.00     0.056 A 
ENDBRANCH  20  22
ENDBRANCH   7  20
BRANCH   1  30
HETATM   30  O1  UNL     1      19.120   0.872  51.387  1.00  0.00    -0.357 OA
HETATM   31  C1  UNL     1      18.778  -0.158  52.269  1.00  0.00     0.209 C 
ENDBRANCH   1  30
BRANCH  19  32
HETATM   32  O3  UNL     1      20.034   3.200  52.717  1.00  0.00    -0.389 OA
HETATM   33  H24 UNL     1      19.791   4.164  52.665  1.00  0.00     0.210 HD
ENDBRANCH  19  32
TORSDOF 4
ENDMDL
MODEL 7
REMARK VINA RESULT:      -7.8      3.063      4.735
REMARK  4 active torsions:
REMARK  status: ('A' for Active; 'I' for Inactive)
REMARK    1  A    between atoms: O1_2  and  C2_3 
REMARK    2  A    between atoms: C6_9  and  N3_10 
REMARK    3  A    between atoms: N3_10  and  C7_11 
REMARK    4  A    between atoms: C22_30  and  O3_31 
ROOT
HETATM    1  C2  UNL     1      22.169   6.207  47.040  1.00  0.00     0.076 C 
HETATM    2  C3  UNL     1      22.274   4.890  47.303  1.00  0.00     0.067 C 
HETATM    3  C4  UNL     1      22.526   4.267  48.593  1.00  0.00     0.074 A 
HETATM    4  N1  UNL     1      21.345   3.719  48.927  1.00  0.00    -0.241 NA
HETATM    5  C5  UNL     1      21.167   3.037  50.076  1.00  0.00     0.236 A 
HETATM    6  N2  UNL     1      22.164   2.867  50.950  1.00  0.00    -0.224 NA
HETATM    7  C6  UNL     1      23.354   3.416  50.619  1.00  0.00     0.142 A 
HETATM    8  C13 UNL     1      23.580   4.122  49.456  1.00  0.00     0.041 A 
HETATM    9  C14 UNL     1      24.924   4.657  49.291  1.00  0.00     0.045 C 
HETATM   10  C15 UNL     1      25.706   5.706  49.381  1.00  0.00     0.032 C 
HETATM   11  C16 UNL     1      27.153   5.499  49.005  1.00  0.00     0.224 C 
HETATM   12  O2  UNL     1      27.390   6.318  47.928  1.00  0.00    -0.384 OA
HETATM   13  C17 UNL     1      27.496   7.635  48.362  1.00  0.00     0.187 C 
HETATM   14  C18 UNL     1      26.742   7.886  49.639  1.00  0.00     0.149 C 
HETATM   15  N4  UNL     1      25.537   7.063  49.772  1.00  0.00    -0.380 N 
HETATM   16  C19 UNL     1      24.383   7.825  50.288  1.00  0.00     0.123 C 
HETATM   17  C20 UNL     1      23.883   8.763  49.195  1.00  0.00     0.023 C 
HETATM   18  C21 UNL     1      23.491   7.960  47.969  1.00  0.00     0.040 C 
HETATM   19  C22 UNL     1      22.354   7.007  48.282  1.00  0.00     0.174 C 
ENDROOT
BRANCH   7  20
HETATM   20  N3  UNL     1      24.465   3.254  51.486  1.00  0.00    -0.340 N 
HETATM   21  H6  UNL     1      24.995   4.080  51.888  1.00  0.00     0.167 HD
BRANCH  20  22
HETATM   22  C7  UNL     1      25.017   2.027  51.929  1.00  0.00     0.035 A 
HETATM   23  C8  UNL     1      26.191   1.434  51.514  1.00  0.00     0.032 A 
HETATM   24  C9  UNL     1      26.679   0.239  51.954  1.00  0.00     0.046 A 
HETATM   25  C10 UNL     1      25.988  -0.471  52.885  1.00  0.00     0.138 A 
HETATM   26  F1  UNL     1      26.437  -1.659  53.348  1.00  0.00    -0.204 F 
HETATM   27  C11 UNL     1      24.819   0.044  53.347  1.00  0.00     0.074 A 
HETATM   28 CL1  UNL     1      23.926  -0.866  54.546  1.00  0.00    -0.081 Cl
HETATM   29  C12 UNL     1      24.370   1.244  52.877  1.00  0.00     0.056 A 
ENDBRANCH  20  22
ENDBRANCH   7  20
BRANCH   1  30
HETATM   30  O1  UNL     1      21.936   6.949  45.891  1.00  0.00    -0.357 OA
HETATM   31  C1  UNL     1      22.366   6.596  44.607  1.00  0.00     0.209 C 
ENDBRANCH   1  30
BRANCH  19  32
HETATM   32  O3  UNL     1      21.179   7.772  48.494  1.00  0.00    -0.389 OA
HETATM   33  H24 UNL     1      21.288   8.562  47.899  1.00  0.00     0.210 HD
ENDBRANCH  19  32
TORSDOF 4
ENDMDL
MODEL 8
REMARK VINA RESULT:      -7.8      7.624      9.584
REMARK  4 active torsions:
REMARK  status: ('A' for Active; 'I' for Inactive)
REMARK    1  A    between atoms: O1_2  and  C2_3 
REMARK    2  A    between atoms: C6_9  and  N3_10 
REMARK    3  A    between atoms: N3_10  and  C7_11 
REMARK    4  A    between atoms: C22_30  and  O3_31 
ROOT
HETATM    1  C2  UNL     1      25.931   9.332  47.989  1.00  0.00     0.076 C 
HETATM    2  C3  UNL     1      26.219   8.152  47.405  1.00  0.00     0.067 C 
HETATM    3  C4  UNL     1      27.441   7.375  47.547  1.00  0.00     0.074 A 
HETATM    4  N1  UNL     1      27.076   6.328  48.306  1.00  0.00    -0.241 NA
HETATM    5  C5  UNL     1      27.943   5.361  48.664  1.00  0.00     0.236 A 
HETATM    6  N2  UNL     1      29.223   5.392  48.278  1.00  0.00    -0.224 NA
HETATM    7  C6  UNL     1      29.595   6.442  47.513  1.00  0.00     0.142 A 
HETATM    8  C13 UNL     1      28.742   7.454  47.125  1.00  0.00     0.041 A 
HETATM    9  C14 UNL     1      29.338   8.512  46.322  1.00  0.00     0.045 C 
HETATM   10  C15 UNL     1      29.834   9.725  46.299  1.00  0.00     0.032 C 
HETATM   11  C16 UNL     1      30.316  10.230  44.961  1.00  0.00     0.224 C 
HETATM   12  O2  UNL     1      29.539  11.322  44.661  1.00  0.00    -0.384 OA
HETATM   13  C17 UNL     1      29.950  12.406  45.429  1.00  0.00     0.187 C 
HETATM   14  C18 UNL     1      30.600  11.990  46.719  1.00  0.00     0.149 C 
HETATM   15  N4  UNL     1      30.057  10.745  47.267  1.00  0.00    -0.380 N 
HETATM   16  C19 UNL     1      29.848  10.810  48.727  1.00  0.00     0.123 C 
HETATM   17  C20 UNL     1      28.652  11.711  49.014  1.00  0.00     0.023 C 
HETATM   18  C21 UNL     1      27.419  11.165  48.319  1.00  0.00     0.040 C 
HETATM   19  C22 UNL     1      27.064   9.786  48.841  1.00  0.00     0.174 C 
ENDROOT
BRANCH   7  20
HETATM   20  N3  UNL     1      30.931   6.527  47.045  1.00  0.00    -0.340 N 
HETATM   21  H6  UNL     1      31.278   7.347  46.468  1.00  0.00     0.167 HD
BRANCH  20  22
HETATM   22  C7  UNL     1      31.962   5.580  47.258  1.00  0.00     0.035 A 
HETATM   23  C8  UNL     1      32.014   4.277  46.809  1.00  0.00     0.032 A 
HETATM   24  C9  UNL     1      33.020   3.389  47.053  1.00  0.00     0.046 A 
HETATM   25  C10 UNL     1      34.091   3.770  47.799  1.00  0.00     0.138 A 
HETATM   26  F1  UNL     1      35.109   2.922  48.065  1.00  0.00    -0.204 F 
HETATM   27  C11 UNL     1      34.117   5.041  48.281  1.00  0.00     0.074 A 
HETATM   28 CL1  UNL     1      35.494   5.536  49.242  1.00  0.00    -0.081 Cl
HETATM   29  C12 UNL     1      33.087   5.893  48.011  1.00  0.00     0.056 A 
ENDBRANCH  20  22
ENDBRANCH   7  20
BRANCH   1  30
HETATM   30  O1  UNL     1      24.836  10.185  47.960  1.00  0.00    -0.357 OA
HETATM   31  C1  UNL     1      23.516   9.787  47.720  1.00  0.00     0.209 C 
ENDBRANCH   1  30
BRANCH  19  32
HETATM   32  O3  UNL     1      26.589   9.924  50.170  1.00  0.00    -0.389 OA
HETATM   33  H24 UNL     1      25.626   9.676  50.117  1.00  0.00     0.210 HD
ENDBRANCH  19  32
TORSDOF 4
ENDMDL
MODEL 9
REMARK VINA RESULT:      -7.7      4.038      6.571
REMARK  4 active torsions:
REMARK  status: ('A' for Active; 'I' for Inactive)
REMARK    1  A    between atoms: O1_2  and  C2_3 
REMARK    2  A    between atoms: C6_9  and  N3_10 
REMARK    3  A    between atoms: N3_10  and  C7_11 
REMARK    4  A    between atoms: C22_30  and  O3_31 
ROOT
HETATM    1  C2  UNL     1      19.505   3.610  49.716  1.00  0.00     0.076 C 
HETATM    2  C3  UNL     1      19.467   4.768  50.404  1.00  0.00     0.067 C 
HETATM    3  C4  UNL     1      20.454   5.837  50.385  1.00  0.00     0.074 A 
HETATM    4  N1  UNL     1      19.857   6.821  49.692  1.00  0.00    -0.241 NA
HETATM    5  C5  UNL     1      20.459   8.002  49.455  1.00  0.00     0.236 A 
HETATM    6  N2  UNL     1      21.693   8.260  49.901  1.00  0.00    -0.224 NA
HETATM    7  C6  UNL     1      22.299   7.274  50.600  1.00  0.00     0.142 A 
HETATM    8  C13 UNL     1      21.720   6.050  50.864  1.00  0.00     0.041 A 
HETATM    9  C14 UNL     1      22.542   5.109  51.611  1.00  0.00     0.045 C 
HETATM   10  C15 UNL     1      23.330   4.062  51.564  1.00  0.00     0.032 C 
HETATM   11  C16 UNL     1      23.886   3.579  52.881  1.00  0.00     0.224 C 
HETATM   12  O2  UNL     1      23.404   2.304  53.055  1.00  0.00    -0.384 OA
HETATM   13  C17 UNL     1      24.099   1.430  52.227  1.00  0.00     0.187 C 
HETATM   14  C18 UNL     1      24.659   2.108  51.007  1.00  0.00     0.149 C 
HETATM   15  N4  UNL     1      23.833   3.221  50.532  1.00  0.00    -0.380 N 
HETATM   16  C19 UNL     1      23.689   3.234  49.063  1.00  0.00     0.123 C 
HETATM   17  C20 UNL     1      22.771   2.090  48.646  1.00  0.00     0.023 C 
HETATM   18  C21 UNL     1      21.420   2.246  49.319  1.00  0.00     0.040 C 
HETATM   19  C22 UNL     1      20.741   3.532  48.889  1.00  0.00     0.174 C 
ENDROOT
BRANCH   7  20
HETATM   20  N3  UNL     1      23.598   7.486  51.126  1.00  0.00    -0.340 N 
HETATM   21  H6  UNL     1      23.780   7.576  52.167  1.00  0.00     0.167 HD
BRANCH  20  22
HETATM   22  C7  UNL     1      24.799   7.608  50.385  1.00  0.00     0.035 A 
HETATM   23  C8  UNL     1      25.450   8.768  50.022  1.00  0.00     0.032 A 
HETATM   24  C9  UNL     1      26.598   8.843  49.291  1.00  0.00     0.046 A 
HETATM   25  C10 UNL     1      27.196   7.703  48.854  1.00  0.00     0.138 A 
HETATM   26  F1  UNL     1      28.334   7.732  48.127  1.00  0.00    -0.204 F 
HETATM   27  C11 UNL     1      26.617   6.514  49.169  1.00  0.00     0.074 A 
HETATM   28 CL1  UNL     1      27.384   5.043  48.611  1.00  0.00    -0.081 Cl
HETATM   29  C12 UNL     1      25.468   6.490  49.904  1.00  0.00     0.056 A 
ENDBRANCH  20  22
ENDBRANCH   7  20
BRANCH   1  30
HETATM   30  O1  UNL     1      18.663   2.511  49.623  1.00  0.00    -0.357 OA
HETATM   31  C1  UNL     1      17.266   2.568  49.632  1.00  0.00     0.209 C 
ENDBRANCH   1  30
BRANCH  19  32
HETATM   32  O3  UNL     1      20.355   3.397  47.531  1.00  0.00    -0.389 OA
HETATM   33  H24 UNL     1      20.632   2.473  47.285  1.00  0.00     0.210 HD
ENDBRANCH  19  32
TORSDOF 4
ENDMDL
