MODEL 1
REMARK VINA RESULT:      -7.8      0.000      0.000
REMARK  3 active torsions:
REMARK  status: ('A' for Active; 'I' for Inactive)
REMARK    1  A    between atoms: O1_1  and  C1_2 
REMARK    2  A    between atoms: C4_5  and  C5_6 
REMARK    3  A    between atoms: C12_15  and  C13_16 
ROOT
HETATM    1  C5  UNL     1      24.157   6.072  49.936  1.00  0.00     0.001 C 
HETATM    2  C6  UNL     1      23.759   6.620  51.098  1.00  0.00     0.017 C 
HETATM    3  C7  UNL     1      22.462   5.892  51.364  1.00  0.00     0.136 C 
HETATM    4  C8  UNL     1      21.857   5.948  49.982  1.00  0.00     0.035 C 
HETATM    5  C9  UNL     1      22.931   5.646  49.229  1.00  0.00     0.067 C 
HETATM    6  N1  UNL     1      22.622   5.014  47.994  1.00  0.00    -0.244 NA
HETATM    7  C10 UNL     1      22.486   3.748  47.823  1.00  0.00     0.208 C 
HETATM    8  N2  UNL     1      22.599   2.682  48.752  1.00  0.00    -0.349 N 
HETATM    9  C11 UNL     1      22.677   2.746  50.171  1.00  0.00     0.061 C 
HETATM   10  C12 UNL     1      21.904   3.487  50.996  1.00  0.00     0.102 C 
HETATM   11  N3  UNL     1      22.682   4.514  51.659  1.00  0.00    -0.336 N 
HETATM   12  C14 UNL     1      23.743   4.305  52.657  1.00  0.00     0.276 C 
HETATM   13  F3  UNL     1      23.625   5.103  53.746  1.00  0.00    -0.226 F 
HETATM   14  C15 UNL     1      23.887   2.840  52.998  1.00  0.00     0.086 C 
HETATM   15  C16 UNL     1      24.413   2.052  51.824  1.00  0.00    -0.020 C 
HETATM   16  C17 UNL     1      23.768   1.853  50.653  1.00  0.00     0.028 C 
HETATM   17  H8  UNL     1      22.635   1.717  48.427  1.00  0.00     0.166 HD
ENDROOT
BRANCH   1  18
HETATM   18  C4  UNL     1      25.520   5.900  49.406  1.00  0.00    -0.024 A 
HETATM   19  C3  UNL     1      26.347   6.862  48.864  1.00  0.00     0.015 A 
HETATM   20  C2  UNL     1      27.601   6.515  48.414  1.00  0.00     0.037 A 
HETATM   21  C1  UNL     1      28.099   5.230  48.472  1.00  0.00     0.065 A 
HETATM   22  C19 UNL     1      27.301   4.242  49.009  1.00  0.00     0.037 A 
HETATM   23  C18 UNL     1      26.048   4.603  49.456  1.00  0.00     0.015 A 
BRANCH  21  24
HETATM   24  O1  UNL     1      29.367   4.897  48.014  1.00  0.00    -0.361 OA
HETATM   25  H1  UNL     1      30.116   5.575  48.027  1.00  0.00     0.217 HD
ENDBRANCH  21  24
ENDBRANCH   1  18
BRANCH  10  26
HETATM   26  C13 UNL     1      20.478   3.495  51.376  1.00  0.00     0.405 C 
HETATM   27  F1  UNL     1      20.350   3.329  52.759  1.00  0.00    -0.207 F 
HETATM   28  F2  UNL     1      19.745   2.539  50.742  1.00  0.00    -0.207 F 
ENDBRANCH  10  26
TORSDOF 3
ENDMDL
MODEL 2
REMARK VINA RESULT:      -7.7      1.591      3.795
REMARK  3 active torsions:
REMARK  status: ('A' for Active; 'I' for Inactive)
REMARK    1  A    between atoms: O1_1  and  C1_2 
REMARK    2  A    between atoms: C4_5  and  C5_6 
REMARK    3  A    between atoms: C12_15  and  C13_16 
ROOT
HETATM    1  C5  UNL     1      24.152   3.266  49.609  1.00  0.00     0.001 C 
HETATM    2  C6  UNL     1      23.315   2.594  48.798  1.00  0.00     0.017 C 
HETATM    3  C7  UNL     1      22.074   2.475  49.651  1.00  0.00     0.136 C 
HETATM    4  C8  UNL     1      22.711   2.084  50.963  1.00  0.00     0.035 C 
HETATM    5  C9  UNL     1      23.756   2.932  50.993  1.00  0.00     0.067 C 
HETATM    6  N1  UNL     1      24.192   3.277  52.301  1.00  0.00    -0.244 NA
HETATM    7  C10 UNL     1      23.732   4.251  53.003  1.00  0.00     0.208 C 
HETATM    8  N2  UNL     1      22.725   5.202  52.698  1.00  0.00    -0.349 N 
HETATM    9  C11 UNL     1      21.798   5.198  51.619  1.00  0.00     0.061 C 
HETATM   10  C12 UNL     1      21.054   4.155  51.189  1.00  0.00     0.102 C 
HETATM   11  N3  UNL     1      21.453   3.741  49.859  1.00  0.00    -0.336 N 
HETATM   12  C14 UNL     1      21.295   4.512  48.615  1.00  0.00     0.276 C 
HETATM   13  F3  UNL     1      20.774   3.788  47.594  1.00  0.00    -0.226 F 
HETATM   14  C15 UNL     1      20.562   5.808  48.868  1.00  0.00     0.086 C 
HETATM   15  C16 UNL     1      21.387   6.751  49.709  1.00  0.00    -0.020 C 
HETATM   16  C17 UNL     1      21.751   6.550  50.995  1.00  0.00     0.028 C 
HETATM   17  H8  UNL     1      22.593   6.020  53.290  1.00  0.00     0.166 HD
ENDROOT
BRANCH   1  18
HETATM   18  C4  UNL     1      25.263   4.169  49.262  1.00  0.00    -0.024 A 
HETATM   19  C3  UNL     1      26.609   3.875  49.211  1.00  0.00     0.015 A 
HETATM   20  C2  UNL     1      27.512   4.854  48.863  1.00  0.00     0.037 A 
HETATM   21  C1  UNL     1      27.147   6.148  48.554  1.00  0.00     0.065 A 
HETATM   22  C19 UNL     1      25.809   6.478  48.593  1.00  0.00     0.037 A 
HETATM   23  C18 UNL     1      24.915   5.488  48.942  1.00  0.00     0.015 A 
BRANCH  21  24
HETATM   24  O1  UNL     1      28.072   7.124  48.205  1.00  0.00    -0.361 OA
HETATM   25  H1  UNL     1      28.812   6.923  47.548  1.00  0.00     0.217 HD
ENDBRANCH  21  24
ENDBRANCH   1  18
BRANCH  10  26
HETATM   26  C13 UNL     1      19.947   3.353  51.745  1.00  0.00     0.405 C 
HETATM   27  F1  UNL     1      18.767   4.105  51.754  1.00  0.00    -0.207 F 
HETATM   28  F2  UNL     1      20.192   2.893  53.003  1.00  0.00    -0.207 F 
ENDBRANCH  10  26
TORSDOF 3
ENDMDL
MODEL 3
REMARK VINA RESULT:      -7.5      3.105      4.895
REMARK  3 active torsions:
REMARK  status: ('A' for Active; 'I' for Inactive)
REMARK    1  A    between atoms: O1_1  and  C1_2 
REMARK    2  A    between atoms: C4_5  and  C5_6 
REMARK    3  A    between atoms: C12_15  and  C13_16 
ROOT
HETATM    1  C5  UNL     1      22.720   2.009  52.482  1.00  0.00     0.001 C 
HETATM    2  C6  UNL     1      21.500   1.441  52.501  1.00  0.00     0.017 C 
HETATM    3  C7  UNL     1      20.646   2.502  51.848  1.00  0.00     0.136 C 
HETATM    4  C8  UNL     1      21.183   3.724  52.556  1.00  0.00     0.035 C 
HETATM    5  C9  UNL     1      22.504   3.470  52.518  1.00  0.00     0.067 C 
HETATM    6  N1  UNL     1      23.323   4.632  52.519  1.00  0.00    -0.244 NA
HETATM    7  C10 UNL     1      23.694   5.278  51.471  1.00  0.00     0.208 C 
HETATM    8  N2  UNL     1      23.415   5.037  50.102  1.00  0.00    -0.349 N 
HETATM    9  C11 UNL     1      22.468   4.141  49.533  1.00  0.00     0.061 C 
HETATM   10  C12 UNL     1      21.179   3.976  49.906  1.00  0.00     0.102 C 
HETATM   11  N3  UNL     1      20.963   2.657  50.466  1.00  0.00    -0.336 N 
HETATM   12  C14 UNL     1      21.038   1.374  49.749  1.00  0.00     0.276 C 
HETATM   13  F3  UNL     1      19.988   0.554  49.999  1.00  0.00    -0.226 F 
HETATM   14  C15 UNL     1      21.294   1.590  48.276  1.00  0.00     0.086 C 
HETATM   15  C16 UNL     1      22.672   2.155  48.036  1.00  0.00    -0.020 C 
HETATM   16  C17 UNL     1      23.106   3.375  48.426  1.00  0.00     0.028 C 
HETATM   17  H8  UNL     1      23.925   5.539  49.376  1.00  0.00     0.166 HD
ENDROOT
BRANCH   1  18
HETATM   18  C4  UNL     1      24.045   1.369  52.438  1.00  0.00    -0.024 A 
HETATM   19  C3  UNL     1      25.135   1.727  51.672  1.00  0.00     0.015 A 
HETATM   20  C2  UNL     1      26.304   1.006  51.762  1.00  0.00     0.037 A 
HETATM   21  C1  UNL     1      26.461  -0.084  52.593  1.00  0.00     0.065 A 
HETATM   22  C19 UNL     1      25.394  -0.471  53.374  1.00  0.00     0.037 A 
HETATM   23  C18 UNL     1      24.228   0.261  53.275  1.00  0.00     0.015 A 
BRANCH  21  24
HETATM   24  O1  UNL     1      27.648  -0.801  52.671  1.00  0.00    -0.361 OA
HETATM   25  H1  UNL     1      27.726  -1.606  53.275  1.00  0.00     0.217 HD
ENDBRANCH  21  24
ENDBRANCH   1  18
BRANCH  10  26
HETATM   26  C13 UNL     1      19.960   4.807  49.874  1.00  0.00     0.405 C 
HETATM   27  F1  UNL     1      19.266   4.594  48.678  1.00  0.00    -0.207 F 
HETATM   28  F2  UNL     1      20.210   6.138  50.013  1.00  0.00    -0.207 F 
ENDBRANCH  10  26
TORSDOF 3
ENDMDL
MODEL 4
REMARK VINA RESULT:      -7.4      6.292      9.336
REMARK  3 active torsions:
REMARK  status: ('A' for Active; 'I' for Inactive)
REMARK    1  A    between atoms: O1_1  and  C1_2 
REMARK    2  A    between atoms: C4_5  and  C5_6 
REMARK    3  A    between atoms: C12_15  and  C13_16 
ROOT
HETATM    1  C5  UNL     1      28.324   8.165  46.948  1.00  0.00     0.001 C 
HETATM    2  C6  UNL     1      28.885   8.135  45.726  1.00  0.00     0.017 C 
HETATM    3  C7  UNL     1      29.985   9.162  45.856  1.00  0.00     0.136 C 
HETATM    4  C8  UNL     1      29.225  10.252  46.572  1.00  0.00     0.035 C 
HETATM    5  C9  UNL     1      28.547   9.526  47.481  1.00  0.00     0.067 C 
HETATM    6  N1  UNL     1      28.235  10.227  48.676  1.00  0.00    -0.244 NA
HETATM    7  C10 UNL     1      28.995  10.306  49.709  1.00  0.00     0.208 C 
HETATM    8  N2  UNL     1      30.280   9.753  49.944  1.00  0.00    -0.349 N 
HETATM    9  C11 UNL     1      31.168   9.145  49.013  1.00  0.00     0.061 C 
HETATM   10  C12 UNL     1      31.503   9.605  47.788  1.00  0.00     0.102 C 
HETATM   11  N3  UNL     1      31.011   8.726  46.746  1.00  0.00    -0.336 N 
HETATM   12  C14 UNL     1      31.456   7.350  46.475  1.00  0.00     0.276 C 
HETATM   13  F3  UNL     1      31.708   7.112  45.164  1.00  0.00    -0.226 F 
HETATM   14  C15 UNL     1      32.596   6.959  47.386  1.00  0.00     0.086 C 
HETATM   15  C16 UNL     1      32.141   6.855  48.821  1.00  0.00    -0.020 C 
HETATM   16  C17 UNL     1      31.703   7.879  49.588  1.00  0.00     0.028 C 
HETATM   17  H8  UNL     1      30.681   9.760  50.880  1.00  0.00     0.166 HD
ENDROOT
BRANCH   1  18
HETATM   18  C4  UNL     1      27.613   7.099  47.674  1.00  0.00    -0.024 A 
HETATM   19  C3  UNL     1      26.286   7.069  48.050  1.00  0.00     0.015 A 
HETATM   20  C2  UNL     1      25.790   5.980  48.729  1.00  0.00     0.037 A 
HETATM   21  C1  UNL     1      26.555   4.884  49.068  1.00  0.00     0.065 A 
HETATM   22  C19 UNL     1      27.886   4.877  48.707  1.00  0.00     0.037 A 
HETATM   23  C18 UNL     1      28.370   5.975  48.026  1.00  0.00     0.015 A 
BRANCH  21  24
HETATM   24  O1  UNL     1      26.038   3.792  49.753  1.00  0.00    -0.361 OA
HETATM   25  H1  UNL     1      26.450   2.875  49.651  1.00  0.00     0.217 HD
ENDBRANCH  21  24
ENDBRANCH   1  18
BRANCH  10  26
HETATM   26  C13 UNL     1      32.242  10.772  47.269  1.00  0.00     0.405 C 
HETATM   27  F1  UNL     1      33.596  10.453  47.117  1.00  0.00    -0.207 F 
HETATM   28  F2  UNL     1      32.130  11.877  48.057  1.00  0.00    -0.207 F 
ENDBRANCH  10  26
TORSDOF 3
ENDMDL
MODEL 5
REMARK VINA RESULT:      -7.3      2.768      4.346
REMARK  3 active torsions:
REMARK  status: ('A' for Active; 'I' for Inactive)
REMARK    1  A    between atoms: O1_1  and  C1_2 
REMARK    2  A    between atoms: C4_5  and  C5_6 
REMARK    3  A    between atoms: C12_15  and  C13_16 
ROOT
HETATM    1  C5  UNL     1      24.272   3.058  52.437  1.00  0.00     0.001 C 
HETATM    2  C6  UNL     1      23.345   3.545  53.282  1.00  0.00     0.017 C 
HETATM    3  C7  UNL     1      22.439   4.314  52.350  1.00  0.00     0.136 C 
HETATM    4  C8  UNL     1      23.481   5.014  51.511  1.00  0.00     0.035 C 
HETATM    5  C9  UNL     1      24.350   4.007  51.306  1.00  0.00     0.067 C 
HETATM    6  N1  UNL     1      25.092   4.110  50.099  1.00  0.00    -0.244 NA
HETATM    7  C10 UNL     1      24.717   3.654  48.957  1.00  0.00     0.208 C 
HETATM    8  N2  UNL     1      23.534   2.960  48.593  1.00  0.00    -0.349 N 
HETATM    9  C11 UNL     1      22.345   2.776  49.351  1.00  0.00     0.061 C 
HETATM   10  C12 UNL     1      21.672   3.716  50.051  1.00  0.00     0.102 C 
HETATM   11  N3  UNL     1      21.723   3.446  51.473  1.00  0.00    -0.336 N 
HETATM   12  C14 UNL     1      21.097   2.314  52.176  1.00  0.00     0.276 C 
HETATM   13  F3  UNL     1      20.415   2.680  53.289  1.00  0.00    -0.226 F 
HETATM   14  C15 UNL     1      20.284   1.467  51.224  1.00  0.00     0.086 C 
HETATM   15  C16 UNL     1      21.169   0.758  50.229  1.00  0.00    -0.020 C 
HETATM   16  C17 UNL     1      21.917   1.351  49.272  1.00  0.00     0.028 C 
HETATM   17  H8  UNL     1      23.461   2.511  47.682  1.00  0.00     0.166 HD
ENDROOT
BRANCH   1  18
HETATM   18  C4  UNL     1      25.085   1.836  52.549  1.00  0.00    -0.024 A 
HETATM   19  C3  UNL     1      26.400   1.655  52.172  1.00  0.00     0.015 A 
HETATM   20  C2  UNL     1      27.003   0.431  52.354  1.00  0.00     0.037 A 
HETATM   21  C1  UNL     1      26.360  -0.658  52.904  1.00  0.00     0.065 A 
HETATM   22  C19 UNL     1      25.045  -0.515  53.293  1.00  0.00     0.037 A 
HETATM   23  C18 UNL     1      24.453   0.717  53.106  1.00  0.00     0.015 A 
BRANCH  21  24
HETATM   24  O1  UNL     1      26.984  -1.886  53.080  1.00  0.00    -0.361 OA
HETATM   25  H1  UNL     1      27.536  -2.072  53.905  1.00  0.00     0.217 HD
ENDBRANCH  21  24
ENDBRANCH   1  18
BRANCH  10  26
HETATM   26  C13 UNL     1      20.908   4.933  49.713  1.00  0.00     0.405 C 
HETATM   27  F1  UNL     1      19.762   5.016  50.512  1.00  0.00    -0.207 F 
HETATM   28  F2  UNL     1      20.542   4.994  48.403  1.00  0.00    -0.207 F 
ENDBRANCH  10  26
TORSDOF 3
ENDMDL
MODEL 6
REMARK VINA RESULT:      -7.0      8.341     10.519
REMARK  3 active torsions:
REMARK  status: ('A' for Active; 'I' for Inactive)
REMARK    1  A    between atoms: O1_1  and  C1_2 
REMARK    2  A    between atoms: C4_5  and  C5_6 
REMARK    3  A    between atoms: C12_15  and  C13_16 
ROOT
HETATM    1  C5  UNL     1      33.733   6.262  47.389  1.00  0.00     0.001 C 
HETATM    2  C6  UNL     1      34.037   6.931  48.516  1.00  0.00     0.017 C 
HETATM    3  C7  UNL     1      33.732   8.359  48.130  1.00  0.00     0.136 C 
HETATM    4  C8  UNL     1      34.364   8.387  46.759  1.00  0.00     0.035 C 
HETATM    5  C9  UNL     1      33.947   7.205  46.270  1.00  0.00     0.067 C 
HETATM    6  N1  UNL     1      33.820   7.168  44.855  1.00  0.00    -0.244 NA
HETATM    7  C10 UNL     1      32.768   7.502  44.196  1.00  0.00     0.208 C 
HETATM    8  N2  UNL     1      31.512   7.971  44.656  1.00  0.00    -0.349 N 
HETATM    9  C11 UNL     1      31.151   8.408  45.961  1.00  0.00     0.061 C 
HETATM   10  C12 UNL     1      31.845   9.249  46.759  1.00  0.00     0.102 C 
HETATM   11  N3  UNL     1      32.333   8.566  47.940  1.00  0.00    -0.336 N 
HETATM   12  C14 UNL     1      31.520   8.018  49.037  1.00  0.00     0.276 C 
HETATM   13  F3  UNL     1      31.977   8.352  50.268  1.00  0.00    -0.226 F 
HETATM   14  C15 UNL     1      30.055   8.330  48.835  1.00  0.00     0.086 C 
HETATM   15  C16 UNL     1      29.496   7.594  47.643  1.00  0.00    -0.020 C 
HETATM   16  C17 UNL     1      29.853   7.791  46.354  1.00  0.00     0.028 C 
HETATM   17  H8  UNL     1      30.719   8.029  44.019  1.00  0.00     0.166 HD
ENDROOT
BRANCH   1  18
HETATM   18  C4  UNL     1      33.277   4.872  47.223  1.00  0.00    -0.024 A 
HETATM   19  C3  UNL     1      32.109   4.426  46.640  1.00  0.00     0.015 A 
HETATM   20  C2  UNL     1      31.847   3.077  46.574  1.00  0.00     0.037 A 
HETATM   21  C1  UNL     1      32.701   2.113  47.068  1.00  0.00     0.065 A 
HETATM   22  C19 UNL     1      33.879   2.521  47.657  1.00  0.00     0.037 A 
HETATM   23  C18 UNL     1      34.130   3.876  47.716  1.00  0.00     0.015 A 
BRANCH  21  24
HETATM   24  O1  UNL     1      32.421   0.755  46.993  1.00  0.00    -0.361 OA
HETATM   25  H1  UNL     1      31.603   0.422  46.504  1.00  0.00     0.217 HD
ENDBRANCH  21  24
ENDBRANCH   1  18
BRANCH  10  26
HETATM   26  C13 UNL     1      32.216  10.677  46.712  1.00  0.00     0.405 C 
HETATM   27  F1  UNL     1      32.025  11.263  47.969  1.00  0.00    -0.207 F 
HETATM   28  F2  UNL     1      31.520  11.385  45.781  1.00  0.00    -0.207 F 
ENDBRANCH  10  26
TORSDOF 3
ENDMDL
MODEL 7
REMARK VINA RESULT:      -6.9      7.011      9.442
REMARK  3 active torsions:
REMARK  status: ('A' for Active; 'I' for Inactive)
REMARK    1  A    between atoms: O1_1  and  C1_2 
REMARK    2  A    between atoms: C4_5  and  C5_6 
REMARK    3  A    between atoms: C12_15  and  C13_16 
ROOT
HETATM    1  C5  UNL     1      30.940   7.904  46.137  1.00  0.00     0.001 C 
HETATM    2  C6  UNL     1      29.791   8.141  45.478  1.00  0.00     0.017 C 
HETATM    3  C7  UNL     1      28.788   8.216  46.605  1.00  0.00     0.136 C 
HETATM    4  C8  UNL     1      29.237   7.026  47.418  1.00  0.00     0.035 C 
HETATM    5  C9  UNL     1      30.573   7.189  47.378  1.00  0.00     0.067 C 
HETATM    6  N1  UNL     1      31.262   6.653  48.499  1.00  0.00    -0.244 NA
HETATM    7  C10 UNL     1      31.492   7.281  49.597  1.00  0.00     0.208 C 
HETATM    8  N2  UNL     1      31.152   8.602  49.983  1.00  0.00    -0.349 N 
HETATM    9  C11 UNL     1      30.270   9.515  49.341  1.00  0.00     0.061 C 
HETATM   10  C12 UNL     1      29.033   9.252  48.863  1.00  0.00     0.102 C 
HETATM   11  N3  UNL     1      28.995   9.369  47.420  1.00  0.00    -0.336 N 
HETATM   12  C14 UNL     1      29.159  10.603  46.633  1.00  0.00     0.276 C 
HETATM   13  F3  UNL     1      28.221  10.756  45.667  1.00  0.00    -0.226 F 
HETATM   14  C15 UNL     1      29.294  11.807  47.536  1.00  0.00     0.086 C 
HETATM   15  C16 UNL     1      30.585  11.767  48.315  1.00  0.00    -0.020 C 
HETATM   16  C17 UNL     1      30.911  10.857  49.259  1.00  0.00     0.028 C 
HETATM   17  H8  UNL     1      31.557   9.014  50.822  1.00  0.00     0.166 HD
ENDROOT
BRANCH   1  18
HETATM   18  C4  UNL     1      32.320   8.253  45.761  1.00  0.00    -0.024 A 
HETATM   19  C3  UNL     1      33.040   7.807  44.672  1.00  0.00     0.015 A 
HETATM   20  C2  UNL     1      34.331   8.244  44.478  1.00  0.00     0.037 A 
HETATM   21  C1  UNL     1      34.970   9.124  45.327  1.00  0.00     0.065 A 
HETATM   22  C19 UNL     1      34.281   9.591  46.425  1.00  0.00     0.037 A 
HETATM   23  C18 UNL     1      32.988   9.146  46.607  1.00  0.00     0.015 A 
BRANCH  21  24
HETATM   24  O1  UNL     1      36.273   9.554  45.116  1.00  0.00    -0.361 OA
HETATM   25  H1  UNL     1      36.608   9.750  44.183  1.00  0.00     0.217 HD
ENDBRANCH  21  24
ENDBRANCH   1  18
BRANCH  10  26
HETATM   26  C13 UNL     1      27.733   8.882  49.456  1.00  0.00     0.405 C 
HETATM   27  F1  UNL     1      26.691   9.472  48.732  1.00  0.00    -0.207 F 
HETATM   28  F2  UNL     1      27.618   9.231  50.767  1.00  0.00    -0.207 F 
ENDBRANCH  10  26
TORSDOF 3
ENDMDL
MODEL 8
REMARK VINA RESULT:      -6.9      2.361      4.394
REMARK  3 active torsions:
REMARK  status: ('A' for Active; 'I' for Inactive)
REMARK    1  A    between atoms: O1_1  and  C1_2 
REMARK    2  A    between atoms: C4_5  and  C5_6 
REMARK    3  A    between atoms: C12_15  and  C13_16 
ROOT
HETATM    1  C5  UNL     1      23.210   2.542  48.996  1.00  0.00     0.001 C 
HETATM    2  C6  UNL     1      22.622   2.089  47.873  1.00  0.00     0.017 C 
HETATM    3  C7  UNL     1      21.235   1.742  48.359  1.00  0.00     0.136 C 
HETATM    4  C8  UNL     1      21.590   1.036  49.646  1.00  0.00     0.035 C 
HETATM    5  C9  UNL     1      22.541   1.860  50.125  1.00  0.00     0.067 C 
HETATM    6  N1  UNL     1      22.652   1.865  51.541  1.00  0.00    -0.244 NA
HETATM    7  C10 UNL     1      21.981   2.622  52.335  1.00  0.00     0.208 C 
HETATM    8  N2  UNL     1      21.003   3.608  52.048  1.00  0.00    -0.349 N 
HETATM    9  C11 UNL     1      20.341   3.870  50.817  1.00  0.00     0.061 C 
HETATM   10  C12 UNL     1      19.785   2.963  49.983  1.00  0.00     0.102 C 
HETATM   11  N3  UNL     1      20.496   2.907  48.722  1.00  0.00    -0.336 N 
HETATM   12  C14 UNL     1      20.565   3.968  47.704  1.00  0.00     0.276 C 
HETATM   13  F3  UNL     1      20.334   3.523  46.445  1.00  0.00    -0.226 F 
HETATM   14  C15 UNL     1      19.705   5.148  48.092  1.00  0.00     0.086 C 
HETATM   15  C16 UNL     1      20.256   5.854  49.306  1.00  0.00    -0.020 C 
HETATM   16  C17 UNL     1      20.339   5.336  50.552  1.00  0.00     0.028 C 
HETATM   17  H8  UNL     1      20.687   4.247  52.776  1.00  0.00     0.166 HD
ENDROOT
BRANCH   1  18
HETATM   18  C4  UNL     1      24.304   3.515  49.149  1.00  0.00    -0.024 A 
HETATM   19  C3  UNL     1      25.613   3.270  49.508  1.00  0.00     0.015 A 
HETATM   20  C2  UNL     1      26.506   4.313  49.602  1.00  0.00     0.037 A 
HETATM   21  C1  UNL     1      26.166   5.627  49.352  1.00  0.00     0.065 A 
HETATM   22  C19 UNL     1      24.867   5.910  48.988  1.00  0.00     0.037 A 
HETATM   23  C18 UNL     1      23.983   4.855  48.898  1.00  0.00     0.015 A 
BRANCH  21  24
HETATM   24  O1  UNL     1      27.080   6.668  49.450  1.00  0.00    -0.361 OA
HETATM   25  H1  UNL     1      27.260   7.275  48.663  1.00  0.00     0.217 HD
ENDBRANCH  21  24
ENDBRANCH   1  18
BRANCH  10  26
HETATM   26  C13 UNL     1      18.640   2.033  50.053  1.00  0.00     0.405 C 
HETATM   27  F1  UNL     1      17.835   2.179  48.918  1.00  0.00    -0.207 F 
HETATM   28  F2  UNL     1      17.876   2.200  51.166  1.00  0.00    -0.207 F 
ENDBRANCH  10  26
TORSDOF 3
ENDMDL
MODEL 9
REMARK VINA RESULT:      -6.9      4.237      6.781
REMARK  3 active torsions:
REMARK  status: ('A' for Active; 'I' for Inactive)
REMARK    1  A    between atoms: O1_1  and  C1_2 
REMARK    2  A    between atoms: C4_5  and  C5_6 
REMARK    3  A    between atoms: C12_15  and  C13_16 
ROOT
HETATM    1  C5  UNL     1      20.400   1.226  49.695  1.00  0.00     0.001 C 
HETATM    2  C6  UNL     1      21.564   0.942  49.082  1.00  0.00     0.017 C 
HETATM    3  C7  UNL     1      21.933   2.274  48.472  1.00  0.00     0.136 C 
HETATM    4  C8  UNL     1      20.589   2.673  47.912  1.00  0.00     0.035 C 
HETATM    5  C9  UNL     1      19.785   2.336  48.937  1.00  0.00     0.067 C 
HETATM    6  N1  UNL     1      18.594   3.107  49.026  1.00  0.00    -0.244 NA
HETATM    7  C10 UNL     1      18.478   4.220  49.658  1.00  0.00     0.208 C 
HETATM    8  N2  UNL     1      19.437   4.953  50.403  1.00  0.00    -0.349 N 
HETATM    9  C11 UNL     1      20.845   4.764  50.467  1.00  0.00     0.061 C 
HETATM   10  C12 UNL     1      21.687   4.566  49.428  1.00  0.00     0.102 C 
HETATM   11  N3  UNL     1      22.264   3.238  49.469  1.00  0.00    -0.336 N 
HETATM   12  C14 UNL     1      23.204   2.719  50.476  1.00  0.00     0.276 C 
HETATM   13  F3  UNL     1      24.269   2.074  49.940  1.00  0.00    -0.226 F 
HETATM   14  C15 UNL     1      23.589   3.795  51.464  1.00  0.00     0.086 C 
HETATM   15  C16 UNL     1      22.415   4.199  52.322  1.00  0.00    -0.020 C 
HETATM   16  C17 UNL     1      21.293   4.813  51.886  1.00  0.00     0.028 C 
HETATM   17  H8  UNL     1      19.145   5.732  50.991  1.00  0.00     0.166 HD
ENDROOT
BRANCH   1  18
HETATM   18  C4  UNL     1      19.796   0.599  50.883  1.00  0.00    -0.024 A 
HETATM   19  C3  UNL     1      20.375   0.387  52.117  1.00  0.00     0.015 A 
HETATM   20  C2  UNL     1      19.651  -0.219  53.119  1.00  0.00     0.037 A 
HETATM   21  C1  UNL     1      18.347  -0.641  52.964  1.00  0.00     0.065 A 
HETATM   22  C19 UNL     1      17.735  -0.444  51.745  1.00  0.00     0.037 A 
HETATM   23  C18 UNL     1      18.471   0.165  50.750  1.00  0.00     0.015 A 
BRANCH  21  24
HETATM   24  O1  UNL     1      17.631  -1.251  53.986  1.00  0.00    -0.361 OA
HETATM   25  H1  UNL     1      17.861  -1.077  54.954  1.00  0.00     0.217 HD
ENDBRANCH  21  24
ENDBRANCH   1  18
BRANCH  10  26
HETATM   26  C13 UNL     1      22.151   5.372  48.282  1.00  0.00     0.405 C 
HETATM   27  F1  UNL     1      23.536   5.235  48.130  1.00  0.00    -0.207 F 
HETATM   28  F2  UNL     1      21.844   6.693  48.391  1.00  0.00    -0.207 F 
ENDBRANCH  10  26
TORSDOF 3
ENDMDL
