MODEL 1
REMARK VINA RESULT:      -8.8      0.000      0.000
REMARK  2 active torsions:
REMARK  status: ('A' for Active; 'I' for Inactive)
REMARK    1  A    between atoms: O1_1  and  C1_2 
REMARK    2  A    between atoms: C3_5  and  N1_6 
ROOT
HETATM    1  N1  UNL     1      26.641   0.776  53.624  1.00  0.00    -0.240 N 
HETATM    2  N2  UNL     1      26.622   2.203  53.469  1.00  0.00    -0.174 NA
HETATM    3  C4  UNL     1      25.547   2.573  52.837  1.00  0.00     0.067 C 
HETATM    4  C5  UNL     1      24.796   2.002  54.034  1.00  0.00     0.089 C 
HETATM    5  C6  UNL     1      25.207   0.547  53.919  1.00  0.00     0.122 C 
HETATM    6  C7  UNL     1      24.480  -0.163  52.855  1.00  0.00     0.056 C 
HETATM    7  C8  UNL     1      23.033   0.177  52.784  1.00  0.00    -0.005 C 
HETATM    8  C9  UNL     1      21.873   0.569  52.180  1.00  0.00     0.011 C 
HETATM    9 CL1  UNL     1      20.277   0.763  52.950  1.00  0.00    -0.089 Cl
HETATM   10  C10 UNL     1      21.496   0.921  50.786  1.00  0.00     0.080 C 
HETATM   11  C11 UNL     1      20.790   2.177  50.597  1.00  0.00     0.003 C 
HETATM   12  C12 UNL     1      20.641   3.449  50.130  1.00  0.00     0.139 C 
HETATM   13  O2  UNL     1      21.753   4.010  49.361  1.00  0.00    -0.323 OA
HETATM   14  C13 UNL     1      23.009   3.561  49.925  1.00  0.00     0.074 A 
HETATM   15  C14 UNL     1      24.118   2.984  49.372  1.00  0.00     0.038 A 
HETATM   16  C15 UNL     1      24.866   2.811  50.503  1.00  0.00     0.016 A 
HETATM   17  C16 UNL     1      24.602   3.122  51.809  1.00  0.00    -0.010 A 
HETATM   18  C17 UNL     1      23.527   3.709  52.430  1.00  0.00     0.016 A 
HETATM   19  C18 UNL     1      22.857   3.835  51.259  1.00  0.00     0.038 A 
ENDROOT
BRANCH   1  20
HETATM   20  C3  UNL     1      27.648  -0.244  53.550  1.00  0.00     0.192 A 
HETATM   21  S1  UNL     1      29.472   0.281  53.670  1.00  0.00    -0.058 SA
HETATM   22  C2  UNL     1      30.080  -1.388  53.512  1.00  0.00     0.111 A 
HETATM   23  C1  UNL     1      28.807  -2.138  53.387  1.00  0.00     0.171 A 
HETATM   24  N3  UNL     1      27.674  -1.456  53.422  1.00  0.00    -0.198 NA
BRANCH  23  25
HETATM   25  O1  UNL     1      28.633  -3.530  53.232  1.00  0.00    -0.344 OA
HETATM   26  H1  UNL     1      29.350  -4.132  52.904  1.00  0.00     0.219 HD
ENDBRANCH  23  25
ENDBRANCH   1  20
TORSDOF 2
ENDMDL
MODEL 2
REMARK VINA RESULT:      -8.2      2.844      3.890
REMARK  2 active torsions:
REMARK  status: ('A' for Active; 'I' for Inactive)
REMARK    1  A    between atoms: O1_1  and  C1_2 
REMARK    2  A    between atoms: C3_5  and  N1_6 
ROOT
HETATM    1  N1  UNL     1      25.333   2.421  52.964  1.00  0.00    -0.240 N 
HETATM    2  N2  UNL     1      24.318   3.175  53.645  1.00  0.00    -0.174 NA
HETATM    3  C4  UNL     1      23.719   3.976  52.813  1.00  0.00     0.067 C 
HETATM    4  C5  UNL     1      23.270   2.705  52.104  1.00  0.00     0.089 C 
HETATM    5  C6  UNL     1      24.622   2.156  51.691  1.00  0.00     0.122 C 
HETATM    6  C7  UNL     1      25.188   2.859  50.529  1.00  0.00     0.056 C 
HETATM    7  C8  UNL     1      24.190   3.168  49.468  1.00  0.00    -0.005 C 
HETATM    8  C9  UNL     1      23.519   3.961  48.582  1.00  0.00     0.011 C 
HETATM    9 CL1  UNL     1      22.217   3.461  47.472  1.00  0.00    -0.089 Cl
HETATM   10  C10 UNL     1      23.608   5.393  48.196  1.00  0.00     0.080 C 
HETATM   11  C11 UNL     1      22.369   6.151  48.204  1.00  0.00     0.003 C 
HETATM   12  C12 UNL     1      21.525   7.129  48.641  1.00  0.00     0.139 C 
HETATM   13  O2  UNL     1      22.004   7.985  49.727  1.00  0.00    -0.323 OA
HETATM   14  C13 UNL     1      22.785   7.198  50.658  1.00  0.00     0.074 A 
HETATM   15  C14 UNL     1      24.027   7.372  51.202  1.00  0.00     0.038 A 
HETATM   16  C15 UNL     1      24.106   6.228  51.946  1.00  0.00     0.016 A 
HETATM   17  C16 UNL     1      23.214   5.203  52.113  1.00  0.00    -0.010 A 
HETATM   18  C17 UNL     1      21.956   4.971  51.615  1.00  0.00     0.016 A 
HETATM   19  C18 UNL     1      21.970   6.125  50.906  1.00  0.00     0.038 A 
ENDROOT
BRANCH   1  20
HETATM   20  C3  UNL     1      26.661   1.980  53.282  1.00  0.00     0.192 A 
HETATM   21  S1  UNL     1      27.167   0.214  52.789  1.00  0.00    -0.058 SA
HETATM   22  C2  UNL     1      28.812   0.378  53.456  1.00  0.00     0.111 A 
HETATM   23  C1  UNL     1      28.766   1.766  53.974  1.00  0.00     0.171 A 
HETATM   24  N3  UNL     1      27.645   2.452  53.825  1.00  0.00    -0.198 NA
BRANCH  23  25
HETATM   25  O1  UNL     1      29.792   2.482  54.627  1.00  0.00    -0.344 OA
HETATM   26  H1  UNL     1      30.002   2.372  55.591  1.00  0.00     0.219 HD
ENDBRANCH  23  25
ENDBRANCH   1  20
TORSDOF 2
ENDMDL
MODEL 3
REMARK VINA RESULT:      -7.7     10.055     12.416
REMARK  2 active torsions:
REMARK  status: ('A' for Active; 'I' for Inactive)
REMARK    1  A    between atoms: O1_1  and  C1_2 
REMARK    2  A    between atoms: C3_5  and  N1_6 
ROOT
HETATM    1  N1  UNL     1      30.982   8.886  48.748  1.00  0.00    -0.240 N 
HETATM    2  N2  UNL     1      31.998   8.283  49.565  1.00  0.00    -0.174 NA
HETATM    3  C4  UNL     1      32.662   7.400  48.879  1.00  0.00     0.067 C 
HETATM    4  C5  UNL     1      33.088   8.576  48.009  1.00  0.00     0.089 C 
HETATM    5  C6  UNL     1      31.733   8.999  47.476  1.00  0.00     0.122 C 
HETATM    6  C7  UNL     1      31.244   8.113  46.408  1.00  0.00     0.056 C 
HETATM    7  C8  UNL     1      32.295   7.702  45.438  1.00  0.00    -0.005 C 
HETATM    8  C9  UNL     1      33.034   6.822  44.699  1.00  0.00     0.011 C 
HETATM    9 CL1  UNL     1      34.359   7.219  43.573  1.00  0.00    -0.089 Cl
HETATM   10  C10 UNL     1      33.018   5.347  44.520  1.00  0.00     0.080 C 
HETATM   11  C11 UNL     1      34.286   4.656  44.680  1.00  0.00     0.003 C 
HETATM   12  C12 UNL     1      35.150   3.790  45.282  1.00  0.00     0.139 C 
HETATM   13  O2  UNL     1      34.662   3.076  46.462  1.00  0.00    -0.323 OA
HETATM   14  C13 UNL     1      33.813   3.951  47.244  1.00  0.00     0.074 A 
HETATM   15  C14 UNL     1      32.558   3.800  47.763  1.00  0.00     0.038 A 
HETATM   16  C15 UNL     1      32.402   5.033  48.332  1.00  0.00     0.016 A 
HETATM   17  C16 UNL     1      33.244   6.111  48.380  1.00  0.00    -0.010 A 
HETATM   18  C17 UNL     1      34.511   6.327  47.898  1.00  0.00     0.016 A 
HETATM   19  C18 UNL     1      34.573   5.085  47.362  1.00  0.00     0.038 A 
ENDROOT
BRANCH   1  20
HETATM   20  C3  UNL     1      29.626   9.306  48.954  1.00  0.00     0.192 A 
HETATM   21  S1  UNL     1      28.948  10.720  47.878  1.00  0.00    -0.058 SA
HETATM   22  C2  UNL     1      27.339  10.684  48.645  1.00  0.00     0.111 A 
HETATM   23  C1  UNL     1      27.525   9.593  49.631  1.00  0.00     0.171 A 
HETATM   24  N3  UNL     1      28.701   8.991  49.683  1.00  0.00    -0.198 NA
BRANCH  23  25
HETATM   25  O1  UNL     1      26.583   9.088  50.554  1.00  0.00    -0.344 OA
HETATM   26  H1  UNL     1      26.531   8.130  50.806  1.00  0.00     0.219 HD
ENDBRANCH  23  25
ENDBRANCH   1  20
TORSDOF 2
ENDMDL
MODEL 4
REMARK VINA RESULT:      -7.6      2.187      2.861
REMARK  2 active torsions:
REMARK  status: ('A' for Active; 'I' for Inactive)
REMARK    1  A    between atoms: O1_1  and  C1_2 
REMARK    2  A    between atoms: C3_5  and  N1_6 
ROOT
HETATM    1  N1  UNL     1      24.697   2.538  53.136  1.00  0.00    -0.240 N 
HETATM    2  N2  UNL     1      24.217   3.891  53.082  1.00  0.00    -0.174 NA
HETATM    3  C4  UNL     1      23.369   4.029  52.105  1.00  0.00     0.067 C 
HETATM    4  C5  UNL     1      22.513   3.027  52.871  1.00  0.00     0.089 C 
HETATM    5  C6  UNL     1      23.436   1.824  52.829  1.00  0.00     0.122 C 
HETATM    6  C7  UNL     1      23.428   1.151  51.521  1.00  0.00     0.056 C 
HETATM    7  C8  UNL     1      22.076   1.035  50.911  1.00  0.00    -0.005 C 
HETATM    8  C9  UNL     1      21.137   1.162  49.928  1.00  0.00     0.011 C 
HETATM    9 CL1  UNL     1      19.418   0.696  50.021  1.00  0.00    -0.089 Cl
HETATM   10  C10 UNL     1      21.162   1.651  48.525  1.00  0.00     0.080 C 
HETATM   11  C11 UNL     1      20.161   2.639  48.159  1.00  0.00     0.003 C 
HETATM   12  C12 UNL     1      19.733   3.869  47.756  1.00  0.00     0.139 C 
HETATM   13  O2  UNL     1      20.758   4.888  47.525  1.00  0.00    -0.323 OA
HETATM   14  C13 UNL     1      21.815   4.746  48.505  1.00  0.00     0.074 A 
HETATM   15  C14 UNL     1      23.175   4.662  48.393  1.00  0.00     0.038 A 
HETATM   16  C15 UNL     1      23.497   4.506  49.713  1.00  0.00     0.016 A 
HETATM   17  C16 UNL     1      22.706   4.453  50.829  1.00  0.00    -0.010 A 
HETATM   18  C17 UNL     1      21.349   4.543  51.015  1.00  0.00     0.016 A 
HETATM   19  C18 UNL     1      21.125   4.686  49.687  1.00  0.00     0.038 A 
ENDROOT
BRANCH   1  20
HETATM   20  C3  UNL     1      25.963   1.916  53.395  1.00  0.00     0.192 A 
HETATM   21  S1  UNL     1      25.979   0.255  54.323  1.00  0.00    -0.058 SA
HETATM   22  C2  UNL     1      27.755   0.116  54.275  1.00  0.00     0.111 A 
HETATM   23  C1  UNL     1      28.113   1.361  53.554  1.00  0.00     0.171 A 
HETATM   24  N3  UNL     1      27.135   2.165  53.172  1.00  0.00    -0.198 NA
BRANCH  23  25
HETATM   25  O1  UNL     1      29.402   1.821  53.206  1.00  0.00    -0.344 OA
HETATM   26  H1  UNL     1      29.762   2.697  53.501  1.00  0.00     0.219 HD
ENDBRANCH  23  25
ENDBRANCH   1  20
TORSDOF 2
ENDMDL
MODEL 5
REMARK VINA RESULT:      -7.5      5.318      8.103
REMARK  2 active torsions:
REMARK  status: ('A' for Active; 'I' for Inactive)
REMARK    1  A    between atoms: O1_1  and  C1_2 
REMARK    2  A    between atoms: C3_5  and  N1_6 
ROOT
HETATM    1  N1  UNL     1      18.414   2.592  50.617  1.00  0.00    -0.240 N 
HETATM    2  N2  UNL     1      19.084   2.796  49.363  1.00  0.00    -0.174 NA
HETATM    3  C4  UNL     1      20.370   2.853  49.545  1.00  0.00     0.067 C 
HETATM    4  C5  UNL     1      20.242   1.414  50.029  1.00  0.00     0.089 C 
HETATM    5  C6  UNL     1      19.356   1.634  51.240  1.00  0.00     0.122 C 
HETATM    6  C7  UNL     1      20.095   2.179  52.390  1.00  0.00     0.056 C 
HETATM    7  C8  UNL     1      21.436   1.565  52.590  1.00  0.00    -0.005 C 
HETATM    8  C9  UNL     1      22.790   1.560  52.773  1.00  0.00     0.011 C 
HETATM    9 CL1  UNL     1      23.840   0.130  52.952  1.00  0.00    -0.089 Cl
HETATM   10  C10 UNL     1      23.822   2.619  52.918  1.00  0.00     0.080 C 
HETATM   11  C11 UNL     1      24.991   2.514  52.062  1.00  0.00     0.003 C 
HETATM   12  C12 UNL     1      25.832   2.921  51.070  1.00  0.00     0.139 C 
HETATM   13  O2  UNL     1      25.485   4.157  50.368  1.00  0.00    -0.323 OA
HETATM   14  C13 UNL     1      24.048   4.241  50.213  1.00  0.00     0.074 A 
HETATM   15  C14 UNL     1      23.143   5.226  50.495  1.00  0.00     0.038 A 
HETATM   16  C15 UNL     1      21.994   4.585  50.125  1.00  0.00     0.016 A 
HETATM   17  C16 UNL     1      21.791   3.331  49.616  1.00  0.00    -0.010 A 
HETATM   18  C17 UNL     1      22.644   2.304  49.297  1.00  0.00     0.016 A 
HETATM   19  C18 UNL     1      23.727   3.014  49.694  1.00  0.00     0.038 A 
ENDROOT
BRANCH   1  20
HETATM   20  C3  UNL     1      17.208   3.084  51.219  1.00  0.00     0.192 A 
HETATM   21  S1  UNL     1      15.573   2.867  50.272  1.00  0.00    -0.058 SA
HETATM   22  C2  UNL     1      14.602   3.657  51.541  1.00  0.00     0.111 A 
HETATM   23  C1  UNL     1      15.654   3.988  52.532  1.00  0.00     0.171 A 
HETATM   24  N3  UNL     1      16.902   3.651  52.254  1.00  0.00    -0.198 NA
BRANCH  23  25
HETATM   25  O1  UNL     1      15.499   4.636  53.777  1.00  0.00    -0.344 OA
HETATM   26  H1  UNL     1      16.185   4.603  54.493  1.00  0.00     0.219 HD
ENDBRANCH  23  25
ENDBRANCH   1  20
TORSDOF 2
ENDMDL
MODEL 6
REMARK VINA RESULT:      -7.5      4.329      7.305
REMARK  2 active torsions:
REMARK  status: ('A' for Active; 'I' for Inactive)
REMARK    1  A    between atoms: O1_1  and  C1_2 
REMARK    2  A    between atoms: C3_5  and  N1_6 
ROOT
HETATM    1  N1  UNL     1      22.853   4.698  49.099  1.00  0.00    -0.240 N 
HETATM    2  N2  UNL     1      22.064   4.599  50.296  1.00  0.00    -0.174 NA
HETATM    3  C4  UNL     1      22.588   3.730  51.109  1.00  0.00     0.067 C 
HETATM    4  C5  UNL     1      23.783   4.673  51.151  1.00  0.00     0.089 C 
HETATM    5  C6  UNL     1      24.206   4.609  49.696  1.00  0.00     0.122 C 
HETATM    6  C7  UNL     1      24.927   3.368  49.371  1.00  0.00     0.056 C 
HETATM    7  C8  UNL     1      25.899   2.945  50.416  1.00  0.00    -0.005 C 
HETATM    8  C9  UNL     1      26.485   2.081  51.296  1.00  0.00     0.011 C 
HETATM    9 CL1  UNL     1      27.854   2.427  52.385  1.00  0.00    -0.089 Cl
HETATM   10  C10 UNL     1      26.273   0.653  51.646  1.00  0.00     0.080 C 
HETATM   11  C11 UNL     1      26.125   0.340  53.057  1.00  0.00     0.003 C 
HETATM   12  C12 UNL     1      25.451  -0.099  54.158  1.00  0.00     0.139 C 
HETATM   13  O2  UNL     1      24.069  -0.537  53.962  1.00  0.00    -0.323 OA
HETATM   14  C13 UNL     1      23.426   0.310  52.979  1.00  0.00     0.074 A 
HETATM   15  C14 UNL     1      22.709   0.034  51.848  1.00  0.00     0.038 A 
HETATM   16  C15 UNL     1      22.462   1.311  51.425  1.00  0.00     0.016 A 
HETATM   17  C16 UNL     1      22.815   2.518  51.963  1.00  0.00    -0.010 A 
HETATM   18  C17 UNL     1      23.515   2.867  53.092  1.00  0.00     0.016 A 
HETATM   19  C18 UNL     1      23.716   1.571  53.429  1.00  0.00     0.038 A 
ENDROOT
BRANCH   1  20
HETATM   20  C3  UNL     1      22.569   4.842  47.700  1.00  0.00     0.192 A 
HETATM   21  S1  UNL     1      22.714   6.573  46.925  1.00  0.00    -0.058 SA
HETATM   22  C2  UNL     1      22.250   6.008  45.300  1.00  0.00     0.111 A 
HETATM   23  C1  UNL     1      22.041   4.562  45.556  1.00  0.00     0.171 A 
HETATM   24  N3  UNL     1      22.233   4.112  46.784  1.00  0.00    -0.198 NA
BRANCH  23  25
HETATM   25  O1  UNL     1      21.654   3.565  44.634  1.00  0.00    -0.344 OA
HETATM   26  H1  UNL     1      20.972   2.875  44.838  1.00  0.00     0.219 HD
ENDBRANCH  23  25
ENDBRANCH   1  20
TORSDOF 2
ENDMDL
MODEL 7
REMARK VINA RESULT:      -7.4      4.438      5.513
REMARK  2 active torsions:
REMARK  status: ('A' for Active; 'I' for Inactive)
REMARK    1  A    between atoms: O1_1  and  C1_2 
REMARK    2  A    between atoms: C3_5  and  N1_6 
ROOT
HETATM    1  N1  UNL     1      23.934   5.270  50.796  1.00  0.00    -0.240 N 
HETATM    2  N2  UNL     1      22.593   5.783  50.769  1.00  0.00    -0.174 NA
HETATM    3  C4  UNL     1      21.739   4.818  50.943  1.00  0.00     0.067 C 
HETATM    4  C5  UNL     1      22.386   4.657  52.313  1.00  0.00     0.089 C 
HETATM    5  C6  UNL     1      23.790   4.277  51.885  1.00  0.00     0.122 C 
HETATM    6  C7  UNL     1      23.886   2.878  51.440  1.00  0.00     0.056 C 
HETATM    7  C8  UNL     1      23.114   1.923  52.282  1.00  0.00    -0.005 C 
HETATM    8  C9  UNL     1      22.221   0.920  52.529  1.00  0.00     0.011 C 
HETATM    9 CL1  UNL     1      21.789   0.239  54.119  1.00  0.00    -0.089 Cl
HETATM   10  C10 UNL     1      21.366   0.057  51.673  1.00  0.00     0.080 C 
HETATM   11  C11 UNL     1      19.959  -0.025  52.027  1.00  0.00     0.003 C 
HETATM   12  C12 UNL     1      18.624   0.162  51.822  1.00  0.00     0.139 C 
HETATM   13  O2  UNL     1      18.227   0.810  50.572  1.00  0.00    -0.323 OA
HETATM   14  C13 UNL     1      19.187   1.839  50.231  1.00  0.00     0.074 A 
HETATM   15  C14 UNL     1      19.881   2.113  49.086  1.00  0.00     0.038 A 
HETATM   16  C15 UNL     1      20.609   3.186  49.518  1.00  0.00     0.016 A 
HETATM   17  C16 UNL     1      20.643   3.816  50.733  1.00  0.00    -0.010 A 
HETATM   18  C17 UNL     1      19.971   3.606  51.911  1.00  0.00     0.016 A 
HETATM   19  C18 UNL     1      19.298   2.549  51.397  1.00  0.00     0.038 A 
ENDROOT
BRANCH   1  20
HETATM   20  C3  UNL     1      25.141   5.535  50.066  1.00  0.00     0.192 A 
HETATM   21  S1  UNL     1      25.550   7.339  49.624  1.00  0.00    -0.058 SA
HETATM   22  C2  UNL     1      27.067   6.911  48.792  1.00  0.00     0.111 A 
HETATM   23  C1  UNL     1      27.069   5.437  48.957  1.00  0.00     0.171 A 
HETATM   24  N3  UNL     1      26.061   4.880  49.606  1.00  0.00    -0.198 NA
BRANCH  23  25
HETATM   25  O1  UNL     1      28.036   4.515  48.501  1.00  0.00    -0.344 OA
HETATM   26  H1  UNL     1      28.872   4.317  48.996  1.00  0.00     0.219 HD
ENDBRANCH  23  25
ENDBRANCH   1  20
TORSDOF 2
ENDMDL
MODEL 8
REMARK VINA RESULT:      -7.2      2.162      3.185
REMARK  2 active torsions:
REMARK  status: ('A' for Active; 'I' for Inactive)
REMARK    1  A    between atoms: O1_1  and  C1_2 
REMARK    2  A    between atoms: C3_5  and  N1_6 
ROOT
HETATM    1  N1  UNL     1      24.752   2.866  52.309  1.00  0.00    -0.240 N 
HETATM    2  N2  UNL     1      24.953   3.797  51.234  1.00  0.00    -0.174 NA
HETATM    3  C4  UNL     1      23.905   3.830  50.465  1.00  0.00     0.067 C 
HETATM    4  C5  UNL     1      23.171   4.349  51.695  1.00  0.00     0.089 C 
HETATM    5  C6  UNL     1      23.328   3.148  52.607  1.00  0.00     0.122 C 
HETATM    6  C7  UNL     1      22.411   2.050  52.261  1.00  0.00     0.056 C 
HETATM    7  C8  UNL     1      21.038   2.502  51.907  1.00  0.00    -0.005 C 
HETATM    8  C9  UNL     1      19.913   2.584  51.137  1.00  0.00     0.011 C 
HETATM    9 CL1  UNL     1      18.437   3.518  51.495  1.00  0.00    -0.089 Cl
HETATM   10  C10 UNL     1      19.487   1.973  49.851  1.00  0.00     0.080 C 
HETATM   11  C11 UNL     1      18.983   2.878  48.833  1.00  0.00     0.003 C 
HETATM   12  C12 UNL     1      19.007   3.511  47.625  1.00  0.00     0.139 C 
HETATM   13  O2  UNL     1      20.130   3.208  46.737  1.00  0.00    -0.323 OA
HETATM   14  C13 UNL     1      21.337   3.042  47.519  1.00  0.00     0.074 A 
HETATM   15  C14 UNL     1      22.288   2.061  47.554  1.00  0.00     0.038 A 
HETATM   16  C15 UNL     1      23.087   2.561  48.544  1.00  0.00     0.016 A 
HETATM   17  C16 UNL     1      22.984   3.705  49.288  1.00  0.00    -0.010 A 
HETATM   18  C17 UNL     1      22.072   4.732  49.298  1.00  0.00     0.016 A 
HETATM   19  C18 UNL     1      21.339   4.157  48.314  1.00  0.00     0.038 A 
ENDROOT
BRANCH   1  20
HETATM   20  C3  UNL     1      25.569   1.903  52.990  1.00  0.00     0.192 A 
HETATM   21  S1  UNL     1      27.456   2.006  52.769  1.00  0.00    -0.058 SA
HETATM   22  C2  UNL     1      27.770   0.605  53.826  1.00  0.00     0.111 A 
HETATM   23  C1  UNL     1      26.388   0.234  54.215  1.00  0.00     0.171 A 
HETATM   24  N3  UNL     1      25.389   0.955  53.735  1.00  0.00    -0.198 NA
BRANCH  23  25
HETATM   25  O1  UNL     1      25.978  -0.821  55.059  1.00  0.00    -0.344 OA
HETATM   26  H1  UNL     1      26.603  -1.507  55.411  1.00  0.00     0.219 HD
ENDBRANCH  23  25
ENDBRANCH   1  20
TORSDOF 2
ENDMDL
MODEL 9
REMARK VINA RESULT:      -7.1      4.730      7.887
REMARK  2 active torsions:
REMARK  status: ('A' for Active; 'I' for Inactive)
REMARK    1  A    between atoms: O1_1  and  C1_2 
REMARK    2  A    between atoms: C3_5  and  N1_6 
ROOT
HETATM    1  N1  UNL     1      20.370   4.225  50.151  1.00  0.00    -0.240 N 
HETATM    2  N2  UNL     1      20.523   4.223  51.579  1.00  0.00    -0.174 NA
HETATM    3  C4  UNL     1      21.718   3.825  51.903  1.00  0.00     0.067 C 
HETATM    4  C5  UNL     1      22.199   5.067  51.163  1.00  0.00     0.089 C 
HETATM    5  C6  UNL     1      21.707   4.734  49.767  1.00  0.00     0.122 C 
HETATM    6  C7  UNL     1      22.557   3.742  49.089  1.00  0.00     0.056 C 
HETATM    7  C8  UNL     1      24.015   3.953  49.300  1.00  0.00    -0.005 C 
HETATM    8  C9  UNL     1      25.290   3.598  49.636  1.00  0.00     0.011 C 
HETATM    9 CL1  UNL     1      26.734   4.644  49.615  1.00  0.00    -0.089 Cl
HETATM   10  C10 UNL     1      25.934   2.333  50.074  1.00  0.00     0.080 C 
HETATM   11  C11 UNL     1      26.755   2.396  51.271  1.00  0.00     0.003 C 
HETATM   12  C12 UNL     1      27.079   2.094  52.561  1.00  0.00     0.139 C 
HETATM   13  O2  UNL     1      26.166   1.210  53.287  1.00  0.00    -0.323 OA
HETATM   14  C13 UNL     1      24.800   1.503  52.907  1.00  0.00     0.074 A 
HETATM   15  C14 UNL     1      23.767   0.713  52.485  1.00  0.00     0.038 A 
HETATM   16  C15 UNL     1      22.819   1.677  52.282  1.00  0.00     0.016 A 
HETATM   17  C16 UNL     1      22.869   3.034  52.451  1.00  0.00    -0.010 A 
HETATM   18  C17 UNL     1      23.857   3.885  52.881  1.00  0.00     0.016 A 
HETATM   19  C18 UNL     1      24.733   2.864  53.047  1.00  0.00     0.038 A 
ENDROOT
BRANCH   1  20
HETATM   20  C3  UNL     1      19.319   3.877  49.239  1.00  0.00     0.192 A 
HETATM   21  S1  UNL     1      17.530   4.307  49.719  1.00  0.00    -0.058 SA
HETATM   22  C2  UNL     1      16.844   3.626  48.221  1.00  0.00     0.111 A 
HETATM   23  C1  UNL     1      18.074   3.154  47.541  1.00  0.00     0.171 A 
HETATM   24  N3  UNL     1      19.234   3.338  48.148  1.00  0.00    -0.198 NA
BRANCH  23  25
HETATM   25  O1  UNL     1      18.180   2.512  46.287  1.00  0.00    -0.344 OA
HETATM   26  H1  UNL     1      19.016   2.503  45.753  1.00  0.00     0.219 HD
ENDBRANCH  23  25
ENDBRANCH   1  20
TORSDOF 2
ENDMDL
