MODEL 1
REMARK VINA RESULT:      -6.5      0.000      0.000
REMARK  6 active torsions:
REMARK  status: ('A' for Active; 'I' for Inactive)
REMARK    1  A    between atoms: C3_3  and  C4_4 
REMARK    2  A    between atoms: C4_4  and  N1_5 
REMARK    3  A    between atoms: N1_5  and  C5_6 
REMARK    4  A    between atoms: C5_6  and  C6_7 
REMARK    5  A    between atoms: C14_16  and  N2_17 
REMARK    6  A    between atoms: N2_17  and  C15_18 
ROOT
HETATM    1  C5  UNL     1      23.194   3.135  51.214  1.00  0.00     0.077 C 
HETATM    2  C7  UNL     1      23.737   3.970  52.351  1.00  0.00     0.038 C 
HETATM    3  C8  UNL     1      24.504   3.184  53.355  1.00  0.00     0.007 C 
HETATM    4  C9  UNL     1      24.734   1.748  53.023  1.00  0.00     0.042 C 
HETATM    5  C10 UNL     1      23.488   1.100  52.534  1.00  0.00    -0.022 A 
HETATM    6  C11 UNL     1      22.777   1.801  51.666  1.00  0.00    -0.012 A 
HETATM    7  C12 UNL     1      21.791   0.701  51.601  1.00  0.00    -0.026 A 
HETATM    8  C13 UNL     1      20.517   0.482  50.856  1.00  0.00     0.051 C 
HETATM    9  C14 UNL     1      22.517   0.013  52.472  1.00  0.00     0.042 A 
ENDROOT
BRANCH   1  10
HETATM   10  N1  UNL     1      24.264   2.915  50.236  1.00  0.00    -0.423 NA
BRANCH  10  11
HETATM   11  C4  UNL     1      25.007   3.882  49.823  1.00  0.00     0.317 C 
BRANCH  11  12
HETATM   12  C3  UNL     1      26.037   4.737  49.246  1.00  0.00    -0.002 C 
HETATM   13  C2  UNL     1      27.274   4.377  48.971  1.00  0.00    -0.033 C 
HETATM   14  C1  UNL     1      27.983   5.547  48.398  1.00  0.00     0.036 C 
ENDBRANCH  11  12
ENDBRANCH  10  11
ENDBRANCH   1  10
BRANCH   1  15
HETATM   15  C6  UNL     1      22.058   3.830  50.547  1.00  0.00     0.426 C 
HETATM   16  O1  UNL     1      21.382   3.637  49.543  1.00  0.00    -0.427 OA
ENDBRANCH   1  15
BRANCH   9  17
HETATM   17  N2  UNL     1      22.366  -1.252  53.065  1.00  0.00    -0.385 N 
HETATM   18  H17 UNL     1      22.598  -2.092  52.476  1.00  0.00     0.160 HD
BRANCH  17  19
HETATM   19  C15 UNL     1      21.909  -1.322  54.425  1.00  0.00     0.073 C 
HETATM   20  C16 UNL     1      21.069  -0.103  54.825  1.00  0.00     0.031 C 
HETATM   21  C17 UNL     1      23.094  -1.322  55.381  1.00  0.00     0.031 C 
ENDBRANCH  17  19
ENDBRANCH   9  17
TORSDOF 6
ENDMDL
MODEL 2
REMARK VINA RESULT:      -6.5      2.459      4.110
REMARK  6 active torsions:
REMARK  status: ('A' for Active; 'I' for Inactive)
REMARK    1  A    between atoms: C3_3  and  C4_4 
REMARK    2  A    between atoms: C4_4  and  N1_5 
REMARK    3  A    between atoms: N1_5  and  C5_6 
REMARK    4  A    between atoms: C5_6  and  C6_7 
REMARK    5  A    between atoms: C14_16  and  N2_17 
REMARK    6  A    between atoms: N2_17  and  C15_18 
ROOT
HETATM    1  C5  UNL     1      22.538   1.560  51.390  1.00  0.00     0.077 C 
HETATM    2  C7  UNL     1      21.746   0.276  51.470  1.00  0.00     0.038 C 
HETATM    3  C8  UNL     1      22.048  -0.537  52.680  1.00  0.00     0.007 C 
HETATM    4  C9  UNL     1      22.963   0.091  53.677  1.00  0.00     0.042 C 
HETATM    5  C10 UNL     1      24.148   0.700  53.014  1.00  0.00    -0.022 A 
HETATM    6  C11 UNL     1      23.899   1.398  51.918  1.00  0.00    -0.012 A 
HETATM    7  C12 UNL     1      25.343   1.689  51.788  1.00  0.00    -0.026 A 
HETATM    8  C13 UNL     1      26.171   2.458  50.814  1.00  0.00     0.051 C 
HETATM    9  C14 UNL     1      25.573   0.985  52.888  1.00  0.00     0.042 A 
ENDROOT
BRANCH   1  10
HETATM   10  N1  UNL     1      21.893   2.568  52.238  1.00  0.00    -0.423 NA
BRANCH  10  11
HETATM   11  C4  UNL     1      22.242   3.806  52.196  1.00  0.00     0.317 C 
BRANCH  11  12
HETATM   12  C3  UNL     1      22.867   5.099  51.947  1.00  0.00    -0.002 C 
HETATM   13  C2  UNL     1      23.920   5.314  51.186  1.00  0.00    -0.033 C 
HETATM   14  C1  UNL     1      24.223   6.766  51.208  1.00  0.00     0.036 C 
ENDBRANCH  11  12
ENDBRANCH  10  11
ENDBRANCH   1  10
BRANCH   1  15
HETATM   15  C6  UNL     1      22.587   2.062  49.988  1.00  0.00     0.426 C 
HETATM   16  O1  UNL     1      22.133   1.694  48.911  1.00  0.00    -0.427 OA
ENDBRANCH   1  15
BRANCH   9  17
HETATM   17  N2  UNL     1      26.740   0.671  53.604  1.00  0.00    -0.385 N 
HETATM   18  H17 UNL     1      26.866   1.124  54.545  1.00  0.00     0.160 HD
BRANCH  17  19
HETATM   19  C15 UNL     1      27.683  -0.239  53.014  1.00  0.00     0.073 C 
HETATM   20  C16 UNL     1      27.076  -1.622  52.753  1.00  0.00     0.031 C 
HETATM   21  C17 UNL     1      28.846  -0.486  53.965  1.00  0.00     0.031 C 
ENDBRANCH  17  19
ENDBRANCH   9  17
TORSDOF 6
ENDMDL
MODEL 3
REMARK VINA RESULT:      -6.4      2.432      5.010
REMARK  6 active torsions:
REMARK  status: ('A' for Active; 'I' for Inactive)
REMARK    1  A    between atoms: C3_3  and  C4_4 
REMARK    2  A    between atoms: C4_4  and  N1_5 
REMARK    3  A    between atoms: N1_5  and  C5_6 
REMARK    4  A    between atoms: C5_6  and  C6_7 
REMARK    5  A    between atoms: C14_16  and  N2_17 
REMARK    6  A    between atoms: N2_17  and  C15_18 
ROOT
HETATM    1  C5  UNL     1      24.518   4.286  50.171  1.00  0.00     0.077 C 
HETATM    2  C7  UNL     1      25.481   5.292  49.585  1.00  0.00     0.038 C 
HETATM    3  C8  UNL     1      26.780   4.700  49.163  1.00  0.00     0.007 C 
HETATM    4  C9  UNL     1      26.880   3.214  49.252  1.00  0.00     0.042 C 
HETATM    5  C10 UNL     1      26.350   2.714  50.549  1.00  0.00    -0.022 A 
HETATM    6  C11 UNL     1      25.213   3.256  50.954  1.00  0.00    -0.012 A 
HETATM    7  C12 UNL     1      25.251   2.405  52.164  1.00  0.00    -0.026 A 
HETATM    8  C13 UNL     1      24.362   2.236  53.350  1.00  0.00     0.051 C 
HETATM    9  C14 UNL     1      26.390   1.874  51.741  1.00  0.00     0.042 A 
ENDROOT
BRANCH   1  10
HETATM   10  N1  UNL     1      23.849   3.578  49.074  1.00  0.00    -0.423 NA
BRANCH  10  11
HETATM   11  C4  UNL     1      22.942   2.693  49.300  1.00  0.00     0.317 C 
BRANCH  11  12
HETATM   12  C3  UNL     1      21.885   1.845  49.838  1.00  0.00    -0.002 C 
HETATM   13  C2  UNL     1      21.993   1.041  50.875  1.00  0.00    -0.033 C 
HETATM   14  C1  UNL     1      20.687   0.368  51.082  1.00  0.00     0.036 C 
ENDBRANCH  11  12
ENDBRANCH  10  11
ENDBRANCH   1  10
BRANCH   1  15
HETATM   15  C6  UNL     1      23.492   4.966  51.010  1.00  0.00     0.426 C 
HETATM   16  O1  UNL     1      23.453   5.417  52.148  1.00  0.00    -0.427 OA
ENDBRANCH   1  15
BRANCH   9  17
HETATM   17  N2  UNL     1      27.250   0.897  52.269  1.00  0.00    -0.385 N 
HETATM   18  H17 UNL     1      27.383   0.017  51.709  1.00  0.00     0.160 HD
BRANCH  17  19
HETATM   19  C15 UNL     1      27.890   1.155  53.529  1.00  0.00     0.073 C 
HETATM   20  C16 UNL     1      28.642   2.491  53.542  1.00  0.00     0.031 C 
HETATM   21  C17 UNL     1      28.949   0.098  53.811  1.00  0.00     0.031 C 
ENDBRANCH  17  19
ENDBRANCH   9  17
TORSDOF 6
ENDMDL
MODEL 4
REMARK VINA RESULT:      -6.4      2.868      4.453
REMARK  6 active torsions:
REMARK  status: ('A' for Active; 'I' for Inactive)
REMARK    1  A    between atoms: C3_3  and  C4_4 
REMARK    2  A    between atoms: C4_4  and  N1_5 
REMARK    3  A    between atoms: N1_5  and  C5_6 
REMARK    4  A    between atoms: C5_6  and  C6_7 
REMARK    5  A    between atoms: C14_16  and  N2_17 
REMARK    6  A    between atoms: N2_17  and  C15_18 
ROOT
HETATM    1  C5  UNL     1      21.983   0.940  52.590  1.00  0.00     0.077 C 
HETATM    2  C7  UNL     1      22.164   2.418  52.335  1.00  0.00     0.038 C 
HETATM    3  C8  UNL     1      23.546   2.789  51.924  1.00  0.00     0.007 C 
HETATM    4  C9  UNL     1      24.486   1.652  51.698  1.00  0.00     0.042 C 
HETATM    5  C10 UNL     1      24.400   0.653  52.796  1.00  0.00    -0.022 A 
HETATM    6  C11 UNL     1      23.179   0.339  53.195  1.00  0.00    -0.012 A 
HETATM    7  C12 UNL     1      23.755  -0.594  54.189  1.00  0.00    -0.026 A 
HETATM    8  C13 UNL     1      23.181  -1.510  55.217  1.00  0.00     0.051 C 
HETATM    9  C14 UNL     1      24.971  -0.266  53.775  1.00  0.00     0.042 A 
ENDROOT
BRANCH   1  10
HETATM   10  N1  UNL     1      21.793   0.258  51.306  1.00  0.00    -0.423 NA
BRANCH  10  11
HETATM   11  C4  UNL     1      21.498   0.909  50.236  1.00  0.00     0.317 C 
BRANCH  11  12
HETATM   12  C3  UNL     1      21.475   1.591  48.948  1.00  0.00    -0.002 C 
HETATM   13  C2  UNL     1      22.466   2.280  48.421  1.00  0.00    -0.033 C 
HETATM   14  C1  UNL     1      22.023   2.804  47.106  1.00  0.00     0.036 C 
ENDBRANCH  11  12
ENDBRANCH  10  11
ENDBRANCH   1  10
BRANCH   1  15
HETATM   15  C6  UNL     1      20.793   0.696  53.453  1.00  0.00     0.426 C 
HETATM   16  O1  UNL     1      20.579   0.659  54.658  1.00  0.00    -0.427 OA
ENDBRANCH   1  15
BRANCH   9  17
HETATM   17  N2  UNL     1      26.260  -0.671  54.160  1.00  0.00    -0.385 N 
HETATM   18  H17 UNL     1      26.435  -0.812  55.187  1.00  0.00     0.160 HD
BRANCH  17  19
HETATM   19  C15 UNL     1      27.252  -0.866  53.139  1.00  0.00     0.073 C 
HETATM   20  C16 UNL     1      27.174  -2.260  52.506  1.00  0.00     0.031 C 
HETATM   21  C17 UNL     1      28.649  -0.773  53.734  1.00  0.00     0.031 C 
ENDBRANCH  17  19
ENDBRANCH   9  17
TORSDOF 6
ENDMDL
MODEL 5
REMARK VINA RESULT:      -6.1      3.069      5.155
REMARK  6 active torsions:
REMARK  status: ('A' for Active; 'I' for Inactive)
REMARK    1  A    between atoms: C3_3  and  C4_4 
REMARK    2  A    between atoms: C4_4  and  N1_5 
REMARK    3  A    between atoms: N1_5  and  C5_6 
REMARK    4  A    between atoms: C5_6  and  C6_7 
REMARK    5  A    between atoms: C14_16  and  N2_17 
REMARK    6  A    between atoms: N2_17  and  C15_18 
ROOT
HETATM    1  C5  UNL     1      25.017   0.632  53.596  1.00  0.00     0.077 C 
HETATM    2  C7  UNL     1      24.586  -0.417  54.594  1.00  0.00     0.038 C 
HETATM    3  C8  UNL     1      23.288  -1.063  54.259  1.00  0.00     0.007 C 
HETATM    4  C9  UNL     1      22.690  -0.683  52.945  1.00  0.00     0.042 C 
HETATM    5  C10 UNL     1      22.735   0.789  52.736  1.00  0.00    -0.022 A 
HETATM    6  C11 UNL     1      23.872   1.382  53.062  1.00  0.00    -0.012 A 
HETATM    7  C12 UNL     1      23.299   2.682  52.652  1.00  0.00    -0.026 A 
HETATM    8  C13 UNL     1      23.806   4.085  52.622  1.00  0.00     0.051 C 
HETATM    9  C14 UNL     1      22.167   2.070  52.331  1.00  0.00     0.042 A 
ENDROOT
BRANCH   1  10
HETATM   10  N1  UNL     1      25.636  -0.034  52.446  1.00  0.00    -0.423 NA
BRANCH  10  11
HETATM   11  C4  UNL     1      26.781  -0.615  52.541  1.00  0.00     0.317 C 
BRANCH  11  12
HETATM   12  C3  UNL     1      28.093  -1.116  52.932  1.00  0.00    -0.002 C 
HETATM   13  C2  UNL     1      28.972  -0.479  53.678  1.00  0.00    -0.033 C 
HETATM   14  C1  UNL     1      30.167  -1.343  53.832  1.00  0.00     0.036 C 
ENDBRANCH  11  12
ENDBRANCH  10  11
ENDBRANCH   1  10
BRANCH   1  15
HETATM   15  C6  UNL     1      26.003   1.567  54.208  1.00  0.00     0.426 C 
HETATM   16  O1  UNL     1      26.709   2.481  53.801  1.00  0.00    -0.427 OA
ENDBRANCH   1  15
BRANCH   9  17
HETATM   17  N2  UNL     1      20.942   2.521  51.813  1.00  0.00    -0.385 N 
HETATM   18  H17 UNL     1      20.433   3.265  52.355  1.00  0.00     0.160 HD
BRANCH  17  19
HETATM   19  C15 UNL     1      20.463   1.947  50.586  1.00  0.00     0.073 C 
HETATM   20  C16 UNL     1      19.756   0.604  50.804  1.00  0.00     0.031 C 
HETATM   21  C17 UNL     1      21.628   1.640  49.655  1.00  0.00     0.031 C 
ENDBRANCH  17  19
ENDBRANCH   9  17
TORSDOF 6
ENDMDL
MODEL 6
REMARK VINA RESULT:      -6.0      2.300      5.873
REMARK  6 active torsions:
REMARK  status: ('A' for Active; 'I' for Inactive)
REMARK    1  A    between atoms: C3_3  and  C4_4 
REMARK    2  A    between atoms: C4_4  and  N1_5 
REMARK    3  A    between atoms: N1_5  and  C5_6 
REMARK    4  A    between atoms: C5_6  and  C6_7 
REMARK    5  A    between atoms: C14_16  and  N2_17 
REMARK    6  A    between atoms: N2_17  and  C15_18 
ROOT
HETATM    1  C5  UNL     1      21.827   1.370  50.832  1.00  0.00     0.077 C 
HETATM    2  C7  UNL     1      21.603  -0.062  51.256  1.00  0.00     0.038 C 
HETATM    3  C8  UNL     1      22.192  -0.393  52.582  1.00  0.00     0.007 C 
HETATM    4  C9  UNL     1      22.780   0.752  53.337  1.00  0.00     0.042 C 
HETATM    5  C10 UNL     1      23.634   1.597  52.460  1.00  0.00    -0.022 A 
HETATM    6  C11 UNL     1      23.138   1.870  51.264  1.00  0.00    -0.012 A 
HETATM    7  C12 UNL     1      24.353   2.655  50.952  1.00  0.00    -0.026 A 
HETATM    8  C13 UNL     1      24.818   3.433  49.767  1.00  0.00     0.051 C 
HETATM    9  C14 UNL     1      24.833   2.370  52.154  1.00  0.00     0.042 A 
ENDROOT
BRANCH   1  10
HETATM   10  N1  UNL     1      20.831   2.220  51.494  1.00  0.00    -0.423 NA
BRANCH  10  11
HETATM   11  C4  UNL     1      19.586   1.895  51.529  1.00  0.00     0.317 C 
BRANCH  11  12
HETATM   12  C3  UNL     1      18.268   1.294  51.365  1.00  0.00    -0.002 C 
HETATM   13  C2  UNL     1      17.962   0.032  51.587  1.00  0.00    -0.033 C 
HETATM   14  C1  UNL     1      16.520  -0.156  51.298  1.00  0.00     0.036 C 
ENDBRANCH  11  12
ENDBRANCH  10  11
ENDBRANCH   1  10
BRANCH   1  15
HETATM   15  C6  UNL     1      21.683   1.512  49.356  1.00  0.00     0.426 C 
HETATM   16  O1  UNL     1      21.493   0.747  48.419  1.00  0.00    -0.427 OA
ENDBRANCH   1  15
BRANCH   9  17
HETATM   17  N2  UNL     1      26.025   2.704  52.818  1.00  0.00    -0.385 N 
HETATM   18  H17 UNL     1      25.967   3.427  53.580  1.00  0.00     0.160 HD
BRANCH  17  19
HETATM   19  C15 UNL     1      27.239   2.045  52.422  1.00  0.00     0.073 C 
HETATM   20  C16 UNL     1      27.098   0.518  52.403  1.00  0.00     0.031 C 
HETATM   21  C17 UNL     1      28.348   2.332  53.424  1.00  0.00     0.031 C 
ENDBRANCH  17  19
ENDBRANCH   9  17
TORSDOF 6
ENDMDL
MODEL 7
REMARK VINA RESULT:      -5.9      7.886     11.130
REMARK  6 active torsions:
REMARK  status: ('A' for Active; 'I' for Inactive)
REMARK    1  A    between atoms: C3_3  and  C4_4 
REMARK    2  A    between atoms: C4_4  and  N1_5 
REMARK    3  A    between atoms: N1_5  and  C5_6 
REMARK    4  A    between atoms: C5_6  and  C6_7 
REMARK    5  A    between atoms: C14_16  and  N2_17 
REMARK    6  A    between atoms: N2_17  and  C15_18 
ROOT
HETATM    1  C5  UNL     1      34.012   5.081  47.379  1.00  0.00     0.077 C 
HETATM    2  C7  UNL     1      34.243   3.595  47.524  1.00  0.00     0.038 C 
HETATM    3  C8  UNL     1      33.008   2.779  47.367  1.00  0.00     0.007 C 
HETATM    4  C9  UNL     1      31.781   3.525  46.962  1.00  0.00     0.042 C 
HETATM    5  C10 UNL     1      31.618   4.771  47.758  1.00  0.00    -0.022 A 
HETATM    6  C11 UNL     1      32.715   5.489  47.935  1.00  0.00    -0.012 A 
HETATM    7  C12 UNL     1      31.933   6.472  48.717  1.00  0.00    -0.026 A 
HETATM    8  C13 UNL     1      32.260   7.749  49.415  1.00  0.00     0.051 C 
HETATM    9  C14 UNL     1      30.845   5.738  48.529  1.00  0.00     0.042 A 
ENDROOT
BRANCH   1  10
HETATM   10  N1  UNL     1      33.963   5.415  45.952  1.00  0.00    -0.423 NA
BRANCH  10  11
HETATM   11  C4  UNL     1      33.635   6.592  45.547  1.00  0.00     0.317 C 
BRANCH  11  12
HETATM   12  C3  UNL     1      33.161   7.962  45.394  1.00  0.00    -0.002 C 
HETATM   13  C2  UNL     1      31.905   8.356  45.456  1.00  0.00    -0.033 C 
HETATM   14  C1  UNL     1      31.867   9.825  45.249  1.00  0.00     0.036 C 
ENDBRANCH  11  12
ENDBRANCH  10  11
ENDBRANCH   1  10
BRANCH   1  15
HETATM   15  C6  UNL     1      35.113   5.851  48.023  1.00  0.00     0.426 C 
HETATM   16  O1  UNL     1      35.521   6.003  49.167  1.00  0.00    -0.427 OA
ENDBRANCH   1  15
BRANCH   9  17
HETATM   17  N2  UNL     1      29.507   5.881  48.933  1.00  0.00    -0.385 N 
HETATM   18  H17 UNL     1      29.302   5.806  49.962  1.00  0.00     0.160 HD
BRANCH  17  19
HETATM   19  C15 UNL     1      28.508   6.118  47.927  1.00  0.00     0.073 C 
HETATM   20  C16 UNL     1      28.699   7.463  47.217  1.00  0.00     0.031 C 
HETATM   21  C17 UNL     1      27.126   6.191  48.561  1.00  0.00     0.031 C 
ENDBRANCH  17  19
ENDBRANCH   9  17
TORSDOF 6
ENDMDL
MODEL 8
REMARK VINA RESULT:      -5.9      2.562      7.026
REMARK  6 active torsions:
REMARK  status: ('A' for Active; 'I' for Inactive)
REMARK    1  A    between atoms: C3_3  and  C4_4 
REMARK    2  A    between atoms: C4_4  and  N1_5 
REMARK    3  A    between atoms: N1_5  and  C5_6 
REMARK    4  A    between atoms: C5_6  and  C6_7 
REMARK    5  A    between atoms: C14_16  and  N2_17 
REMARK    6  A    between atoms: N2_17  and  C15_18 
ROOT
HETATM    1  C5  UNL     1      24.904   2.975  51.559  1.00  0.00     0.077 C 
HETATM    2  C7  UNL     1      24.423   3.407  52.924  1.00  0.00     0.038 C 
HETATM    3  C8  UNL     1      23.488   4.565  52.890  1.00  0.00     0.007 C 
HETATM    4  C9  UNL     1      23.068   5.024  51.533  1.00  0.00     0.042 C 
HETATM    5  C10 UNL     1      24.232   5.125  50.613  1.00  0.00    -0.022 A 
HETATM    6  C11 UNL     1      25.091   4.120  50.657  1.00  0.00    -0.012 A 
HETATM    7  C12 UNL     1      25.905   4.783  49.615  1.00  0.00    -0.026 A 
HETATM    8  C13 UNL     1      27.175   4.445  48.910  1.00  0.00     0.051 C 
HETATM    9  C14 UNL     1      25.034   5.782  49.585  1.00  0.00     0.042 A 
ENDROOT
BRANCH   1  10
HETATM   10  N1  UNL     1      23.875   2.135  50.939  1.00  0.00    -0.423 NA
BRANCH  10  11
HETATM   11  C4  UNL     1      23.257   1.225  51.607  1.00  0.00     0.317 C 
BRANCH  11  12
HETATM   12  C3  UNL     1      22.678   0.350  52.620  1.00  0.00    -0.002 C 
HETATM   13  C2  UNL     1      23.331  -0.219  53.612  1.00  0.00    -0.033 C 
HETATM   14  C1  UNL     1      22.368  -1.022  54.404  1.00  0.00     0.036 C 
ENDBRANCH  11  12
ENDBRANCH  10  11
ENDBRANCH   1  10
BRANCH   1  15
HETATM   15  C6  UNL     1      26.169   2.196  51.669  1.00  0.00     0.426 C 
HETATM   16  O1  UNL     1      27.354   2.468  51.814  1.00  0.00    -0.427 OA
ENDBRANCH   1  15
BRANCH   9  17
HETATM   17  N2  UNL     1      24.959   6.972  48.843  1.00  0.00    -0.385 N 
HETATM   18  H17 UNL     1      24.801   6.886  47.807  1.00  0.00     0.160 HD
BRANCH  17  19
HETATM   19  C15 UNL     1      25.102   8.223  49.536  1.00  0.00     0.073 C 
HETATM   20  C16 UNL     1      24.987   9.429  48.597  1.00  0.00     0.031 C 
HETATM   21  C17 UNL     1      26.488   8.329  50.156  1.00  0.00     0.031 C 
ENDBRANCH  17  19
ENDBRANCH   9  17
TORSDOF 6
ENDMDL
MODEL 9
REMARK VINA RESULT:      -5.8      2.093      3.119
REMARK  6 active torsions:
REMARK  status: ('A' for Active; 'I' for Inactive)
REMARK    1  A    between atoms: C3_3  and  C4_4 
REMARK    2  A    between atoms: C4_4  and  N1_5 
REMARK    3  A    between atoms: N1_5  and  C5_6 
REMARK    4  A    between atoms: C5_6  and  C6_7 
REMARK    5  A    between atoms: C14_16  and  N2_17 
REMARK    6  A    between atoms: N2_17  and  C15_18 
ROOT
HETATM    1  C5  UNL     1      23.746   2.944  50.895  1.00  0.00     0.077 C 
HETATM    2  C7  UNL     1      23.342   2.851  49.442  1.00  0.00     0.038 C 
HETATM    3  C8  UNL     1      22.117   2.036  49.214  1.00  0.00     0.007 C 
HETATM    4  C9  UNL     1      21.412   1.561  50.440  1.00  0.00     0.042 C 
HETATM    5  C10 UNL     1      22.369   0.999  51.430  1.00  0.00    -0.022 A 
HETATM    6  C11 UNL     1      23.478   1.694  51.619  1.00  0.00    -0.012 A 
HETATM    7  C12 UNL     1      23.927   0.692  52.610  1.00  0.00    -0.026 A 
HETATM    8  C13 UNL     1      25.138   0.539  53.467  1.00  0.00     0.051 C 
HETATM    9  C14 UNL     1      22.809   0.008  52.407  1.00  0.00     0.042 A 
ENDROOT
BRANCH   1  10
HETATM   10  N1  UNL     1      22.931   3.973  51.548  1.00  0.00    -0.423 NA
BRANCH  10  11
HETATM   11  C4  UNL     1      23.010   5.212  51.207  1.00  0.00     0.317 C 
BRANCH  11  12
HETATM   12  C3  UNL     1      23.327   6.506  50.617  1.00  0.00    -0.002 C 
HETATM   13  C2  UNL     1      24.419   7.209  50.839  1.00  0.00    -0.033 C 
HETATM   14  C1  UNL     1      24.340   8.458  50.042  1.00  0.00     0.036 C 
ENDBRANCH  11  12
ENDBRANCH  10  11
ENDBRANCH   1  10
BRANCH   1  15
HETATM   15  C6  UNL     1      25.185   3.312  51.018  1.00  0.00     0.426 C 
HETATM   16  O1  UNL     1      26.251   2.771  50.753  1.00  0.00    -0.427 OA
ENDBRANCH   1  15
BRANCH   9  17
HETATM   17  N2  UNL     1      22.301  -1.186  52.945  1.00  0.00    -0.385 N 
HETATM   18  H17 UNL     1      22.426  -2.063  52.377  1.00  0.00     0.160 HD
BRANCH  17  19
HETATM   19  C15 UNL     1      21.647  -1.140  54.224  1.00  0.00     0.073 C 
HETATM   20  C16 UNL     1      20.955   0.203  54.480  1.00  0.00     0.031 C 
HETATM   21  C17 UNL     1      22.667  -1.285  55.344  1.00  0.00     0.031 C 
ENDBRANCH  17  19
ENDBRANCH   9  17
TORSDOF 6
ENDMDL
