MODEL 1
REMARK VINA RESULT:      -6.8      0.000      0.000
REMARK  5 active torsions:
REMARK  status: ('A' for Active; 'I' for Inactive)
REMARK    1  A    between atoms: N1_2  and  C3_4 
REMARK    2  A    between atoms: C3_4  and  C4_5 
REMARK    3  A    between atoms: C5_6  and  C6_7 
REMARK       I    between atoms: C6_7  and  N2_9 
REMARK    4  A    between atoms: N2_9  and  C7_10 
REMARK    5  A    between atoms: C10_13  and  N3_14 
ROOT
HETATM    1  C7  UNL     1      24.017   1.173  53.159  1.00  0.00     0.018 C 
HETATM    2  C8  UNL     1      24.990   0.202  53.247  1.00  0.00     0.049 C 
HETATM    3  C9  UNL     1      25.940  -0.898  53.308  1.00  0.00     0.065 C 
HETATM    4  C10 UNL     1      27.191  -0.197  52.657  1.00  0.00     0.011 C 
HETATM    5  C13 UNL     1      26.096   0.517  52.036  1.00  0.00     0.049 C 
HETATM    6  C14 UNL     1      25.288   1.370  51.507  1.00  0.00     0.026 C 
HETATM    7  C15 UNL     1      25.201   2.794  51.197  1.00  0.00     0.174 C 
HETATM    8  O2  UNL     1      24.043   3.201  52.026  1.00  0.00    -0.385 OA
HETATM    9  C16 UNL     1      24.366   2.618  53.339  1.00  0.00     0.220 C 
ENDROOT
BRANCH   1  10
HETATM   10  N2  UNL     1      22.649   1.162  52.808  1.00  0.00    -0.328 N 
HETATM   11  C6  UNL     1      21.193   1.090  52.625  1.00  0.00     0.245 C 
HETATM   12  O1  UNL     1      21.217   0.723  53.783  1.00  0.00    -0.268 OA
HETATM   13  H11 UNL     1      23.137   1.369  51.843  1.00  0.00     0.168 HD
BRANCH  11  14
HETATM   14  C5  UNL     1      20.790   1.485  51.258  1.00  0.00     0.072 C 
HETATM   15  C4  UNL     1      21.596   0.950  50.342  1.00  0.00     0.008 C 
BRANCH  15  16
HETATM   16  C3  UNL     1      21.511   1.119  48.845  1.00  0.00     0.299 C 
BRANCH  16  17
HETATM   17  N1  UNL     1      21.422   2.558  48.616  1.00  0.00     0.083 N 
HETATM   18  C1  UNL     1      20.478   2.850  47.578  1.00  0.00     0.309 C 
HETATM   19  C2  UNL     1      22.746   3.025  48.306  1.00  0.00     0.309 C 
ENDBRANCH  16  17
ENDBRANCH  15  16
ENDBRANCH  11  14
ENDBRANCH   1  10
BRANCH   4  20
HETATM   20  N3  UNL     1      28.354  -0.570  53.150  1.00  0.00    -0.283 N 
HETATM   21  C11 UNL     1      29.208   0.451  53.604  1.00  0.00     0.122 A 
HETATM   22  C12 UNL     1      30.117  -0.519  53.798  1.00  0.00     0.110 A 
HETATM   23 CL1  UNL     1      29.405  -2.026  53.320  1.00  0.00    -0.073 Cl
ENDBRANCH   4  20
TORSDOF 5
ENDMDL
MODEL 2
REMARK VINA RESULT:      -6.4      3.700      6.059
REMARK  5 active torsions:
REMARK  status: ('A' for Active; 'I' for Inactive)
REMARK    1  A    between atoms: N1_2  and  C3_4 
REMARK    2  A    between atoms: C3_4  and  C4_5 
REMARK    3  A    between atoms: C5_6  and  C6_7 
REMARK       I    between atoms: C6_7  and  N2_9 
REMARK    4  A    between atoms: N2_9  and  C7_10 
REMARK    5  A    between atoms: C10_13  and  N3_14 
ROOT
HETATM    1  C7  UNL     1      24.503   3.490  51.116  1.00  0.00     0.018 C 
HETATM    2  C8  UNL     1      25.608   3.740  50.333  1.00  0.00     0.049 C 
HETATM    3  C9  UNL     1      26.771   3.898  49.473  1.00  0.00     0.065 C 
HETATM    4  C10 UNL     1      26.442   5.306  48.848  1.00  0.00     0.011 C 
HETATM    5  C13 UNL     1      25.119   4.794  49.132  1.00  0.00     0.049 C 
HETATM    6  C14 UNL     1      23.886   4.598  49.450  1.00  0.00     0.026 C 
HETATM    7  C15 UNL     1      22.726   5.327  49.956  1.00  0.00     0.174 C 
HETATM    8  O2  UNL     1      22.483   4.630  51.240  1.00  0.00    -0.385 OA
HETATM    9  C16 UNL     1      23.823   4.603  51.851  1.00  0.00     0.220 C 
ENDROOT
BRANCH   1  10
HETATM   10  N2  UNL     1      23.705   2.348  51.349  1.00  0.00    -0.328 N 
HETATM   11  C6  UNL     1      22.792   1.199  51.420  1.00  0.00     0.245 C 
HETATM   12  O1  UNL     1      22.421   1.619  50.341  1.00  0.00    -0.268 OA
HETATM   13  H11 UNL     1      24.238   2.461  52.305  1.00  0.00     0.168 HD
BRANCH  11  14
HETATM   14  C5  UNL     1      22.975   0.427  52.668  1.00  0.00     0.072 C 
HETATM   15  C4  UNL     1      24.265   0.223  52.927  1.00  0.00     0.008 C 
BRANCH  15  16
HETATM   16  C3  UNL     1      24.852  -0.519  54.102  1.00  0.00     0.299 C 
BRANCH  16  17
HETATM   17  N1  UNL     1      26.290  -0.572  53.855  1.00  0.00     0.083 N 
HETATM   18  C1  UNL     1      26.997   0.246  54.795  1.00  0.00     0.309 C 
HETATM   19  C2  UNL     1      26.506  -0.163  52.494  1.00  0.00     0.309 C 
ENDBRANCH  16  17
ENDBRANCH  15  16
ENDBRANCH  11  14
ENDBRANCH   1  10
BRANCH   4  20
HETATM   20  N3  UNL     1      27.493   6.065  48.611  1.00  0.00    -0.283 N 
HETATM   21  C11 UNL     1      27.340   7.446  48.828  1.00  0.00     0.122 A 
HETATM   22  C12 UNL     1      28.576   7.573  48.316  1.00  0.00     0.110 A 
HETATM   23 CL1  UNL     1      29.145   5.991  47.892  1.00  0.00    -0.073 Cl
ENDBRANCH   4  20
TORSDOF 5
ENDMDL
MODEL 3
REMARK VINA RESULT:      -6.3      1.843      2.336
REMARK  5 active torsions:
REMARK  status: ('A' for Active; 'I' for Inactive)
REMARK    1  A    between atoms: N1_2  and  C3_4 
REMARK    2  A    between atoms: C3_4  and  C4_5 
REMARK    3  A    between atoms: C5_6  and  C6_7 
REMARK       I    between atoms: C6_7  and  N2_9 
REMARK    4  A    between atoms: N2_9  and  C7_10 
REMARK    5  A    between atoms: C10_13  and  N3_14 
ROOT
HETATM    1  C7  UNL     1      24.115   1.343  53.185  1.00  0.00     0.018 C 
HETATM    2  C8  UNL     1      25.003   0.292  53.246  1.00  0.00     0.049 C 
HETATM    3  C9  UNL     1      25.857  -0.885  53.278  1.00  0.00     0.065 C 
HETATM    4  C10 UNL     1      27.162  -0.275  52.640  1.00  0.00     0.011 C 
HETATM    5  C13 UNL     1      26.130   0.543  52.039  1.00  0.00     0.049 C 
HETATM    6  C14 UNL     1      25.395   1.472  51.533  1.00  0.00     0.026 C 
HETATM    7  C15 UNL     1      25.427   2.906  51.258  1.00  0.00     0.174 C 
HETATM    8  O2  UNL     1      24.308   3.389  52.100  1.00  0.00    -0.385 OA
HETATM    9  C16 UNL     1      24.583   2.749  53.398  1.00  0.00     0.220 C 
ENDROOT
BRANCH   1  10
HETATM   10  N2  UNL     1      22.750   1.455  52.838  1.00  0.00    -0.328 N 
HETATM   11  C6  UNL     1      21.334   1.378  52.457  1.00  0.00     0.245 C 
HETATM   12  O1  UNL     1      21.573   0.189  52.383  1.00  0.00    -0.268 OA
HETATM   13  H11 UNL     1      23.064   2.508  52.899  1.00  0.00     0.168 HD
BRANCH  11  14
HETATM   14  C5  UNL     1      20.696   2.713  52.436  1.00  0.00     0.072 C 
HETATM   15  C4  UNL     1      19.654   2.739  51.606  1.00  0.00     0.008 C 
BRANCH  15  16
HETATM   16  C3  UNL     1      18.754   3.913  51.313  1.00  0.00     0.299 C 
BRANCH  16  17
HETATM   17  N1  UNL     1      17.520   3.340  50.784  1.00  0.00     0.083 N 
HETATM   18  C1  UNL     1      16.481   3.371  51.770  1.00  0.00     0.309 C 
HETATM   19  C2  UNL     1      17.823   2.005  50.343  1.00  0.00     0.309 C 
ENDBRANCH  16  17
ENDBRANCH  15  16
ENDBRANCH  11  14
ENDBRANCH   1  10
BRANCH   4  20
HETATM   20  N3  UNL     1      28.290  -0.756  53.121  1.00  0.00    -0.283 N 
HETATM   21  C11 UNL     1      29.209   0.176  53.636  1.00  0.00     0.122 A 
HETATM   22  C12 UNL     1      30.046  -0.865  53.783  1.00  0.00     0.110 A 
HETATM   23 CL1  UNL     1      29.235  -2.289  53.218  1.00  0.00    -0.073 Cl
ENDBRANCH   4  20
TORSDOF 5
ENDMDL
MODEL 4
REMARK VINA RESULT:      -6.3      4.283      6.441
REMARK  5 active torsions:
REMARK  status: ('A' for Active; 'I' for Inactive)
REMARK    1  A    between atoms: N1_2  and  C3_4 
REMARK    2  A    between atoms: C3_4  and  C4_5 
REMARK    3  A    between atoms: C5_6  and  C6_7 
REMARK       I    between atoms: C6_7  and  N2_9 
REMARK    4  A    between atoms: N2_9  and  C7_10 
REMARK    5  A    between atoms: C10_13  and  N3_14 
ROOT
HETATM    1  C7  UNL     1      24.317   2.943  50.466  1.00  0.00     0.018 C 
HETATM    2  C8  UNL     1      24.290   1.894  51.358  1.00  0.00     0.049 C 
HETATM    3  C9  UNL     1      24.373   0.791  52.304  1.00  0.00     0.065 C 
HETATM    4  C10 UNL     1      23.182   1.179  53.259  1.00  0.00     0.011 C 
HETATM    5  C13 UNL     1      23.594   2.474  52.762  1.00  0.00     0.049 C 
HETATM    6  C14 UNL     1      23.693   3.681  52.322  1.00  0.00     0.026 C 
HETATM    7  C15 UNL     1      22.851   4.816  51.955  1.00  0.00     0.174 C 
HETATM    8  O2  UNL     1      23.177   4.966  50.517  1.00  0.00    -0.385 OA
HETATM    9  C16 UNL     1      23.045   3.589  50.012  1.00  0.00     0.220 C 
ENDROOT
BRANCH   1  10
HETATM   10  N2  UNL     1      25.351   3.708  49.884  1.00  0.00    -0.328 N 
HETATM   11  C6  UNL     1      26.537   4.345  49.295  1.00  0.00     0.245 C 
HETATM   12  O1  UNL     1      27.036   3.254  49.492  1.00  0.00    -0.268 OA
HETATM   13  H11 UNL     1      24.563   4.460  50.041  1.00  0.00     0.168 HD
BRANCH  11  14
HETATM   14  C5  UNL     1      26.278   5.753  48.922  1.00  0.00     0.072 C 
HETATM   15  C4  UNL     1      27.387   6.352  48.492  1.00  0.00     0.008 C 
BRANCH  15  16
HETATM   16  C3  UNL     1      27.528   7.780  48.025  1.00  0.00     0.299 C 
BRANCH  16  17
HETATM   17  N1  UNL     1      28.331   8.449  49.045  1.00  0.00     0.083 N 
HETATM   18  C1  UNL     1      27.495   9.181  49.950  1.00  0.00     0.309 C 
HETATM   19  C2  UNL     1      29.275   9.291  48.362  1.00  0.00     0.309 C 
ENDBRANCH  16  17
ENDBRANCH  15  16
ENDBRANCH  11  14
ENDBRANCH   1  10
BRANCH   4  20
HETATM   20  N3  UNL     1      22.518   0.157  53.759  1.00  0.00    -0.283 N 
HETATM   21  C11 UNL     1      21.135   0.115  53.509  1.00  0.00     0.122 A 
HETATM   22  C12 UNL     1      21.111  -0.954  54.324  1.00  0.00     0.110 A 
HETATM   23 CL1  UNL     1      22.728  -1.239  54.881  1.00  0.00    -0.073 Cl
ENDBRANCH   4  20
TORSDOF 5
ENDMDL
MODEL 5
REMARK VINA RESULT:      -6.3      3.362      4.593
REMARK  5 active torsions:
REMARK  status: ('A' for Active; 'I' for Inactive)
REMARK    1  A    between atoms: N1_2  and  C3_4 
REMARK    2  A    between atoms: C3_4  and  C4_5 
REMARK    3  A    between atoms: C5_6  and  C6_7 
REMARK       I    between atoms: C6_7  and  N2_9 
REMARK    4  A    between atoms: N2_9  and  C7_10 
REMARK    5  A    between atoms: C10_13  and  N3_14 
ROOT
HETATM    1  C7  UNL     1      24.451   2.728  51.880  1.00  0.00     0.018 C 
HETATM    2  C8  UNL     1      25.436   2.965  50.946  1.00  0.00     0.049 C 
HETATM    3  C9  UNL     1      26.471   3.106  49.934  1.00  0.00     0.065 C 
HETATM    4  C10 UNL     1      26.004   4.457  49.272  1.00  0.00     0.011 C 
HETATM    5  C13 UNL     1      24.752   3.918  49.757  1.00  0.00     0.049 C 
HETATM    6  C14 UNL     1      23.579   3.699  50.244  1.00  0.00     0.026 C 
HETATM    7  C15 UNL     1      22.462   4.418  50.850  1.00  0.00     0.174 C 
HETATM    8  O2  UNL     1      22.415   3.801  52.196  1.00  0.00    -0.385 OA
HETATM    9  C16 UNL     1      23.822   3.862  52.628  1.00  0.00     0.220 C 
ENDROOT
BRANCH   1  10
HETATM   10  N2  UNL     1      23.741   1.577  52.285  1.00  0.00    -0.328 N 
HETATM   11  C6  UNL     1      23.174   0.306  52.758  1.00  0.00     0.245 C 
HETATM   12  O1  UNL     1      24.337   0.051  53.001  1.00  0.00    -0.268 OA
HETATM   13  H11 UNL     1      22.959   2.173  51.792  1.00  0.00     0.168 HD
BRANCH  11  14
HETATM   14  C5  UNL     1      21.704   0.266  52.598  1.00  0.00     0.072 C 
HETATM   15  C4  UNL     1      21.342   0.589  51.358  1.00  0.00     0.008 C 
BRANCH  15  16
HETATM   16  C3  UNL     1      19.939   0.661  50.809  1.00  0.00     0.299 C 
BRANCH  16  17
HETATM   17  N1  UNL     1      20.074   1.189  49.454  1.00  0.00     0.083 N 
HETATM   18  C1  UNL     1      21.419   1.039  48.982  1.00  0.00     0.309 C 
HETATM   19  C2  UNL     1      19.650   2.562  49.485  1.00  0.00     0.309 C 
ENDBRANCH  16  17
ENDBRANCH  15  16
ENDBRANCH  11  14
ENDBRANCH   1  10
BRANCH   4  20
HETATM   20  N3  UNL     1      26.981   5.235  48.854  1.00  0.00    -0.283 N 
HETATM   21  C11 UNL     1      26.655   6.579  48.595  1.00  0.00     0.122 A 
HETATM   22  C12 UNL     1      27.912   6.702  48.136  1.00  0.00     0.110 A 
HETATM   23 CL1  UNL     1      28.692   5.160  48.288  1.00  0.00    -0.073 Cl
ENDBRANCH   4  20
TORSDOF 5
ENDMDL
MODEL 6
REMARK VINA RESULT:      -6.2      2.096      3.187
REMARK  5 active torsions:
REMARK  status: ('A' for Active; 'I' for Inactive)
REMARK    1  A    between atoms: N1_2  and  C3_4 
REMARK    2  A    between atoms: C3_4  and  C4_5 
REMARK    3  A    between atoms: C5_6  and  C6_7 
REMARK       I    between atoms: C6_7  and  N2_9 
REMARK    4  A    between atoms: N2_9  and  C7_10 
REMARK    5  A    between atoms: C10_13  and  N3_14 
ROOT
HETATM    1  C7  UNL     1      23.898   2.266  51.089  1.00  0.00     0.018 C 
HETATM    2  C8  UNL     1      24.934   1.496  51.572  1.00  0.00     0.049 C 
HETATM    3  C9  UNL     1      25.999   0.606  52.007  1.00  0.00     0.065 C 
HETATM    4  C10 UNL     1      27.162   1.654  52.172  1.00  0.00     0.011 C 
HETATM    5  C13 UNL     1      26.350   2.274  51.148  1.00  0.00     0.049 C 
HETATM    6  C14 UNL     1      25.694   3.059  50.363  1.00  0.00     0.026 C 
HETATM    7  C15 UNL     1      25.380   4.476  50.196  1.00  0.00     0.174 C 
HETATM    8  O2  UNL     1      23.906   4.465  50.341  1.00  0.00    -0.385 OA
HETATM    9  C16 UNL     1      23.708   3.672  51.566  1.00  0.00     0.220 C 
ENDROOT
BRANCH   1  10
HETATM   10  N2  UNL     1      22.926   2.081  50.081  1.00  0.00    -0.328 N 
HETATM   11  C6  UNL     1      22.055   1.937  48.907  1.00  0.00     0.245 C 
HETATM   12  O1  UNL     1      23.061   2.264  48.308  1.00  0.00    -0.268 OA
HETATM   13  H11 UNL     1      22.331   1.983  51.002  1.00  0.00     0.168 HD
BRANCH  11  14
HETATM   14  C5  UNL     1      20.684   1.532  49.285  1.00  0.00     0.072 C 
HETATM   15  C4  UNL     1      20.662   0.956  50.486  1.00  0.00     0.008 C 
BRANCH  15  16
HETATM   16  C3  UNL     1      19.457   0.412  51.212  1.00  0.00     0.299 C 
BRANCH  16  17
HETATM   17  N1  UNL     1      19.666   0.740  52.620  1.00  0.00     0.083 N 
HETATM   18  C1  UNL     1      20.360   1.986  52.753  1.00  0.00     0.309 C 
HETATM   19  C2  UNL     1      20.382  -0.357  53.213  1.00  0.00     0.309 C 
ENDBRANCH  16  17
ENDBRANCH  15  16
ENDBRANCH  11  14
ENDBRANCH   1  10
BRANCH   4  20
HETATM   20  N3  UNL     1      28.000   1.402  53.157  1.00  0.00    -0.283 N 
HETATM   21  C11 UNL     1      28.693   2.499  53.698  1.00  0.00     0.122 A 
HETATM   22  C12 UNL     1      29.364   1.598  54.435  1.00  0.00     0.110 A 
HETATM   23 CL1  UNL     1      28.767   0.022  54.029  1.00  0.00    -0.073 Cl
ENDBRANCH   4  20
TORSDOF 5
ENDMDL
MODEL 7
REMARK VINA RESULT:      -6.1      3.453      5.577
REMARK  5 active torsions:
REMARK  status: ('A' for Active; 'I' for Inactive)
REMARK    1  A    between atoms: N1_2  and  C3_4 
REMARK    2  A    between atoms: C3_4  and  C4_5 
REMARK    3  A    between atoms: C5_6  and  C6_7 
REMARK       I    between atoms: C6_7  and  N2_9 
REMARK    4  A    between atoms: N2_9  and  C7_10 
REMARK    5  A    between atoms: C10_13  and  N3_14 
ROOT
HETATM    1  C7  UNL     1      22.107   3.687  50.758  1.00  0.00     0.018 C 
HETATM    2  C8  UNL     1      23.399   4.165  50.762  1.00  0.00     0.049 C 
HETATM    3  C9  UNL     1      24.775   4.623  50.867  1.00  0.00     0.065 C 
HETATM    4  C10 UNL     1      25.260   4.324  49.399  1.00  0.00     0.011 C 
HETATM    5  C13 UNL     1      24.225   3.329  49.575  1.00  0.00     0.049 C 
HETATM    6  C14 UNL     1      23.248   2.496  49.469  1.00  0.00     0.026 C 
HETATM    7  C15 UNL     1      22.263   2.037  48.493  1.00  0.00     0.174 C 
HETATM    8  O2  UNL     1      20.996   2.424  49.156  1.00  0.00    -0.385 OA
HETATM    9  C16 UNL     1      21.248   3.823  49.540  1.00  0.00     0.220 C 
ENDROOT
BRANCH   1  10
HETATM   10  N2  UNL     1      21.337   2.934  51.672  1.00  0.00    -0.328 N 
HETATM   11  C6  UNL     1      20.422   2.308  52.637  1.00  0.00     0.245 C 
HETATM   12  O1  UNL     1      19.858   3.382  52.571  1.00  0.00    -0.268 OA
HETATM   13  H11 UNL     1      22.206   2.280  51.503  1.00  0.00     0.168 HD
BRANCH  11  14
HETATM   14  C5  UNL     1      20.831   0.925  52.965  1.00  0.00     0.072 C 
HETATM   15  C4  UNL     1      22.157   0.806  52.998  1.00  0.00     0.008 C 
BRANCH  15  16
HETATM   16  C3  UNL     1      22.952  -0.441  53.295  1.00  0.00     0.299 C 
BRANCH  16  17
HETATM   17  N1  UNL     1      24.351  -0.073  53.092  1.00  0.00     0.083 N 
HETATM   18  C1  UNL     1      25.165  -0.562  54.165  1.00  0.00     0.309 C 
HETATM   19  C2  UNL     1      24.403   1.359  52.968  1.00  0.00     0.309 C 
ENDBRANCH  16  17
ENDBRANCH  15  16
ENDBRANCH  11  14
ENDBRANCH   1  10
BRANCH   4  20
HETATM   20  N3  UNL     1      26.132   5.187  48.918  1.00  0.00    -0.283 N 
HETATM   21  C11 UNL     1      27.447   4.725  48.734  1.00  0.00     0.122 A 
HETATM   22  C12 UNL     1      27.753   5.992  48.410  1.00  0.00     0.110 A 
HETATM   23 CL1  UNL     1      26.306   6.940  48.530  1.00  0.00    -0.073 Cl
ENDBRANCH   4  20
TORSDOF 5
ENDMDL
MODEL 8
REMARK VINA RESULT:      -6.0      4.599      6.559
REMARK  5 active torsions:
REMARK  status: ('A' for Active; 'I' for Inactive)
REMARK    1  A    between atoms: N1_2  and  C3_4 
REMARK    2  A    between atoms: C3_4  and  C4_5 
REMARK    3  A    between atoms: C5_6  and  C6_7 
REMARK       I    between atoms: C6_7  and  N2_9 
REMARK    4  A    between atoms: N2_9  and  C7_10 
REMARK    5  A    between atoms: C10_13  and  N3_14 
ROOT
HETATM    1  C7  UNL     1      25.062   4.620  49.984  1.00  0.00     0.018 C 
HETATM    2  C8  UNL     1      26.277   4.849  49.376  1.00  0.00     0.049 C 
HETATM    3  C9  UNL     1      27.545   4.995  48.679  1.00  0.00     0.065 C 
HETATM    4  C10 UNL     1      27.479   6.532  48.341  1.00  0.00     0.011 C 
HETATM    5  C13 UNL     1      26.076   6.180  48.388  1.00  0.00     0.049 C 
HETATM    6  C14 UNL     1      24.799   6.115  48.543  1.00  0.00     0.026 C 
HETATM    7  C15 UNL     1      23.691   6.897  49.084  1.00  0.00     0.174 C 
HETATM    8  O2  UNL     1      23.206   6.006  50.164  1.00  0.00    -0.385 OA
HETATM    9  C16 UNL     1      24.448   5.655  50.874  1.00  0.00     0.220 C 
ENDROOT
BRANCH   1  10
HETATM   10  N2  UNL     1      24.100   3.589  49.896  1.00  0.00    -0.328 N 
HETATM   11  C6  UNL     1      23.073   2.576  49.621  1.00  0.00     0.245 C 
HETATM   12  O1  UNL     1      23.064   3.099  48.524  1.00  0.00    -0.268 OA
HETATM   13  H11 UNL     1      24.360   3.575  50.965  1.00  0.00     0.168 HD
BRANCH  11  14
HETATM   14  C5  UNL     1      22.813   1.720  50.799  1.00  0.00     0.072 C 
HETATM   15  C4  UNL     1      23.904   1.589  51.552  1.00  0.00     0.008 C 
BRANCH  15  16
HETATM   16  C3  UNL     1      24.038   0.798  52.829  1.00  0.00     0.299 C 
BRANCH  16  17
HETATM   17  N1  UNL     1      25.474   0.637  53.043  1.00  0.00     0.083 N 
HETATM   18  C1  UNL     1      26.217   1.257  51.986  1.00  0.00     0.309 C 
HETATM   19  C2  UNL     1      25.736  -0.772  53.149  1.00  0.00     0.309 C 
ENDBRANCH  16  17
ENDBRANCH  15  16
ENDBRANCH  11  14
ENDBRANCH   1  10
BRANCH   4  20
HETATM   20  N3  UNL     1      28.640   7.154  48.367  1.00  0.00    -0.283 N 
HETATM   21  C11 UNL     1      28.656   8.445  48.926  1.00  0.00     0.122 A 
HETATM   22  C12 UNL     1      29.940   8.502  48.533  1.00  0.00     0.110 A 
HETATM   23 CL1  UNL     1      30.327   7.006  47.746  1.00  0.00    -0.073 Cl
ENDBRANCH   4  20
TORSDOF 5
ENDMDL
MODEL 9
REMARK VINA RESULT:      -5.8      3.561      5.430
REMARK  5 active torsions:
REMARK  status: ('A' for Active; 'I' for Inactive)
REMARK    1  A    between atoms: N1_2  and  C3_4 
REMARK    2  A    between atoms: C3_4  and  C4_5 
REMARK    3  A    between atoms: C5_6  and  C6_7 
REMARK       I    between atoms: C6_7  and  N2_9 
REMARK    4  A    between atoms: N2_9  and  C7_10 
REMARK    5  A    between atoms: C10_13  and  N3_14 
ROOT
HETATM    1  C7  UNL     1      24.244   2.974  50.701  1.00  0.00     0.018 C 
HETATM    2  C8  UNL     1      24.208   1.826  51.461  1.00  0.00     0.049 C 
HETATM    3  C9  UNL     1      24.280   0.608  52.252  1.00  0.00     0.065 C 
HETATM    4  C10 UNL     1      23.263   0.980  53.396  1.00  0.00     0.011 C 
HETATM    5  C13 UNL     1      23.754   2.283  53.002  1.00  0.00     0.049 C 
HETATM    6  C14 UNL     1      23.933   3.522  52.697  1.00  0.00     0.026 C 
HETATM    7  C15 UNL     1      23.184   4.770  52.579  1.00  0.00     0.174 C 
HETATM    8  O2  UNL     1      23.350   5.074  51.138  1.00  0.00    -0.385 OA
HETATM    9  C16 UNL     1      23.007   3.793  50.498  1.00  0.00     0.220 C 
ENDROOT
BRANCH   1  10
HETATM   10  N2  UNL     1      25.279   3.706  50.079  1.00  0.00    -0.328 N 
HETATM   11  C6  UNL     1      26.451   4.298  49.419  1.00  0.00     0.245 C 
HETATM   12  O1  UNL     1      26.855   3.152  49.441  1.00  0.00    -0.268 OA
HETATM   13  H11 UNL     1      24.594   4.502  50.408  1.00  0.00     0.168 HD
BRANCH  11  14
HETATM   14  C5  UNL     1      26.297   5.757  49.229  1.00  0.00     0.072 C 
HETATM   15  C4  UNL     1      25.229   6.039  48.484  1.00  0.00     0.008 C 
BRANCH  15  16
HETATM   16  C3  UNL     1      24.742   7.405  48.071  1.00  0.00     0.299 C 
BRANCH  16  17
HETATM   17  N1  UNL     1      23.299   7.269  47.889  1.00  0.00     0.083 N 
HETATM   18  C1  UNL     1      22.596   7.703  49.060  1.00  0.00     0.309 C 
HETATM   19  C2  UNL     1      23.036   5.894  47.564  1.00  0.00     0.309 C 
ENDBRANCH  16  17
ENDBRANCH  15  16
ENDBRANCH  11  14
ENDBRANCH   1  10
BRANCH   4  20
HETATM   20  N3  UNL     1      22.555  -0.030  53.858  1.00  0.00    -0.283 N 
HETATM   21  C11 UNL     1      21.183  -0.036  53.552  1.00  0.00     0.122 A 
HETATM   22  C12 UNL     1      21.100  -1.112  54.353  1.00  0.00     0.110 A 
HETATM   23 CL1  UNL     1      22.685  -1.442  54.972  1.00  0.00    -0.073 Cl
ENDBRANCH   4  20
TORSDOF 5
ENDMDL
