MODEL 1
REMARK VINA RESULT:      -8.2      0.000      0.000
REMARK  3 active torsions:
REMARK  status: ('A' for Active; 'I' for Inactive)
REMARK    1  A    between atoms: C2_2  and  O1_3 
REMARK    2  A    between atoms: C2_2  and  C4_6 
REMARK    3  A    between atoms: O1_3  and  C3_4 
ROOT
HETATM    1  C4  UNL     1      26.481   2.271  52.413  1.00  0.00    -0.010 C 
HETATM    2  C5  UNL     1      26.714   2.819  51.188  1.00  0.00    -0.007 C 
HETATM    3  C6  UNL     1      26.174   3.249  49.884  1.00  0.00     0.117 C 
HETATM    4  C7  UNL     1      24.937   3.151  49.368  1.00  0.00     0.041 C 
HETATM    5  C8  UNL     1      23.475   2.961  48.915  1.00  0.00     0.018 C 
HETATM    6  C9  UNL     1      22.449   3.164  49.779  1.00  0.00     0.115 C 
HETATM    7  N1  UNL     1      22.324   4.105  50.896  1.00  0.00    -0.261 NA
HETATM    8  C10 UNL     1      23.365   4.628  51.564  1.00  0.00     0.068 C 
HETATM    9  C11 UNL     1      23.761   4.118  52.927  1.00  0.00     0.030 C 
HETATM   10  C12 UNL     1      24.457   3.100  53.507  1.00  0.00    -0.001 C 
HETATM   11  C13 UNL     1      25.005   2.177  52.483  1.00  0.00     0.150 C 
HETATM   12  C14 UNL     1      24.760   0.746  52.872  1.00  0.00     0.072 C 
HETATM   13  N2  UNL     1      24.587  -0.375  53.182  1.00  0.00    -0.196 NA
HETATM   14  C15 UNL     1      24.081   5.734  50.808  1.00  0.00     0.019 A 
HETATM   15  C16 UNL     1      23.850   6.952  51.380  1.00  0.00     0.017 A 
HETATM   16  C17 UNL     1      24.423   8.058  50.810  1.00  0.00     0.020 A 
HETATM   17  C18 UNL     1      25.216   7.986  49.693  1.00  0.00     0.013 A 
HETATM   18 BR1  UNL     1      26.008   9.530  48.907  1.00  0.00    -0.051 Br
HETATM   19  C19 UNL     1      25.474   6.777  49.087  1.00  0.00     0.049 A 
HETATM   20  C20 UNL     1      24.915   5.653  49.634  1.00  0.00     0.042 A 
HETATM   21  N3  UNL     1      25.360   4.479  48.783  1.00  0.00    -0.380 N 
HETATM   22  H14 UNL     1      25.856   4.900  47.994  1.00  0.00     0.160 HD
ENDROOT
BRANCH   1  23
HETATM   23  C2  UNL     1      27.356   1.972  53.516  1.00  0.00     0.064 C 
HETATM   24  C1  UNL     1      28.538   2.525  53.413  1.00  0.00     0.072 C 
BRANCH  23  25
HETATM   25  O1  UNL     1      27.020   1.188  54.590  1.00  0.00    -0.290 OA
BRANCH  25  26
HETATM   26  C3  UNL     1      27.738   0.057  54.912  1.00  0.00     0.403 C 
HETATM   27  O2  UNL     1      28.394  -0.859  54.343  1.00  0.00    -0.276 OA
ENDBRANCH  25  26
ENDBRANCH  23  25
ENDBRANCH   1  23
TORSDOF 3
ENDMDL
MODEL 2
REMARK VINA RESULT:      -8.1      1.280      1.532
REMARK  3 active torsions:
REMARK  status: ('A' for Active; 'I' for Inactive)
REMARK    1  A    between atoms: C2_2  and  O1_3 
REMARK    2  A    between atoms: C2_2  and  C4_6 
REMARK    3  A    between atoms: O1_3  and  C3_4 
ROOT
HETATM    1  C4  UNL     1      25.462   2.113  51.869  1.00  0.00    -0.010 C 
HETATM    2  C5  UNL     1      25.409   2.530  50.572  1.00  0.00    -0.007 C 
HETATM    3  C6  UNL     1      24.597   3.054  49.458  1.00  0.00     0.117 C 
HETATM    4  C7  UNL     1      23.279   3.302  49.368  1.00  0.00     0.041 C 
HETATM    5  C8  UNL     1      21.754   3.529  49.420  1.00  0.00     0.018 C 
HETATM    6  C9  UNL     1      21.167   4.048  50.526  1.00  0.00     0.115 C 
HETATM    7  N1  UNL     1      21.674   5.020  51.499  1.00  0.00    -0.261 NA
HETATM    8  C10 UNL     1      22.976   5.242  51.739  1.00  0.00     0.068 C 
HETATM    9  C11 UNL     1      23.655   4.684  52.964  1.00  0.00     0.030 C 
HETATM   10  C12 UNL     1      24.212   3.528  53.423  1.00  0.00    -0.001 C 
HETATM   11  C13 UNL     1      24.125   2.452  52.405  1.00  0.00     0.150 C 
HETATM   12  C14 UNL     1      23.657   1.167  53.028  1.00  0.00     0.072 C 
HETATM   13  N2  UNL     1      23.310   0.155  53.515  1.00  0.00    -0.196 NA
HETATM   14  C15 UNL     1      23.663   6.068  50.665  1.00  0.00     0.019 A 
HETATM   15  C16 UNL     1      23.964   7.318  51.121  1.00  0.00     0.017 A 
HETATM   16  C17 UNL     1      24.583   8.192  50.267  1.00  0.00     0.020 A 
HETATM   17  C18 UNL     1      24.909   7.857  48.977  1.00  0.00     0.013 A 
HETATM   18 BR1  UNL     1      25.769   9.080  47.797  1.00  0.00    -0.051 Br
HETATM   19  C19 UNL     1      24.623   6.606  48.479  1.00  0.00     0.049 A 
HETATM   20  C20 UNL     1      24.005   5.711  49.310  1.00  0.00     0.042 A 
HETATM   21  N3  UNL     1      23.816   4.430  48.518  1.00  0.00    -0.380 N 
HETATM   22  H14 UNL     1      24.112   4.664  47.567  1.00  0.00     0.160 HD
ENDROOT
BRANCH   1  23
HETATM   23  C2  UNL     1      26.544   1.609  52.673  1.00  0.00     0.064 C 
HETATM   24  C1  UNL     1      26.933   0.406  52.335  1.00  0.00     0.072 C 
BRANCH  23  25
HETATM   25  O1  UNL     1      27.137   2.294  53.702  1.00  0.00    -0.290 OA
BRANCH  25  26
HETATM   26  C3  UNL     1      28.506   2.423  53.792  1.00  0.00     0.403 C 
HETATM   27  O2  UNL     1      29.418   2.393  54.663  1.00  0.00    -0.276 OA
ENDBRANCH  25  26
ENDBRANCH  23  25
ENDBRANCH   1  23
TORSDOF 3
ENDMDL
MODEL 3
REMARK VINA RESULT:      -7.6      6.807      9.214
REMARK  3 active torsions:
REMARK  status: ('A' for Active; 'I' for Inactive)
REMARK    1  A    between atoms: C2_2  and  O1_3 
REMARK    2  A    between atoms: C2_2  and  C4_6 
REMARK    3  A    between atoms: O1_3  and  C3_4 
ROOT
HETATM    1  C4  UNL     1      32.997   7.495  48.186  1.00  0.00    -0.010 C 
HETATM    2  C5  UNL     1      32.197   7.942  49.194  1.00  0.00    -0.007 C 
HETATM    3  C6  UNL     1      31.273   8.977  49.695  1.00  0.00     0.117 C 
HETATM    4  C7  UNL     1      30.876  10.140  49.151  1.00  0.00     0.041 C 
HETATM    5  C8  UNL     1      30.521  11.440  48.401  1.00  0.00     0.018 C 
HETATM    6  C9  UNL     1      30.311  11.434  47.061  1.00  0.00     0.115 C 
HETATM    7  N1  UNL     1      29.745  10.394  46.197  1.00  0.00    -0.261 NA
HETATM    8  C10 UNL     1      29.743   9.084  46.491  1.00  0.00     0.068 C 
HETATM    9  C11 UNL     1      30.719   8.133  45.845  1.00  0.00     0.030 C 
HETATM   10  C12 UNL     1      32.011   7.715  45.959  1.00  0.00    -0.001 C 
HETATM   11  C13 UNL     1      32.704   8.418  47.066  1.00  0.00     0.150 C 
HETATM   12  C14 UNL     1      34.064   8.887  46.630  1.00  0.00     0.072 C 
HETATM   13  N2  UNL     1      35.136   9.238  46.299  1.00  0.00    -0.196 NA
HETATM   14  C15 UNL     1      28.701   8.691  47.523  1.00  0.00     0.019 A 
HETATM   15  C16 UNL     1      27.690   7.970  46.955  1.00  0.00     0.017 A 
HETATM   16  C17 UNL     1      26.664   7.544  47.756  1.00  0.00     0.020 A 
HETATM   17  C18 UNL     1      26.616   7.814  49.100  1.00  0.00     0.013 A 
HETATM   18 BR1  UNL     1      25.183   7.218  50.205  1.00  0.00    -0.051 Br
HETATM   19  C19 UNL     1      27.615   8.537  49.711  1.00  0.00     0.049 A 
HETATM   20  C20 UNL     1      28.655   8.976  48.937  1.00  0.00     0.042 A 
HETATM   21  N3  UNL     1      29.601   9.730  49.852  1.00  0.00    -0.380 N 
HETATM   22  H14 UNL     1      29.117   9.773  50.752  1.00  0.00     0.160 HD
ENDROOT
BRANCH   1  23
HETATM   23  C2  UNL     1      33.833   6.330  48.066  1.00  0.00     0.064 C 
HETATM   24  C1  UNL     1      34.983   6.443  48.681  1.00  0.00     0.072 C 
BRANCH  23  25
HETATM   25  O1  UNL     1      33.493   5.190  47.383  1.00  0.00    -0.290 OA
BRANCH  25  26
HETATM   26  C3  UNL     1      32.385   4.445  47.724  1.00  0.00     0.403 C 
HETATM   27  O2  UNL     1      31.129   4.559  47.773  1.00  0.00    -0.276 OA
ENDBRANCH  25  26
ENDBRANCH  23  25
ENDBRANCH   1  23
TORSDOF 3
ENDMDL
MODEL 4
REMARK VINA RESULT:      -7.3      3.585      5.820
REMARK  3 active torsions:
REMARK  status: ('A' for Active; 'I' for Inactive)
REMARK    1  A    between atoms: C2_2  and  O1_3 
REMARK    2  A    between atoms: C2_2  and  C4_6 
REMARK    3  A    between atoms: O1_3  and  C3_4 
ROOT
HETATM    1  C4  UNL     1      20.480   3.482  50.498  1.00  0.00    -0.010 C 
HETATM    2  C5  UNL     1      21.016   4.496  51.234  1.00  0.00    -0.007 C 
HETATM    3  C6  UNL     1      22.106   4.968  52.108  1.00  0.00     0.117 C 
HETATM    4  C7  UNL     1      23.173   4.324  52.611  1.00  0.00     0.041 C 
HETATM    5  C8  UNL     1      24.341   3.450  53.112  1.00  0.00     0.018 C 
HETATM    6  C9  UNL     1      24.945   2.559  52.288  1.00  0.00     0.115 C 
HETATM    7  N1  UNL     1      25.178   2.614  50.841  1.00  0.00    -0.261 NA
HETATM    8  C10 UNL     1      24.443   3.341  49.985  1.00  0.00     0.068 C 
HETATM    9  C11 UNL     1      23.399   2.700  49.105  1.00  0.00     0.030 C 
HETATM   10  C12 UNL     1      22.113   2.253  49.155  1.00  0.00    -0.001 C 
HETATM   11  C13 UNL     1      21.533   2.442  50.507  1.00  0.00     0.150 C 
HETATM   12  C14 UNL     1      20.805   1.205  50.952  1.00  0.00     0.072 C 
HETATM   13  N2  UNL     1      20.218   0.246  51.295  1.00  0.00    -0.196 NA
HETATM   14  C15 UNL     1      24.757   4.827  50.018  1.00  0.00     0.019 A 
HETATM   15  C16 UNL     1      25.407   5.220  48.885  1.00  0.00     0.017 A 
HETATM   16  C17 UNL     1      25.768   6.536  48.763  1.00  0.00     0.020 A 
HETATM   17  C18 UNL     1      25.499   7.467  49.735  1.00  0.00     0.013 A 
HETATM   18 BR1  UNL     1      26.006   9.294  49.557  1.00  0.00    -0.051 Br
HETATM   19  C19 UNL     1      24.845   7.111  50.892  1.00  0.00     0.049 A 
HETATM   20  C20 UNL     1      24.471   5.803  51.042  1.00  0.00     0.042 A 
HETATM   21  N3  UNL     1      23.775   5.692  52.385  1.00  0.00    -0.380 N 
HETATM   22  H14 UNL     1      23.894   6.611  52.819  1.00  0.00     0.160 HD
ENDROOT
BRANCH   1  23
HETATM   23  C2  UNL     1      19.274   3.393  49.719  1.00  0.00     0.064 C 
HETATM   24  C1  UNL     1      19.399   3.859  48.502  1.00  0.00     0.072 C 
BRANCH  23  25
HETATM   25  O1  UNL     1      18.087   2.876  50.171  1.00  0.00    -0.290 OA
BRANCH  25  26
HETATM   26  C3  UNL     1      17.658   3.073  51.466  1.00  0.00     0.403 C 
HETATM   27  O2  UNL     1      17.101   3.962  52.167  1.00  0.00    -0.276 OA
ENDBRANCH  25  26
ENDBRANCH  23  25
ENDBRANCH   1  23
TORSDOF 3
ENDMDL
MODEL 5
REMARK VINA RESULT:      -7.3      3.822      6.069
REMARK  3 active torsions:
REMARK  status: ('A' for Active; 'I' for Inactive)
REMARK    1  A    between atoms: C2_2  and  O1_3 
REMARK    2  A    between atoms: C2_2  and  C4_6 
REMARK    3  A    between atoms: O1_3  and  C3_4 
ROOT
HETATM    1  C4  UNL     1      20.844   4.130  49.062  1.00  0.00    -0.010 C 
HETATM    2  C5  UNL     1      21.275   5.252  49.705  1.00  0.00    -0.007 C 
HETATM    3  C6  UNL     1      22.070   5.841  50.799  1.00  0.00     0.117 C 
HETATM    4  C7  UNL     1      22.764   5.262  51.793  1.00  0.00     0.041 C 
HETATM    5  C8  UNL     1      23.510   4.453  52.875  1.00  0.00     0.018 C 
HETATM    6  C9  UNL     1      24.183   3.321  52.554  1.00  0.00     0.115 C 
HETATM    7  N1  UNL     1      24.899   2.961  51.326  1.00  0.00    -0.261 NA
HETATM    8  C10 UNL     1      24.647   3.493  50.120  1.00  0.00     0.068 C 
HETATM    9  C11 UNL     1      23.865   2.735  49.075  1.00  0.00     0.030 C 
HETATM   10  C12 UNL     1      22.579   2.439  48.735  1.00  0.00    -0.001 C 
HETATM   11  C13 UNL     1      21.620   3.040  49.694  1.00  0.00     0.150 C 
HETATM   12  C14 UNL     1      20.570   2.041  50.091  1.00  0.00     0.072 C 
HETATM   13  N2  UNL     1      19.735   1.269  50.389  1.00  0.00    -0.196 NA
HETATM   14  C15 UNL     1      25.199   4.897  49.944  1.00  0.00     0.019 A 
HETATM   15  C16 UNL     1      26.256   4.907  49.081  1.00  0.00     0.017 A 
HETATM   16  C17 UNL     1      26.872   6.102  48.819  1.00  0.00     0.020 A 
HETATM   17  C18 UNL     1      26.467   7.282  49.390  1.00  0.00     0.013 A 
HETATM   18 BR1  UNL     1      27.331   8.938  49.021  1.00  0.00    -0.051 Br
HETATM   19  C19 UNL     1      25.404   7.314  50.264  1.00  0.00     0.049 A 
HETATM   20  C20 UNL     1      24.768   6.136  50.545  1.00  0.00     0.042 A 
HETATM   21  N3  UNL     1      23.649   6.457  51.517  1.00  0.00    -0.380 N 
HETATM   22  H14 UNL     1      23.780   7.444  51.752  1.00  0.00     0.160 HD
ENDROOT
BRANCH   1  23
HETATM   23  C2  UNL     1      19.980   3.945  47.927  1.00  0.00     0.064 C 
HETATM   24  C1  UNL     1      18.800   4.494  48.070  1.00  0.00     0.072 C 
BRANCH  23  25
HETATM   25  O1  UNL     1      20.322   3.265  46.786  1.00  0.00    -0.290 OA
BRANCH  25  26
HETATM   26  C3  UNL     1      21.078   3.852  45.794  1.00  0.00     0.403 C 
HETATM   27  O2  UNL     1      22.071   3.589  45.061  1.00  0.00    -0.276 OA
ENDBRANCH  25  26
ENDBRANCH  23  25
ENDBRANCH   1  23
TORSDOF 3
ENDMDL
MODEL 6
REMARK VINA RESULT:      -7.2      3.924      5.601
REMARK  3 active torsions:
REMARK  status: ('A' for Active; 'I' for Inactive)
REMARK    1  A    between atoms: C2_2  and  O1_3 
REMARK    2  A    between atoms: C2_2  and  C4_6 
REMARK    3  A    between atoms: O1_3  and  C3_4 
ROOT
HETATM    1  C4  UNL     1      24.139   3.252  50.278  1.00  0.00    -0.010 C 
HETATM    2  C5  UNL     1      23.326   2.549  49.439  1.00  0.00    -0.007 C 
HETATM    3  C6  UNL     1      22.122   1.716  49.270  1.00  0.00     0.117 C 
HETATM    4  C7  UNL     1      21.250   1.234  50.173  1.00  0.00     0.041 C 
HETATM    5  C8  UNL     1      20.343   0.753  51.324  1.00  0.00     0.018 C 
HETATM    6  C9  UNL     1      20.028   1.580  52.352  1.00  0.00     0.115 C 
HETATM    7  N1  UNL     1      19.837   3.034  52.372  1.00  0.00    -0.261 NA
HETATM    8  C10 UNL     1      20.378   3.880  51.482  1.00  0.00     0.068 C 
HETATM    9  C11 UNL     1      21.584   4.718  51.827  1.00  0.00     0.030 C 
HETATM   10  C12 UNL     1      22.940   4.622  51.911  1.00  0.00    -0.001 C 
HETATM   11  C13 UNL     1      23.403   3.257  51.562  1.00  0.00     0.150 C 
HETATM   12  C14 UNL     1      24.421   2.770  52.555  1.00  0.00     0.072 C 
HETATM   13  N2  UNL     1      25.232   2.394  53.319  1.00  0.00    -0.196 NA
HETATM   14  C15 UNL     1      19.676   3.880  50.135  1.00  0.00     0.019 A 
HETATM   15  C16 UNL     1      18.982   5.039  49.940  1.00  0.00     0.017 A 
HETATM   16  C17 UNL     1      18.286   5.193  48.770  1.00  0.00     0.020 A 
HETATM   17  C18 UNL     1      18.263   4.230  47.793  1.00  0.00     0.013 A 
HETATM   18 BR1  UNL     1      17.291   4.453  46.170  1.00  0.00    -0.051 Br
HETATM   19  C19 UNL     1      18.950   3.048  47.951  1.00  0.00     0.049 A 
HETATM   20  C20 UNL     1      19.656   2.865  49.109  1.00  0.00     0.042 A 
HETATM   21  N3  UNL     1      20.311   1.500  49.018  1.00  0.00    -0.380 N 
HETATM   22  H14 UNL     1      19.936   1.086  48.162  1.00  0.00     0.160 HD
ENDROOT
BRANCH   1  23
HETATM   23  C2  UNL     1      25.350   3.994  50.046  1.00  0.00     0.064 C 
HETATM   24  C1  UNL     1      26.368   3.244  49.706  1.00  0.00     0.072 C 
BRANCH  23  25
HETATM   25  O1  UNL     1      25.467   5.355  50.159  1.00  0.00    -0.290 OA
BRANCH  25  26
HETATM   26  C3  UNL     1      25.013   6.205  49.173  1.00  0.00     0.403 C 
HETATM   27  O2  UNL     1      24.186   6.214  48.219  1.00  0.00    -0.276 OA
ENDBRANCH  25  26
ENDBRANCH  23  25
ENDBRANCH   1  23
TORSDOF 3
ENDMDL
MODEL 7
REMARK VINA RESULT:      -7.1      4.475      6.362
REMARK  3 active torsions:
REMARK  status: ('A' for Active; 'I' for Inactive)
REMARK    1  A    between atoms: C2_2  and  O1_3 
REMARK    2  A    between atoms: C2_2  and  C4_6 
REMARK    3  A    between atoms: O1_3  and  C3_4 
ROOT
HETATM    1  C4  UNL     1      19.398   1.183  52.205  1.00  0.00    -0.010 C 
HETATM    2  C5  UNL     1      19.228   2.485  51.838  1.00  0.00    -0.007 C 
HETATM    3  C6  UNL     1      19.823   3.821  51.653  1.00  0.00     0.117 C 
HETATM    4  C7  UNL     1      21.060   4.279  51.915  1.00  0.00     0.041 C 
HETATM    5  C8  UNL     1      22.513   4.653  52.272  1.00  0.00     0.018 C 
HETATM    6  C9  UNL     1      23.534   3.800  52.009  1.00  0.00     0.115 C 
HETATM    7  N1  UNL     1      23.705   2.835  50.918  1.00  0.00    -0.261 NA
HETATM    8  C10 UNL     1      22.692   2.288  50.227  1.00  0.00     0.068 C 
HETATM    9  C11 UNL     1      22.234   0.875  50.492  1.00  0.00     0.030 C 
HETATM   10  C12 UNL     1      21.455   0.168  51.358  1.00  0.00    -0.001 C 
HETATM   11  C13 UNL     1      20.861   1.055  52.388  1.00  0.00     0.150 C 
HETATM   12  C14 UNL     1      20.994   0.445  53.756  1.00  0.00     0.072 C 
HETATM   13  N2  UNL     1      21.079  -0.038  54.824  1.00  0.00    -0.196 NA
HETATM   14  C15 UNL     1      22.073   3.225  49.205  1.00  0.00     0.019 A 
HETATM   15  C16 UNL     1      22.380   2.839  47.932  1.00  0.00     0.017 A 
HETATM   16  C17 UNL     1      21.900   3.588  46.890  1.00  0.00     0.020 A 
HETATM   17  C18 UNL     1      21.126   4.705  47.080  1.00  0.00     0.013 A 
HETATM   18 BR1  UNL     1      20.464   5.740  45.625  1.00  0.00    -0.051 Br
HETATM   19  C19 UNL     1      20.793   5.126  48.347  1.00  0.00     0.049 A 
HETATM   20  C20 UNL     1      21.258   4.398  49.408  1.00  0.00     0.042 A 
HETATM   21  N3  UNL     1      20.746   5.072  50.667  1.00  0.00    -0.380 N 
HETATM   22  H14 UNL     1      20.297   5.932  50.340  1.00  0.00     0.160 HD
ENDROOT
BRANCH   1  23
HETATM   23  C2  UNL     1      18.482   0.075  52.270  1.00  0.00     0.064 C 
HETATM   24  C1  UNL     1      17.972  -0.253  51.110  1.00  0.00     0.072 C 
BRANCH  23  25
HETATM   25  O1  UNL     1      18.151  -0.600  53.416  1.00  0.00    -0.290 OA
BRANCH  25  26
HETATM   26  C3  UNL     1      18.196  -1.975  53.486  1.00  0.00     0.403 C 
HETATM   27  O2  UNL     1      17.427  -2.952  53.703  1.00  0.00    -0.276 OA
ENDBRANCH  25  26
ENDBRANCH  23  25
ENDBRANCH   1  23
TORSDOF 3
ENDMDL
MODEL 8
REMARK VINA RESULT:      -7.0      4.001      6.638
REMARK  3 active torsions:
REMARK  status: ('A' for Active; 'I' for Inactive)
REMARK    1  A    between atoms: C2_2  and  O1_3 
REMARK    2  A    between atoms: C2_2  and  C4_6 
REMARK    3  A    between atoms: O1_3  and  C3_4 
ROOT
HETATM    1  C4  UNL     1      20.805   3.468  49.392  1.00  0.00    -0.010 C 
HETATM    2  C5  UNL     1      22.022   3.001  48.995  1.00  0.00    -0.007 C 
HETATM    3  C6  UNL     1      23.471   3.240  48.857  1.00  0.00     0.117 C 
HETATM    4  C7  UNL     1      24.213   4.329  49.123  1.00  0.00     0.041 C 
HETATM    5  C8  UNL     1      24.924   5.653  49.471  1.00  0.00     0.018 C 
HETATM    6  C9  UNL     1      24.580   6.355  50.579  1.00  0.00     0.115 C 
HETATM    7  N1  UNL     1      24.101   5.890  51.884  1.00  0.00    -0.261 NA
HETATM    8  C10 UNL     1      23.481   4.717  52.088  1.00  0.00     0.068 C 
HETATM    9  C11 UNL     1      21.986   4.641  52.274  1.00  0.00     0.030 C 
HETATM   10  C12 UNL     1      20.835   4.629  51.544  1.00  0.00    -0.001 C 
HETATM   11  C13 UNL     1      21.122   4.733  50.092  1.00  0.00     0.150 C 
HETATM   12  C14 UNL     1      20.212   5.737  49.440  1.00  0.00     0.072 C 
HETATM   13  N2  UNL     1      19.489   6.506  48.924  1.00  0.00    -0.196 NA
HETATM   14  C15 UNL     1      24.418   3.523  52.088  1.00  0.00     0.019 A 
HETATM   15  C16 UNL     1      24.556   3.003  53.343  1.00  0.00     0.017 A 
HETATM   16  C17 UNL     1      25.378   1.921  53.513  1.00  0.00     0.020 A 
HETATM   17  C18 UNL     1      26.062   1.343  52.474  1.00  0.00     0.013 A 
HETATM   18 BR1  UNL     1      27.204  -0.162  52.721  1.00  0.00    -0.051 Br
HETATM   19  C19 UNL     1      25.949   1.836  51.194  1.00  0.00     0.049 A 
HETATM   20  C20 UNL     1      25.135   2.917  50.992  1.00  0.00     0.042 A 
HETATM   21  N3  UNL     1      25.191   3.244  49.511  1.00  0.00    -0.380 N 
HETATM   22  H14 UNL     1      25.908   2.620  49.132  1.00  0.00     0.160 HD
ENDROOT
BRANCH   1  23
HETATM   23  C2  UNL     1      19.490   2.886  49.346  1.00  0.00     0.064 C 
HETATM   24  C1  UNL     1      18.987   2.819  48.140  1.00  0.00     0.072 C 
BRANCH  23  25
HETATM   25  O1  UNL     1      18.798   2.432  50.439  1.00  0.00    -0.290 OA
BRANCH  25  26
HETATM   26  C3  UNL     1      17.727   3.127  50.958  1.00  0.00     0.403 C 
HETATM   27  O2  UNL     1      17.392   3.723  52.019  1.00  0.00    -0.276 OA
ENDBRANCH  25  26
ENDBRANCH  23  25
ENDBRANCH   1  23
TORSDOF 3
ENDMDL
MODEL 9
REMARK VINA RESULT:      -6.9      7.005      9.122
REMARK  3 active torsions:
REMARK  status: ('A' for Active; 'I' for Inactive)
REMARK    1  A    between atoms: C2_2  and  O1_3 
REMARK    2  A    between atoms: C2_2  and  C4_6 
REMARK    3  A    between atoms: O1_3  and  C3_4 
ROOT
HETATM    1  C4  UNL     1      31.924   5.338  47.022  1.00  0.00    -0.010 C 
HETATM    2  C5  UNL     1      30.763   5.503  47.716  1.00  0.00    -0.007 C 
HETATM    3  C6  UNL     1      29.890   6.395  48.503  1.00  0.00     0.117 C 
HETATM    4  C7  UNL     1      30.067   7.662  48.915  1.00  0.00     0.041 C 
HETATM    5  C8  UNL     1      30.419   9.109  49.316  1.00  0.00     0.018 C 
HETATM    6  C9  UNL     1      31.036   9.941  48.441  1.00  0.00     0.115 C 
HETATM    7  N1  UNL     1      30.934  10.024  46.981  1.00  0.00    -0.261 NA
HETATM    8  C10 UNL     1      30.564   9.005  46.190  1.00  0.00     0.068 C 
HETATM    9  C11 UNL     1      31.576   8.220  45.394  1.00  0.00     0.030 C 
HETATM   10  C12 UNL     1      32.476   7.208  45.546  1.00  0.00    -0.001 C 
HETATM   11  C13 UNL     1      32.485   6.705  46.941  1.00  0.00     0.150 C 
HETATM   12  C14 UNL     1      33.894   6.539  47.438  1.00  0.00     0.072 C 
HETATM   13  N2  UNL     1      34.995   6.389  47.822  1.00  0.00    -0.196 NA
HETATM   14  C15 UNL     1      29.070   8.732  46.205  1.00  0.00     0.019 A 
HETATM   15  C16 UNL     1      28.489   9.095  45.025  1.00  0.00     0.017 A 
HETATM   16  C17 UNL     1      27.139   8.918  44.880  1.00  0.00     0.020 A 
HETATM   17  C18 UNL     1      26.354   8.391  45.875  1.00  0.00     0.013 A 
HETATM   18 BR1  UNL     1      24.476   8.149  45.665  1.00  0.00    -0.051 Br
HETATM   19  C19 UNL     1      26.901   8.011  47.079  1.00  0.00     0.049 A 
HETATM   20  C20 UNL     1      28.248   8.176  47.253  1.00  0.00     0.042 A 
HETATM   21  N3  UNL     1      28.579   7.679  48.647  1.00  0.00    -0.380 N 
HETATM   22  H14 UNL     1      27.673   7.472  49.074  1.00  0.00     0.160 HD
ENDROOT
BRANCH   1  23
HETATM   23  C2  UNL     1      32.484   4.201  46.342  1.00  0.00     0.064 C 
HETATM   24  C1  UNL     1      32.517   3.116  47.073  1.00  0.00     0.072 C 
BRANCH  23  25
HETATM   25  O1  UNL     1      32.949   4.211  45.052  1.00  0.00    -0.290 OA
BRANCH  25  26
HETATM   26  C3  UNL     1      34.296   4.274  44.768  1.00  0.00     0.403 C 
HETATM   27  O2  UNL     1      35.391   3.822  45.204  1.00  0.00    -0.276 OA
ENDBRANCH  25  26
ENDBRANCH  23  25
ENDBRANCH   1  23
TORSDOF 3
ENDMDL
