MODEL 1
REMARK VINA RESULT:      -7.3      0.000      0.000
REMARK  6 active torsions:
REMARK  status: ('A' for Active; 'I' for Inactive)
REMARK    1  A    between atoms: C2_2  and  N1_3 
REMARK    2  A    between atoms: C2_2  and  C9_11 
REMARK    3  A    between atoms: N1_3  and  C3_4 
REMARK    4  A    between atoms: C3_4  and  C4_5 
REMARK       I    between atoms: C9_11  and  N2_13 
REMARK    5  A    between atoms: N2_13  and  C10_14 
REMARK    6  A    between atoms: C14_18  and  C15_19 
ROOT
HETATM    1  C9  UNL     1      25.919   3.025  51.150  1.00  0.00     0.271 C 
HETATM    2  O1  UNL     1      26.783   2.805  50.270  1.00  0.00    -0.266 OA
HETATM    3  N2  UNL     1      26.146   2.578  52.463  1.00  0.00    -0.322 N 
HETATM    4  H9  UNL     1      25.382   2.800  53.137  1.00  0.00     0.169 HD
ENDROOT
BRANCH   1   5
HETATM    5  C2  UNL     1      24.714   3.722  50.831  1.00  0.00     0.088 C 
HETATM    6  C1  UNL     1      24.731   5.003  50.465  1.00  0.00     0.048 C 
BRANCH   5   7
HETATM    7  N1  UNL     1      23.372   3.220  50.854  1.00  0.00    -0.375 N 
HETATM    8  H3  UNL     1      23.162   3.940  51.610  1.00  0.00     0.160 HD
BRANCH   7   9
HETATM    9  C3  UNL     1      22.449   2.239  50.271  1.00  0.00     0.149 C 
BRANCH   9  10
HETATM   10  C4  UNL     1      21.961   1.731  51.401  1.00  0.00     0.007 A 
HETATM   11  C5  UNL     1      23.017   0.794  51.852  1.00  0.00     0.017 A 
HETATM   12  C6  UNL     1      22.961   0.068  52.953  1.00  0.00     0.002 A 
HETATM   13  C7  UNL     1      21.848   0.101  53.861  1.00  0.00     0.007 A 
HETATM   14  C8  UNL     1      20.731   0.807  53.795  1.00  0.00     0.050 A 
HETATM   15  S1  UNL     1      20.494   1.921  52.378  1.00  0.00    -0.104 SA
ENDBRANCH   9  10
ENDBRANCH   7   9
ENDBRANCH   5   7
ENDBRANCH   1   5
BRANCH   3  16
HETATM   16  C10 UNL     1      27.260   1.877  52.973  1.00  0.00     0.035 A 
HETATM   17  C11 UNL     1      28.358   2.393  53.616  1.00  0.00     0.029 A 
HETATM   18  C12 UNL     1      29.427   1.682  54.107  1.00  0.00     0.003 A 
HETATM   19  C13 UNL     1      29.403   0.314  53.942  1.00  0.00     0.015 A 
HETATM   20  C14 UNL     1      28.342  -0.274  53.310  1.00  0.00     0.011 A 
HETATM   21  C17 UNL     1      27.309   0.509  52.847  1.00  0.00     0.044 A 
BRANCH  20  22
HETATM   22  C15 UNL     1      28.273  -1.723  53.114  1.00  0.00     0.155 C 
HETATM   23  C16 UNL     1      27.106  -2.373  52.472  1.00  0.00     0.096 C 
HETATM   24  O2  UNL     1      29.217  -2.476  53.490  1.00  0.00    -0.293 OA
ENDBRANCH  20  22
ENDBRANCH   3  16
TORSDOF 6
ENDMDL
MODEL 2
REMARK VINA RESULT:      -7.2      4.316      6.513
REMARK  6 active torsions:
REMARK  status: ('A' for Active; 'I' for Inactive)
REMARK    1  A    between atoms: C2_2  and  N1_3 
REMARK    2  A    between atoms: C2_2  and  C9_11 
REMARK    3  A    between atoms: N1_3  and  C3_4 
REMARK    4  A    between atoms: C3_4  and  C4_5 
REMARK       I    between atoms: C9_11  and  N2_13 
REMARK    5  A    between atoms: N2_13  and  C10_14 
REMARK    6  A    between atoms: C14_18  and  C15_19 
ROOT
HETATM    1  C9  UNL     1      26.389   3.905  50.044  1.00  0.00     0.271 C 
HETATM    2  O1  UNL     1      27.068   3.152  49.307  1.00  0.00    -0.266 OA
HETATM    3  N2  UNL     1      25.984   3.444  51.308  1.00  0.00    -0.322 N 
HETATM    4  H9  UNL     1      25.423   4.128  51.862  1.00  0.00     0.169 HD
ENDROOT
BRANCH   1   5
HETATM    5  C2  UNL     1      26.027   5.217  49.612  1.00  0.00     0.088 C 
HETATM    6  C1  UNL     1      24.754   5.607  49.574  1.00  0.00     0.048 C 
BRANCH   5   7
HETATM    7  N1  UNL     1      26.892   6.269  49.165  1.00  0.00    -0.375 N 
HETATM    8  H3  UNL     1      27.255   6.335  50.163  1.00  0.00     0.160 HD
BRANCH   7   9
HETATM    9  C3  UNL     1      27.306   7.069  48.006  1.00  0.00     0.149 C 
BRANCH   9  10
HETATM   10  C4  UNL     1      28.557   7.326  48.381  1.00  0.00     0.007 A 
HETATM   11  C5  UNL     1      29.260   6.038  48.175  1.00  0.00     0.017 A 
HETATM   12  C6  UNL     1      30.542   5.832  48.411  1.00  0.00     0.002 A 
HETATM   13  C7  UNL     1      31.425   6.853  48.904  1.00  0.00     0.007 A 
HETATM   14  C8  UNL     1      31.165   8.116  49.205  1.00  0.00     0.050 A 
HETATM   15  S1  UNL     1      29.465   8.723  48.991  1.00  0.00    -0.104 SA
ENDBRANCH   9  10
ENDBRANCH   7   9
ENDBRANCH   5   7
ENDBRANCH   1   5
BRANCH   3  16
HETATM   16  C10 UNL     1      26.235   2.193  51.911  1.00  0.00     0.035 A 
HETATM   17  C11 UNL     1      25.433   1.080  51.910  1.00  0.00     0.029 A 
HETATM   18  C12 UNL     1      25.709  -0.129  52.503  1.00  0.00     0.003 A 
HETATM   19  C13 UNL     1      26.910  -0.244  53.168  1.00  0.00     0.015 A 
HETATM   20  C14 UNL     1      27.764   0.823  53.214  1.00  0.00     0.011 A 
HETATM   21  C17 UNL     1      27.414   2.001  52.593  1.00  0.00     0.044 A 
BRANCH  20  22
HETATM   22  C15 UNL     1      29.052   0.746  53.907  1.00  0.00     0.155 C 
HETATM   23  C16 UNL     1      29.977  -0.395  53.717  1.00  0.00     0.096 C 
HETATM   24  O2  UNL     1      29.420   1.661  54.699  1.00  0.00    -0.293 OA
ENDBRANCH  20  22
ENDBRANCH   3  16
TORSDOF 6
ENDMDL
MODEL 3
REMARK VINA RESULT:      -7.2      1.998      3.358
REMARK  6 active torsions:
REMARK  status: ('A' for Active; 'I' for Inactive)
REMARK    1  A    between atoms: C2_2  and  N1_3 
REMARK    2  A    between atoms: C2_2  and  C9_11 
REMARK    3  A    between atoms: N1_3  and  C3_4 
REMARK    4  A    between atoms: C3_4  and  C4_5 
REMARK       I    between atoms: C9_11  and  N2_13 
REMARK    5  A    between atoms: N2_13  and  C10_14 
REMARK    6  A    between atoms: C14_18  and  C15_19 
ROOT
HETATM    1  C9  UNL     1      26.438   3.350  50.136  1.00  0.00     0.271 C 
HETATM    2  O1  UNL     1      26.642   2.403  49.341  1.00  0.00    -0.266 OA
HETATM    3  N2  UNL     1      26.124   3.067  51.476  1.00  0.00    -0.322 N 
HETATM    4  H9  UNL     1      25.969   3.907  52.075  1.00  0.00     0.169 HD
ENDROOT
BRANCH   1   5
HETATM    5  C2  UNL     1      26.521   4.705  49.693  1.00  0.00     0.088 C 
HETATM    6  C1  UNL     1      27.336   5.060  48.701  1.00  0.00     0.048 C 
BRANCH   5   7
HETATM    7  N1  UNL     1      25.811   5.844  50.197  1.00  0.00    -0.375 N 
HETATM    8  H3  UNL     1      26.668   6.060  50.790  1.00  0.00     0.160 HD
BRANCH   7   9
HETATM    9  C3  UNL     1      24.552   6.596  50.133  1.00  0.00     0.149 C 
BRANCH   9  10
HETATM   10  C4  UNL     1      23.712   5.596  50.391  1.00  0.00     0.007 A 
HETATM   11  C5  UNL     1      23.678   5.537  51.872  1.00  0.00     0.017 A 
HETATM   12  C6  UNL     1      22.953   4.687  52.575  1.00  0.00     0.002 A 
HETATM   13  C7  UNL     1      22.097   3.701  51.978  1.00  0.00     0.007 A 
HETATM   14  C8  UNL     1      21.867   3.451  50.699  1.00  0.00     0.050 A 
HETATM   15  S1  UNL     1      22.725   4.460  49.453  1.00  0.00    -0.104 SA
ENDBRANCH   9  10
ENDBRANCH   7   9
ENDBRANCH   5   7
ENDBRANCH   1   5
BRANCH   3  16
HETATM   16  C10 UNL     1      25.994   1.809  52.102  1.00  0.00     0.035 A 
HETATM   17  C11 UNL     1      24.839   1.152  52.443  1.00  0.00     0.029 A 
HETATM   18  C12 UNL     1      24.745  -0.079  53.049  1.00  0.00     0.003 A 
HETATM   19  C13 UNL     1      25.924  -0.725  53.347  1.00  0.00     0.015 A 
HETATM   20  C14 UNL     1      27.118  -0.134  53.038  1.00  0.00     0.011 A 
HETATM   21  C17 UNL     1      27.127   1.101  52.431  1.00  0.00     0.044 A 
BRANCH  20  22
HETATM   22  C15 UNL     1      28.396  -0.784  53.335  1.00  0.00     0.155 C 
HETATM   23  C16 UNL     1      29.623  -0.006  53.623  1.00  0.00     0.096 C 
HETATM   24  O2  UNL     1      28.495  -2.045  53.354  1.00  0.00    -0.293 OA
ENDBRANCH  20  22
ENDBRANCH   3  16
TORSDOF 6
ENDMDL
MODEL 4
REMARK VINA RESULT:      -7.1      3.077      6.207
REMARK  6 active torsions:
REMARK  status: ('A' for Active; 'I' for Inactive)
REMARK    1  A    between atoms: C2_2  and  N1_3 
REMARK    2  A    between atoms: C2_2  and  C9_11 
REMARK    3  A    between atoms: N1_3  and  C3_4 
REMARK    4  A    between atoms: C3_4  and  C4_5 
REMARK       I    between atoms: C9_11  and  N2_13 
REMARK    5  A    between atoms: N2_13  and  C10_14 
REMARK    6  A    between atoms: C14_18  and  C15_19 
ROOT
HETATM    1  C9  UNL     1      23.122   2.518  51.830  1.00  0.00     0.271 C 
HETATM    2  O1  UNL     1      22.270   3.176  52.473  1.00  0.00    -0.266 OA
HETATM    3  N2  UNL     1      23.159   1.121  51.971  1.00  0.00    -0.322 N 
HETATM    4  H9  UNL     1      23.895   0.645  51.404  1.00  0.00     0.169 HD
ENDROOT
BRANCH   1   5
HETATM    5  C2  UNL     1      24.047   3.174  50.964  1.00  0.00     0.088 C 
HETATM    6  C1  UNL     1      23.662   3.675  49.791  1.00  0.00     0.048 C 
BRANCH   5   7
HETATM    7  N1  UNL     1      25.450   3.390  51.170  1.00  0.00    -0.375 N 
HETATM    8  H3  UNL     1      25.213   4.398  51.419  1.00  0.00     0.160 HD
BRANCH   7   9
HETATM    9  C3  UNL     1      26.775   2.762  51.140  1.00  0.00     0.149 C 
BRANCH   9  10
HETATM   10  C4  UNL     1      26.623   1.930  52.167  1.00  0.00     0.007 A 
HETATM   11  C5  UNL     1      26.721   0.586  51.550  1.00  0.00     0.017 A 
HETATM   12  C6  UNL     1      26.637  -0.555  52.209  1.00  0.00     0.002 A 
HETATM   13  C7  UNL     1      26.437  -0.629  53.629  1.00  0.00     0.007 A 
HETATM   14  C8  UNL     1      26.304   0.348  54.512  1.00  0.00     0.050 A 
HETATM   15  S1  UNL     1      26.372   2.065  53.917  1.00  0.00    -0.104 SA
ENDBRANCH   9  10
ENDBRANCH   7   9
ENDBRANCH   5   7
ENDBRANCH   1   5
BRANCH   3  16
HETATM   16  C10 UNL     1      22.341   0.295  52.770  1.00  0.00     0.035 A 
HETATM   17  C11 UNL     1      22.708  -0.456  53.860  1.00  0.00     0.029 A 
HETATM   18  C12 UNL     1      21.884  -1.248  54.623  1.00  0.00     0.003 A 
HETATM   19  C13 UNL     1      20.554  -1.301  54.266  1.00  0.00     0.015 A 
HETATM   20  C14 UNL     1      20.112  -0.581  53.191  1.00  0.00     0.011 A 
HETATM   21  C17 UNL     1      21.001   0.190  52.477  1.00  0.00     0.044 A 
BRANCH  20  22
HETATM   22  C15 UNL     1      18.708  -0.605  52.776  1.00  0.00     0.155 C 
HETATM   23  C16 UNL     1      17.748  -1.596  53.318  1.00  0.00     0.096 C 
HETATM   24  O2  UNL     1      18.263   0.226  51.933  1.00  0.00    -0.293 OA
ENDBRANCH  20  22
ENDBRANCH   3  16
TORSDOF 6
ENDMDL
MODEL 5
REMARK VINA RESULT:      -7.1      2.150      3.139
REMARK  6 active torsions:
REMARK  status: ('A' for Active; 'I' for Inactive)
REMARK    1  A    between atoms: C2_2  and  N1_3 
REMARK    2  A    between atoms: C2_2  and  C9_11 
REMARK    3  A    between atoms: N1_3  and  C3_4 
REMARK    4  A    between atoms: C3_4  and  C4_5 
REMARK       I    between atoms: C9_11  and  N2_13 
REMARK    5  A    between atoms: N2_13  and  C10_14 
REMARK    6  A    between atoms: C14_18  and  C15_19 
ROOT
HETATM    1  C9  UNL     1      26.329   3.698  49.842  1.00  0.00     0.271 C 
HETATM    2  O1  UNL     1      27.061   2.890  49.222  1.00  0.00    -0.266 OA
HETATM    3  N2  UNL     1      25.870   3.362  51.127  1.00  0.00    -0.322 N 
HETATM    4  H9  UNL     1      25.268   4.085  51.577  1.00  0.00     0.169 HD
ENDROOT
BRANCH   1   5
HETATM    5  C2  UNL     1      25.962   4.946  49.255  1.00  0.00     0.088 C 
HETATM    6  C1  UNL     1      26.875   5.759  48.725  1.00  0.00     0.048 C 
BRANCH   5   7
HETATM    7  N1  UNL     1      24.651   5.518  49.145  1.00  0.00    -0.375 N 
HETATM    8  H3  UNL     1      24.992   6.310  49.770  1.00  0.00     0.160 HD
BRANCH   7   9
HETATM    9  C3  UNL     1      23.317   5.352  48.558  1.00  0.00     0.149 C 
BRANCH   9  10
HETATM   10  C4  UNL     1      22.842   4.439  49.402  1.00  0.00     0.007 A 
HETATM   11  C5  UNL     1      22.871   3.183  48.617  1.00  0.00     0.017 A 
HETATM   12  C6  UNL     1      22.493   2.002  49.069  1.00  0.00     0.002 A 
HETATM   13  C7  UNL     1      21.999   1.791  50.401  1.00  0.00     0.007 A 
HETATM   14  C8  UNL     1      21.830   2.663  51.383  1.00  0.00     0.050 A 
HETATM   15  S1  UNL     1      22.261   4.403  51.077  1.00  0.00    -0.104 SA
ENDBRANCH   9  10
ENDBRANCH   7   9
ENDBRANCH   5   7
ENDBRANCH   1   5
BRANCH   3  16
HETATM   16  C10 UNL     1      26.118   2.189  51.871  1.00  0.00     0.035 A 
HETATM   17  C11 UNL     1      25.289   1.108  52.042  1.00  0.00     0.029 A 
HETATM   18  C12 UNL     1      25.563  -0.025  52.771  1.00  0.00     0.003 A 
HETATM   19  C13 UNL     1      26.789  -0.092  53.395  1.00  0.00     0.015 A 
HETATM   20  C14 UNL     1      27.670   0.947  53.271  1.00  0.00     0.011 A 
HETATM   21  C17 UNL     1      27.321   2.048  52.523  1.00  0.00     0.044 A 
BRANCH  20  22
HETATM   22  C15 UNL     1      28.984   0.919  53.915  1.00  0.00     0.155 C 
HETATM   23  C16 UNL     1      29.979  -0.140  53.622  1.00  0.00     0.096 C 
HETATM   24  O2  UNL     1      29.318   1.806  54.753  1.00  0.00    -0.293 OA
ENDBRANCH  20  22
ENDBRANCH   3  16
TORSDOF 6
ENDMDL
MODEL 6
REMARK VINA RESULT:      -7.0      2.429      3.873
REMARK  6 active torsions:
REMARK  status: ('A' for Active; 'I' for Inactive)
REMARK    1  A    between atoms: C2_2  and  N1_3 
REMARK    2  A    between atoms: C2_2  and  C9_11 
REMARK    3  A    between atoms: N1_3  and  C3_4 
REMARK    4  A    between atoms: C3_4  and  C4_5 
REMARK       I    between atoms: C9_11  and  N2_13 
REMARK    5  A    between atoms: N2_13  and  C10_14 
REMARK    6  A    between atoms: C14_18  and  C15_19 
ROOT
HETATM    1  C9  UNL     1      26.347   3.559  50.092  1.00  0.00     0.271 C 
HETATM    2  O1  UNL     1      26.613   2.678  49.242  1.00  0.00    -0.266 OA
HETATM    3  N2  UNL     1      26.053   3.173  51.411  1.00  0.00    -0.322 N 
HETATM    4  H9  UNL     1      25.842   3.964  52.059  1.00  0.00     0.169 HD
ENDROOT
BRANCH   1   5
HETATM    5  C2  UNL     1      26.339   4.940  49.733  1.00  0.00     0.088 C 
HETATM    6  C1  UNL     1      27.033   5.388  48.688  1.00  0.00     0.048 C 
BRANCH   5   7
HETATM    7  N1  UNL     1      25.649   6.017  50.381  1.00  0.00    -0.375 N 
HETATM    8  H3  UNL     1      26.523   6.165  50.970  1.00  0.00     0.160 HD
BRANCH   7   9
HETATM    9  C3  UNL     1      24.393   6.774  50.437  1.00  0.00     0.149 C 
BRANCH   9  10
HETATM   10  C4  UNL     1      23.548   5.749  50.518  1.00  0.00     0.007 A 
HETATM   11  C5  UNL     1      23.460   5.477  51.972  1.00  0.00     0.017 A 
HETATM   12  C6  UNL     1      22.714   4.535  52.519  1.00  0.00     0.002 A 
HETATM   13  C7  UNL     1      21.884   3.646  51.755  1.00  0.00     0.007 A 
HETATM   14  C8  UNL     1      21.703   3.582  50.445  1.00  0.00     0.050 A 
HETATM   15  S1  UNL     1      22.602   4.759  49.391  1.00  0.00    -0.104 SA
ENDBRANCH   9  10
ENDBRANCH   7   9
ENDBRANCH   5   7
ENDBRANCH   1   5
BRANCH   3  16
HETATM   16  C10 UNL     1      26.008   1.874  51.959  1.00  0.00     0.035 A 
HETATM   17  C11 UNL     1      27.049   0.998  52.138  1.00  0.00     0.029 A 
HETATM   18  C12 UNL     1      26.973  -0.263  52.681  1.00  0.00     0.003 A 
HETATM   19  C13 UNL     1      25.732  -0.700  53.088  1.00  0.00     0.015 A 
HETATM   20  C14 UNL     1      24.645   0.116  52.942  1.00  0.00     0.011 A 
HETATM   21  C17 UNL     1      24.804   1.367  52.389  1.00  0.00     0.044 A 
BRANCH  20  22
HETATM   22  C15 UNL     1      23.307  -0.305  53.362  1.00  0.00     0.155 C 
HETATM   23  C16 UNL     1      22.103  -0.022  52.545  1.00  0.00     0.096 C 
HETATM   24  O2  UNL     1      23.133  -0.931  54.447  1.00  0.00    -0.293 OA
ENDBRANCH  20  22
ENDBRANCH   3  16
TORSDOF 6
ENDMDL
MODEL 7
REMARK VINA RESULT:      -6.9      4.129      6.566
REMARK  6 active torsions:
REMARK  status: ('A' for Active; 'I' for Inactive)
REMARK    1  A    between atoms: C2_2  and  N1_3 
REMARK    2  A    between atoms: C2_2  and  C9_11 
REMARK    3  A    between atoms: N1_3  and  C3_4 
REMARK    4  A    between atoms: C3_4  and  C4_5 
REMARK       I    between atoms: C9_11  and  N2_13 
REMARK    5  A    between atoms: N2_13  and  C10_14 
REMARK    6  A    between atoms: C14_18  and  C15_19 
ROOT
HETATM    1  C9  UNL     1      26.385   3.755  49.957  1.00  0.00     0.271 C 
HETATM    2  O1  UNL     1      26.971   2.895  49.258  1.00  0.00    -0.266 OA
HETATM    3  N2  UNL     1      25.990   3.425  51.264  1.00  0.00    -0.322 N 
HETATM    4  H9  UNL     1      25.509   4.193  51.781  1.00  0.00     0.169 HD
ENDROOT
BRANCH   1   5
HETATM    5  C2  UNL     1      26.118   5.058  49.438  1.00  0.00     0.088 C 
HETATM    6  C1  UNL     1      24.887   5.425  49.086  1.00  0.00     0.048 C 
BRANCH   5   7
HETATM    7  N1  UNL     1      27.049   6.124  49.205  1.00  0.00    -0.375 N 
HETATM    8  H3  UNL     1      26.589   6.643  50.012  1.00  0.00     0.160 HD
BRANCH   7   9
HETATM    9  C3  UNL     1      28.172   6.574  48.375  1.00  0.00     0.149 C 
BRANCH   9  10
HETATM   10  C4  UNL     1      27.910   7.879  48.380  1.00  0.00     0.007 A 
HETATM   11  C5  UNL     1      26.947   8.050  47.266  1.00  0.00     0.017 A 
HETATM   12  C6  UNL     1      26.402   9.198  46.910  1.00  0.00     0.002 A 
HETATM   13  C7  UNL     1      26.683  10.441  47.573  1.00  0.00     0.007 A 
HETATM   14  C8  UNL     1      27.484  10.685  48.599  1.00  0.00     0.050 A 
HETATM   15  S1  UNL     1      28.398   9.294  49.331  1.00  0.00    -0.104 SA
ENDBRANCH   9  10
ENDBRANCH   7   9
ENDBRANCH   5   7
ENDBRANCH   1   5
BRANCH   3  16
HETATM   16  C10 UNL     1      26.158   2.205  51.952  1.00  0.00     0.035 A 
HETATM   17  C11 UNL     1      25.273   1.160  52.045  1.00  0.00     0.029 A 
HETATM   18  C12 UNL     1      25.469  -0.022  52.720  1.00  0.00     0.003 A 
HETATM   19  C13 UNL     1      26.672  -0.182  53.372  1.00  0.00     0.015 A 
HETATM   20  C14 UNL     1      27.606   0.816  53.326  1.00  0.00     0.011 A 
HETATM   21  C17 UNL     1      27.333   1.970  52.627  1.00  0.00     0.044 A 
BRANCH  20  22
HETATM   22  C15 UNL     1      28.898   0.689  54.002  1.00  0.00     0.155 C 
HETATM   23  C16 UNL     1      29.864  -0.380  53.652  1.00  0.00     0.096 C 
HETATM   24  O2  UNL     1      29.237   1.494  54.916  1.00  0.00    -0.293 OA
ENDBRANCH  20  22
ENDBRANCH   3  16
TORSDOF 6
ENDMDL
MODEL 8
REMARK VINA RESULT:      -6.9      3.281      5.488
REMARK  6 active torsions:
REMARK  status: ('A' for Active; 'I' for Inactive)
REMARK    1  A    between atoms: C2_2  and  N1_3 
REMARK    2  A    between atoms: C2_2  and  C9_11 
REMARK    3  A    between atoms: N1_3  and  C3_4 
REMARK    4  A    between atoms: C3_4  and  C4_5 
REMARK       I    between atoms: C9_11  and  N2_13 
REMARK    5  A    between atoms: N2_13  and  C10_14 
REMARK    6  A    between atoms: C14_18  and  C15_19 
ROOT
HETATM    1  C9  UNL     1      24.752   3.656  51.327  1.00  0.00     0.271 C 
HETATM    2  O1  UNL     1      25.098   2.926  50.369  1.00  0.00    -0.266 OA
HETATM    3  N2  UNL     1      24.827   3.153  52.636  1.00  0.00    -0.322 N 
HETATM    4  H9  UNL     1      24.522   3.821  53.378  1.00  0.00     0.169 HD
ENDROOT
BRANCH   1   5
HETATM    5  C2  UNL     1      24.285   4.986  51.097  1.00  0.00     0.088 C 
HETATM    6  C1  UNL     1      23.370   5.545  51.889  1.00  0.00     0.048 C 
BRANCH   5   7
HETATM    7  N1  UNL     1      24.671   5.890  50.054  1.00  0.00    -0.375 N 
HETATM    8  H3  UNL     1      24.949   6.580  50.815  1.00  0.00     0.160 HD
BRANCH   7   9
HETATM    9  C3  UNL     1      24.764   6.073  48.601  1.00  0.00     0.149 C 
BRANCH   9  10
HETATM   10  C4  UNL     1      26.013   6.528  48.539  1.00  0.00     0.007 A 
HETATM   11  C5  UNL     1      26.838   5.297  48.541  1.00  0.00     0.017 A 
HETATM   12  C6  UNL     1      28.157   5.273  48.478  1.00  0.00     0.002 A 
HETATM   13  C7  UNL     1      28.962   6.459  48.399  1.00  0.00     0.007 A 
HETATM   14  C8  UNL     1      28.589   7.729  48.374  1.00  0.00     0.050 A 
HETATM   15  S1  UNL     1      26.812   8.109  48.450  1.00  0.00    -0.104 SA
ENDBRANCH   9  10
ENDBRANCH   7   9
ENDBRANCH   5   7
ENDBRANCH   1   5
BRANCH   3  16
HETATM   16  C10 UNL     1      25.255   1.879  53.066  1.00  0.00     0.035 A 
HETATM   17  C11 UNL     1      24.523   0.719  53.127  1.00  0.00     0.029 A 
HETATM   18  C12 UNL     1      24.972  -0.511  53.546  1.00  0.00     0.003 A 
HETATM   19  C13 UNL     1      26.286  -0.598  53.948  1.00  0.00     0.015 A 
HETATM   20  C14 UNL     1      27.080   0.516  53.916  1.00  0.00     0.011 A 
HETATM   21  C17 UNL     1      26.555   1.712  53.482  1.00  0.00     0.044 A 
BRANCH  20  22
HETATM   22  C15 UNL     1      28.483   0.470  54.332  1.00  0.00     0.155 C 
HETATM   23  C16 UNL     1      29.387  -0.631  53.922  1.00  0.00     0.096 C 
HETATM   24  O2  UNL     1      28.975   1.377  55.063  1.00  0.00    -0.293 OA
ENDBRANCH  20  22
ENDBRANCH   3  16
TORSDOF 6
ENDMDL
MODEL 9
REMARK VINA RESULT:      -6.8      2.066      2.929
REMARK  6 active torsions:
REMARK  status: ('A' for Active; 'I' for Inactive)
REMARK    1  A    between atoms: C2_2  and  N1_3 
REMARK    2  A    between atoms: C2_2  and  C9_11 
REMARK    3  A    between atoms: N1_3  and  C3_4 
REMARK    4  A    between atoms: C3_4  and  C4_5 
REMARK       I    between atoms: C9_11  and  N2_13 
REMARK    5  A    between atoms: N2_13  and  C10_14 
REMARK    6  A    between atoms: C14_18  and  C15_19 
ROOT
HETATM    1  C9  UNL     1      24.316   3.911  51.638  1.00  0.00     0.271 C 
HETATM    2  O1  UNL     1      25.010   3.519  50.671  1.00  0.00    -0.266 OA
HETATM    3  N2  UNL     1      24.343   3.185  52.841  1.00  0.00    -0.322 N 
HETATM    4  H9  UNL     1      23.739   3.575  53.598  1.00  0.00     0.169 HD
ENDROOT
BRANCH   1   5
HETATM    5  C2  UNL     1      23.503   5.079  51.526  1.00  0.00     0.088 C 
HETATM    6  C1  UNL     1      24.036   6.271  51.263  1.00  0.00     0.048 C 
BRANCH   5   7
HETATM    7  N1  UNL     1      22.081   5.183  51.675  1.00  0.00    -0.375 N 
HETATM    8  H3  UNL     1      22.258   5.730  52.571  1.00  0.00     0.160 HD
BRANCH   7   9
HETATM    9  C3  UNL     1      20.785   4.832  51.081  1.00  0.00     0.149 C 
BRANCH   9  10
HETATM   10  C4  UNL     1      20.961   3.516  50.987  1.00  0.00     0.007 A 
HETATM   11  C5  UNL     1      20.650   3.020  52.348  1.00  0.00     0.017 A 
HETATM   12  C6  UNL     1      20.685   1.752  52.715  1.00  0.00     0.002 A 
HETATM   13  C7  UNL     1      21.034   0.684  51.820  1.00  0.00     0.007 A 
HETATM   14  C8  UNL     1      21.370   0.735  50.540  1.00  0.00     0.050 A 
HETATM   15  S1  UNL     1      21.421   2.359  49.725  1.00  0.00    -0.104 SA
ENDBRANCH   9  10
ENDBRANCH   7   9
ENDBRANCH   5   7
ENDBRANCH   1   5
BRANCH   3  16
HETATM   16  C10 UNL     1      25.071   2.017  53.148  1.00  0.00     0.035 A 
HETATM   17  C11 UNL     1      24.607   0.727  53.216  1.00  0.00     0.029 A 
HETATM   18  C12 UNL     1      25.345  -0.394  53.512  1.00  0.00     0.003 A 
HETATM   19  C13 UNL     1      26.687  -0.215  53.769  1.00  0.00     0.015 A 
HETATM   20  C14 UNL     1      27.224   1.042  53.720  1.00  0.00     0.011 A 
HETATM   21  C17 UNL     1      26.417   2.114  53.415  1.00  0.00     0.044 A 
BRANCH  20  22
HETATM   22  C15 UNL     1      28.644   1.279  53.984  1.00  0.00     0.155 C 
HETATM   23  C16 UNL     1      29.677   0.255  53.698  1.00  0.00     0.096 C 
HETATM   24  O2  UNL     1      29.042   2.378  54.469  1.00  0.00    -0.293 OA
ENDBRANCH  20  22
ENDBRANCH   3  16
TORSDOF 6
ENDMDL
