MODEL 1
REMARK VINA RESULT:      -9.5      0.000      0.000
REMARK  3 active torsions:
REMARK  status: ('A' for Active; 'I' for Inactive)
REMARK    1  A    between atoms: C10_12  and  N3_13 
REMARK       I    between atoms: N3_13  and  C11_14 
REMARK    2  A    between atoms: C11_14  and  C12_16 
REMARK    3  A    between atoms: N4_21  and  O2_22 
ROOT
HETATM    1  N3  UNL     1      25.143   4.946  50.882  1.00  0.00    -0.327 N 
HETATM    2  C11 UNL     1      25.842   4.880  49.643  1.00  0.00     0.226 C 
HETATM    3  O1  UNL     1      25.755   3.781  49.048  1.00  0.00    -0.273 OA
HETATM    4  H8  UNL     1      25.044   5.723  51.577  1.00  0.00     0.169 HD
ENDROOT
BRANCH   1   5
HETATM    5  C10 UNL     1      24.398   3.865  51.426  1.00  0.00     0.035 A 
HETATM    6  C9  UNL     1      23.003   3.934  51.377  1.00  0.00     0.032 A 
HETATM    7  C8  UNL     1      22.284   2.886  51.904  1.00  0.00     0.035 A 
HETATM    8  C7  UNL     1      22.912   1.797  52.467  1.00  0.00     0.070 A 
HETATM    9  N2  UNL     1      22.171   0.796  52.970  1.00  0.00    -0.241 NA
HETATM   10  C22 UNL     1      24.297   1.687  52.537  1.00  0.00     0.025 A 
HETATM   11  C6  UNL     1      22.826  -0.245  53.508  1.00  0.00     0.234 A 
HETATM   12  N1  UNL     1      24.167  -0.309  53.555  1.00  0.00    -0.240 NA
HETATM   13  C5  UNL     1      24.989   0.639  53.078  1.00  0.00     0.081 A 
HETATM   14  C4  UNL     1      26.425   0.538  53.144  1.00  0.00    -0.005 A 
HETATM   15  C3  UNL     1      27.706   1.108  52.866  1.00  0.00     0.020 A 
HETATM   16  C23 UNL     1      27.075  -0.489  53.674  1.00  0.00     0.020 A 
HETATM   17  C2  UNL     1      28.365   0.097  53.389  1.00  0.00    -0.060 A 
HETATM   18  C1  UNL     1      29.811  -0.218  53.564  1.00  0.00     0.048 C 
HETATM   19  C21 UNL     1      24.964   2.758  51.997  1.00  0.00     0.045 A 
ENDBRANCH   1   5
BRANCH   2  20
HETATM   20  C12 UNL     1      26.536   6.139  49.307  1.00  0.00     0.082 C 
HETATM   21  C13 UNL     1      27.617   5.920  48.252  1.00  0.00     0.041 C 
HETATM   22  C14 UNL     1      28.348   7.221  48.120  1.00  0.00     0.033 C 
HETATM   23  C15 UNL     1      29.728   7.000  48.762  1.00  0.00     0.034 C 
HETATM   24  C16 UNL     1      28.660   7.463  46.657  1.00  0.00     0.034 C 
HETATM   25  N4  UNL     1      27.791   8.336  48.781  1.00  0.00    -0.182 NA
HETATM   26  C17 UNL     1      26.373   8.482  48.741  1.00  0.00     0.033 C 
HETATM   27  C18 UNL     1      25.948   9.424  47.633  1.00  0.00     0.034 C 
HETATM   28  C19 UNL     1      25.982   9.151  50.052  1.00  0.00     0.034 C 
HETATM   29  C20 UNL     1      25.621   7.176  48.719  1.00  0.00     0.041 C 
BRANCH  25  30
HETATM   30  O2  UNL     1      28.320   8.555  50.012  1.00  0.00    -0.312 OA
HETATM   31  H18 UNL     1      27.796   9.306  50.414  1.00  0.00     0.237 HD
ENDBRANCH  25  30
ENDBRANCH   2  20
TORSDOF 3
ENDMDL
MODEL 2
REMARK VINA RESULT:      -9.3      3.571      6.571
REMARK  3 active torsions:
REMARK  status: ('A' for Active; 'I' for Inactive)
REMARK    1  A    between atoms: C10_12  and  N3_13 
REMARK       I    between atoms: N3_13  and  C11_14 
REMARK    2  A    between atoms: C11_14  and  C12_16 
REMARK    3  A    between atoms: N4_21  and  O2_22 
ROOT
HETATM    1  N3  UNL     1      29.589   5.989  47.721  1.00  0.00    -0.327 N 
HETATM    2  C11 UNL     1      30.687   6.700  48.285  1.00  0.00     0.226 C 
HETATM    3  O1  UNL     1      30.368   7.670  49.011  1.00  0.00    -0.273 OA
HETATM    4  H8  UNL     1      29.560   5.155  47.090  1.00  0.00     0.169 HD
ENDROOT
BRANCH   1   5
HETATM    5  C10 UNL     1      28.229   6.330  47.948  1.00  0.00     0.035 A 
HETATM    6  C9  UNL     1      27.741   7.511  47.382  1.00  0.00     0.032 A 
HETATM    7  C8  UNL     1      26.423   7.840  47.604  1.00  0.00     0.035 A 
HETATM    8  C7  UNL     1      25.601   7.034  48.360  1.00  0.00     0.070 A 
HETATM    9  N2  UNL     1      24.321   7.393  48.551  1.00  0.00    -0.241 NA
HETATM   10  C22 UNL     1      26.045   5.851  48.942  1.00  0.00     0.025 A 
HETATM   11  C6  UNL     1      23.557   6.578  49.295  1.00  0.00     0.234 A 
HETATM   12  N1  UNL     1      24.027   5.443  49.839  1.00  0.00    -0.240 NA
HETATM   13  C5  UNL     1      25.288   5.002  49.703  1.00  0.00     0.081 A 
HETATM   14  C4  UNL     1      25.760   3.778  50.300  1.00  0.00    -0.005 A 
HETATM   15  C3  UNL     1      26.832   2.858  50.520  1.00  0.00     0.020 A 
HETATM   16  C23 UNL     1      25.008   2.971  51.035  1.00  0.00     0.020 A 
HETATM   17  C2  UNL     1      26.099   2.047  51.251  1.00  0.00    -0.060 A 
HETATM   18  C1  UNL     1      26.364   0.760  51.953  1.00  0.00     0.048 C 
HETATM   19  C21 UNL     1      27.364   5.572  48.690  1.00  0.00     0.045 A 
ENDBRANCH   1   5
BRANCH   2  20
HETATM   20  C12 UNL     1      31.996   6.141  47.893  1.00  0.00     0.082 C 
HETATM   21  C13 UNL     1      33.076   6.466  48.920  1.00  0.00     0.041 C 
HETATM   22  C14 UNL     1      34.372   5.993  48.335  1.00  0.00     0.033 C 
HETATM   23  C15 UNL     1      35.153   7.260  47.951  1.00  0.00     0.034 C 
HETATM   24  C16 UNL     1      35.207   5.367  49.433  1.00  0.00     0.034 C 
HETATM   25  N4  UNL     1      34.296   5.217  47.159  1.00  0.00    -0.182 NA
HETATM   26  C17 UNL     1      33.255   4.245  47.080  1.00  0.00     0.033 C 
HETATM   27  C18 UNL     1      33.753   2.872  47.482  1.00  0.00     0.034 C 
HETATM   28  C19 UNL     1      32.874   4.155  45.608  1.00  0.00     0.034 C 
HETATM   29  C20 UNL     1      31.988   4.641  47.796  1.00  0.00     0.041 C 
BRANCH  25  30
HETATM   30  O2  UNL     1      34.440   5.944  46.021  1.00  0.00    -0.312 OA
HETATM   31  H18 UNL     1      34.586   5.286  45.283  1.00  0.00     0.237 HD
ENDBRANCH  25  30
ENDBRANCH   2  20
TORSDOF 3
ENDMDL
MODEL 3
REMARK VINA RESULT:      -9.2      2.173      7.804
REMARK  3 active torsions:
REMARK  status: ('A' for Active; 'I' for Inactive)
REMARK    1  A    between atoms: C10_12  and  N3_13 
REMARK       I    between atoms: N3_13  and  C11_14 
REMARK    2  A    between atoms: C11_14  and  C12_16 
REMARK    3  A    between atoms: N4_21  and  O2_22 
ROOT
HETATM    1  N3  UNL     1      25.258   3.195  51.756  1.00  0.00    -0.327 N 
HETATM    2  C11 UNL     1      26.540   2.617  51.529  1.00  0.00     0.226 C 
HETATM    3  O1  UNL     1      27.168   3.095  50.555  1.00  0.00    -0.273 OA
HETATM    4  H8  UNL     1      24.531   2.996  52.482  1.00  0.00     0.169 HD
ENDROOT
BRANCH   1   5
HETATM    5  C10 UNL     1      24.709   4.234  50.957  1.00  0.00     0.035 A 
HETATM    6  C9  UNL     1      23.346   4.513  51.081  1.00  0.00     0.032 A 
HETATM    7  C8  UNL     1      22.817   5.519  50.305  1.00  0.00     0.035 A 
HETATM    8  C7  UNL     1      23.601   6.236  49.428  1.00  0.00     0.070 A 
HETATM    9  N2  UNL     1      23.043   7.209  48.691  1.00  0.00    -0.241 NA
HETATM   10  C22 UNL     1      24.961   5.992  49.272  1.00  0.00     0.025 A 
HETATM   11  C6  UNL     1      23.845   7.881  47.850  1.00  0.00     0.234 A 
HETATM   12  N1  UNL     1      25.156   7.612  47.731  1.00  0.00    -0.240 NA
HETATM   13  C5  UNL     1      25.801   6.661  48.425  1.00  0.00     0.081 A 
HETATM   14  C4  UNL     1      27.210   6.398  48.273  1.00  0.00    -0.005 A 
HETATM   15  C3  UNL     1      28.360   5.638  48.650  1.00  0.00     0.020 A 
HETATM   16  C23 UNL     1      28.005   7.060  47.444  1.00  0.00     0.020 A 
HETATM   17  C2  UNL     1      29.162   6.285  47.832  1.00  0.00    -0.060 A 
HETATM   18  C1  UNL     1      30.614   6.191  47.514  1.00  0.00     0.048 C 
HETATM   19  C21 UNL     1      25.436   4.980  50.069  1.00  0.00     0.045 A 
ENDBRANCH   1   5
BRANCH   2  20
HETATM   20  C12 UNL     1      26.872   1.557  52.501  1.00  0.00     0.082 C 
HETATM   21  C13 UNL     1      26.212   0.231  52.134  1.00  0.00     0.041 C 
HETATM   22  C14 UNL     1      26.488  -0.707  53.269  1.00  0.00     0.033 C 
HETATM   23  C15 UNL     1      25.149  -0.893  54.001  1.00  0.00     0.034 C 
HETATM   24  C16 UNL     1      26.792  -2.081  52.708  1.00  0.00     0.034 C 
HETATM   25  N4  UNL     1      27.405  -0.271  54.248  1.00  0.00    -0.182 NA
HETATM   26  C17 UNL     1      28.566   0.423  53.798  1.00  0.00     0.033 C 
HETATM   27  C18 UNL     1      29.751  -0.512  53.672  1.00  0.00     0.034 C 
HETATM   28  C19 UNL     1      28.914   1.418  54.898  1.00  0.00     0.034 C 
HETATM   29  C20 UNL     1      28.344   1.257  52.562  1.00  0.00     0.041 C 
BRANCH  25  30
HETATM   30  O2  UNL     1      26.812   0.312  55.322  1.00  0.00    -0.312 OA
HETATM   31  H18 UNL     1      27.552   0.650  55.904  1.00  0.00     0.237 HD
ENDBRANCH  25  30
ENDBRANCH   2  20
TORSDOF 3
ENDMDL
MODEL 4
REMARK VINA RESULT:      -9.1      2.146      3.360
REMARK  3 active torsions:
REMARK  status: ('A' for Active; 'I' for Inactive)
REMARK    1  A    between atoms: C10_12  and  N3_13 
REMARK       I    between atoms: N3_13  and  C11_14 
REMARK    2  A    between atoms: C11_14  and  C12_16 
REMARK    3  A    between atoms: N4_21  and  O2_22 
ROOT
HETATM    1  N3  UNL     1      27.172   6.127  49.140  1.00  0.00    -0.327 N 
HETATM    2  C11 UNL     1      28.346   5.529  48.596  1.00  0.00     0.226 C 
HETATM    3  O1  UNL     1      28.206   4.342  48.223  1.00  0.00    -0.273 OA
HETATM    4  H8  UNL     1      27.001   7.086  49.522  1.00  0.00     0.169 HD
ENDROOT
BRANCH   1   5
HETATM    5  C10 UNL     1      25.928   5.452  49.261  1.00  0.00     0.035 A 
HETATM    6  C9  UNL     1      24.815   5.997  48.616  1.00  0.00     0.032 A 
HETATM    7  C8  UNL     1      23.611   5.342  48.736  1.00  0.00     0.035 A 
HETATM    8  C7  UNL     1      23.496   4.181  49.469  1.00  0.00     0.070 A 
HETATM    9  N2  UNL     1      22.301   3.575  49.559  1.00  0.00    -0.241 NA
HETATM   10  C22 UNL     1      24.577   3.605  50.128  1.00  0.00     0.025 A 
HETATM   11  C6  UNL     1      22.237   2.447  50.285  1.00  0.00     0.234 A 
HETATM   12  N1  UNL     1      23.308   1.924  50.905  1.00  0.00    -0.240 NA
HETATM   13  C5  UNL     1      24.539   2.457  50.872  1.00  0.00     0.081 A 
HETATM   14  C4  UNL     1      25.667   1.870  51.550  1.00  0.00    -0.005 A 
HETATM   15  C3  UNL     1      27.058   1.917  51.878  1.00  0.00     0.020 A 
HETATM   16  C23 UNL     1      25.607   0.756  52.266  1.00  0.00     0.020 A 
HETATM   17  C2  UNL     1      27.014   0.814  52.593  1.00  0.00    -0.060 A 
HETATM   18  C1  UNL     1      28.025   0.038  53.364  1.00  0.00     0.048 C 
HETATM   19  C21 UNL     1      25.751   4.298  49.975  1.00  0.00     0.045 A 
ENDBRANCH   1   5
BRANCH   2  20
HETATM   20  C12 UNL     1      29.503   6.445  48.583  1.00  0.00     0.082 C 
HETATM   21  C13 UNL     1      30.706   5.820  47.883  1.00  0.00     0.041 C 
HETATM   22  C14 UNL     1      31.849   6.769  48.078  1.00  0.00     0.033 C 
HETATM   23  C15 UNL     1      32.797   6.091  49.081  1.00  0.00     0.034 C 
HETATM   24  C16 UNL     1      32.657   6.835  46.798  1.00  0.00     0.034 C 
HETATM   25  N4  UNL     1      31.544   8.031  48.630  1.00  0.00    -0.182 NA
HETATM   26  C17 UNL     1      30.351   8.672  48.183  1.00  0.00     0.033 C 
HETATM   27  C18 UNL     1      30.643   9.666  47.077  1.00  0.00     0.034 C 
HETATM   28  C19 UNL     1      29.837   9.479  49.367  1.00  0.00     0.034 C 
HETATM   29  C20 UNL     1      29.235   7.720  47.834  1.00  0.00     0.041 C 
BRANCH  25  30
HETATM   30  O2  UNL     1      31.712   8.087  49.977  1.00  0.00    -0.312 OA
HETATM   31  H18 UNL     1      32.679   8.289  50.131  1.00  0.00     0.237 HD
ENDBRANCH  25  30
ENDBRANCH   2  20
TORSDOF 3
ENDMDL
MODEL 5
REMARK VINA RESULT:      -9.1      2.148      2.828
REMARK  3 active torsions:
REMARK  status: ('A' for Active; 'I' for Inactive)
REMARK    1  A    between atoms: C10_12  and  N3_13 
REMARK       I    between atoms: N3_13  and  C11_14 
REMARK    2  A    between atoms: C11_14  and  C12_16 
REMARK    3  A    between atoms: N4_21  and  O2_22 
ROOT
HETATM    1  N3  UNL     1      22.704   3.925  51.077  1.00  0.00    -0.327 N 
HETATM    2  C11 UNL     1      23.268   5.115  51.620  1.00  0.00     0.226 C 
HETATM    3  O1  UNL     1      23.303   5.158  52.871  1.00  0.00    -0.273 OA
HETATM    4  H8  UNL     1      22.551   3.624  50.087  1.00  0.00     0.169 HD
ENDROOT
BRANCH   1   5
HETATM    5  C10 UNL     1      22.212   2.853  51.870  1.00  0.00     0.035 A 
HETATM    6  C9  UNL     1      20.839   2.795  52.123  1.00  0.00     0.032 A 
HETATM    7  C8  UNL     1      20.365   1.757  52.892  1.00  0.00     0.035 A 
HETATM    8  C7  UNL     1      21.212   0.798  53.402  1.00  0.00     0.070 A 
HETATM    9  N2  UNL     1      20.706  -0.198  54.148  1.00  0.00    -0.241 NA
HETATM   10  C22 UNL     1      22.584   0.817  53.176  1.00  0.00     0.025 A 
HETATM   11  C6  UNL     1      21.569  -1.110  54.624  1.00  0.00     0.234 A 
HETATM   12  N1  UNL     1      22.888  -1.053  54.380  1.00  0.00    -0.240 NA
HETATM   13  C5  UNL     1      23.484  -0.099  53.648  1.00  0.00     0.081 A 
HETATM   14  C4  UNL     1      24.905  -0.067  53.405  1.00  0.00    -0.005 A 
HETATM   15  C3  UNL     1      26.029   0.576  52.800  1.00  0.00     0.020 A 
HETATM   16  C23 UNL     1      25.759  -0.966  53.873  1.00  0.00     0.020 A 
HETATM   17  C2  UNL     1      26.889  -0.308  53.257  1.00  0.00    -0.060 A 
HETATM   18  C1  UNL     1      28.364  -0.475  53.139  1.00  0.00     0.048 C 
HETATM   19  C21 UNL     1      23.002   1.873  52.404  1.00  0.00     0.045 A 
ENDBRANCH   1   5
BRANCH   2  20
HETATM   20  C12 UNL     1      23.703   6.070  50.581  1.00  0.00     0.082 C 
HETATM   21  C13 UNL     1      25.190   5.924  50.271  1.00  0.00     0.041 C 
HETATM   22  C14 UNL     1      25.538   7.041  49.335  1.00  0.00     0.033 C 
HETATM   23  C15 UNL     1      26.384   8.032  50.152  1.00  0.00     0.034 C 
HETATM   24  C16 UNL     1      26.498   6.521  48.285  1.00  0.00     0.034 C 
HETATM   25  N4  UNL     1      24.466   7.793  48.812  1.00  0.00    -0.182 NA
HETATM   26  C17 UNL     1      23.292   7.080  48.425  1.00  0.00     0.033 C 
HETATM   27  C18 UNL     1      23.293   6.784  46.939  1.00  0.00     0.034 C 
HETATM   28  C19 UNL     1      22.124   8.024  48.679  1.00  0.00     0.034 C 
HETATM   29  C20 UNL     1      23.009   5.860  49.264  1.00  0.00     0.041 C 
BRANCH  25  30
HETATM   30  O2  UNL     1      24.201   8.922  49.518  1.00  0.00    -0.312 OA
HETATM   31  H18 UNL     1      24.609   8.792  50.421  1.00  0.00     0.237 HD
ENDBRANCH  25  30
ENDBRANCH   2  20
TORSDOF 3
ENDMDL
MODEL 6
REMARK VINA RESULT:      -9.0      4.017      8.329
REMARK  3 active torsions:
REMARK  status: ('A' for Active; 'I' for Inactive)
REMARK    1  A    between atoms: C10_12  and  N3_13 
REMARK       I    between atoms: N3_13  and  C11_14 
REMARK    2  A    between atoms: C11_14  and  C12_16 
REMARK    3  A    between atoms: N4_21  and  O2_22 
ROOT
HETATM    1  N3  UNL     1      20.783   0.560  52.527  1.00  0.00    -0.327 N 
HETATM    2  C11 UNL     1      20.563   0.518  51.120  1.00  0.00     0.226 C 
HETATM    3  O1  UNL     1      21.545   0.129  50.446  1.00  0.00    -0.273 OA
HETATM    4  H8  UNL     1      20.154   0.840  53.315  1.00  0.00     0.169 HD
ENDROOT
BRANCH   1   5
HETATM    5  C10 UNL     1      22.009   0.194  53.144  1.00  0.00     0.035 A 
HETATM    6  C9  UNL     1      21.973  -0.738  54.185  1.00  0.00     0.032 A 
HETATM    7  C8  UNL     1      23.162  -1.091  54.781  1.00  0.00     0.035 A 
HETATM    8  C7  UNL     1      24.358  -0.546  54.371  1.00  0.00     0.070 A 
HETATM    9  N2  UNL     1      25.495  -0.919  54.982  1.00  0.00    -0.241 NA
HETATM   10  C22 UNL     1      24.441   0.385  53.341  1.00  0.00     0.025 A 
HETATM   11  C6  UNL     1      26.638  -0.361  54.549  1.00  0.00     0.234 A 
HETATM   12  N1  UNL     1      26.671   0.535  53.549  1.00  0.00    -0.240 NA
HETATM   13  C5  UNL     1      25.591   0.967  52.881  1.00  0.00     0.081 A 
HETATM   14  C4  UNL     1      25.662   1.930  51.811  1.00  0.00    -0.005 A 
HETATM   15  C3  UNL     1      24.990   2.711  50.820  1.00  0.00     0.020 A 
HETATM   16  C23 UNL     1      26.788   2.481  51.381  1.00  0.00     0.020 A 
HETATM   17  C2  UNL     1      26.098   3.268  50.383  1.00  0.00    -0.060 A 
HETATM   18  C1  UNL     1      26.409   4.262  49.318  1.00  0.00     0.048 C 
HETATM   19  C21 UNL     1      23.228   0.700  52.782  1.00  0.00     0.045 A 
ENDBRANCH   1   5
BRANCH   2  20
HETATM   20  C12 UNL     1      19.204   0.950  50.738  1.00  0.00     0.082 C 
HETATM   21  C13 UNL     1      18.145  -0.034  51.226  1.00  0.00     0.041 C 
HETATM   22  C14 UNL     1      16.843   0.423  50.643  1.00  0.00     0.033 C 
HETATM   23  C15 UNL     1      16.481  -0.602  49.556  1.00  0.00     0.034 C 
HETATM   24  C16 UNL     1      15.753   0.254  51.682  1.00  0.00     0.034 C 
HETATM   25  N4  UNL     1      16.836   1.680  50.003  1.00  0.00    -0.182 NA
HETATM   26  C17 UNL     1      17.578   2.733  50.617  1.00  0.00     0.033 C 
HETATM   27  C18 UNL     1      16.686   3.606  51.475  1.00  0.00     0.034 C 
HETATM   28  C19 UNL     1      18.081   3.612  49.479  1.00  0.00     0.034 C 
HETATM   29  C20 UNL     1      18.816   2.271  51.342  1.00  0.00     0.041 C 
BRANCH  25  30
HETATM   30  O2  UNL     1      17.021   1.605  48.660  1.00  0.00    -0.312 OA
HETATM   31  H18 UNL     1      17.210   0.644  48.456  1.00  0.00     0.237 HD
ENDBRANCH  25  30
ENDBRANCH   2  20
TORSDOF 3
ENDMDL
MODEL 7
REMARK VINA RESULT:      -8.9      3.479      5.425
REMARK  3 active torsions:
REMARK  status: ('A' for Active; 'I' for Inactive)
REMARK    1  A    between atoms: C10_12  and  N3_13 
REMARK       I    between atoms: N3_13  and  C11_14 
REMARK    2  A    between atoms: C11_14  and  C12_16 
REMARK    3  A    between atoms: N4_21  and  O2_22 
ROOT
HETATM    1  N3  UNL     1      24.214   3.063  50.116  1.00  0.00    -0.327 N 
HETATM    2  C11 UNL     1      23.312   4.131  50.394  1.00  0.00     0.226 C 
HETATM    3  O1  UNL     1      23.297   4.509  51.588  1.00  0.00    -0.273 OA
HETATM    4  H8  UNL     1      24.430   2.558  49.226  1.00  0.00     0.169 HD
ENDROOT
BRANCH   1   5
HETATM    5  C10 UNL     1      25.043   2.457  51.098  1.00  0.00     0.035 A 
HETATM    6  C9  UNL     1      26.391   2.820  51.140  1.00  0.00     0.032 A 
HETATM    7  C8  UNL     1      27.192   2.231  52.091  1.00  0.00     0.035 A 
HETATM    8  C7  UNL     1      26.688   1.307  52.980  1.00  0.00     0.070 A 
HETATM    9  N2  UNL     1      27.506   0.756  53.892  1.00  0.00    -0.241 NA
HETATM   10  C22 UNL     1      25.353   0.915  52.973  1.00  0.00     0.025 A 
HETATM   11  C6  UNL     1      26.971  -0.139  54.737  1.00  0.00     0.234 A 
HETATM   12  N1  UNL     1      25.675  -0.488  54.695  1.00  0.00    -0.240 NA
HETATM   13  C5  UNL     1      24.783   0.007  53.823  1.00  0.00     0.081 A 
HETATM   14  C4  UNL     1      23.398  -0.390  53.805  1.00  0.00    -0.005 A 
HETATM   15  C3  UNL     1      22.098  -0.270  53.222  1.00  0.00     0.020 A 
HETATM   16  C23 UNL     1      22.867  -1.273  54.638  1.00  0.00     0.020 A 
HETATM   17  C2  UNL     1      21.556  -1.144  54.042  1.00  0.00    -0.060 A 
HETATM   18  C1  UNL     1      20.182  -1.696  54.208  1.00  0.00     0.048 C 
HETATM   19  C21 UNL     1      24.601   1.534  52.006  1.00  0.00     0.045 A 
ENDBRANCH   1   5
BRANCH   2  20
HETATM   20  C12 UNL     1      22.568   4.579  49.200  1.00  0.00     0.082 C 
HETATM   21  C13 UNL     1      23.151   5.868  48.627  1.00  0.00     0.041 C 
HETATM   22  C14 UNL     1      22.223   6.302  47.534  1.00  0.00     0.033 C 
HETATM   23  C15 UNL     1      21.487   7.541  48.069  1.00  0.00     0.034 C 
HETATM   24  C16 UNL     1      23.042   6.835  46.376  1.00  0.00     0.034 C 
HETATM   25  N4  UNL     1      21.215   5.391  47.153  1.00  0.00    -0.182 NA
HETATM   26  C17 UNL     1      21.572   4.013  47.073  1.00  0.00     0.033 C 
HETATM   27  C18 UNL     1      21.917   3.616  45.652  1.00  0.00     0.034 C 
HETATM   28  C19 UNL     1      20.321   3.231  47.450  1.00  0.00     0.034 C 
HETATM   29  C20 UNL     1      22.622   3.590  48.069  1.00  0.00     0.041 C 
BRANCH  25  30
HETATM   30  O2  UNL     1      20.029   5.604  47.780  1.00  0.00    -0.312 OA
HETATM   31  H18 UNL     1      19.949   6.593  47.904  1.00  0.00     0.237 HD
ENDBRANCH  25  30
ENDBRANCH   2  20
TORSDOF 3
ENDMDL
MODEL 8
REMARK VINA RESULT:      -8.9      1.986      3.173
REMARK  3 active torsions:
REMARK  status: ('A' for Active; 'I' for Inactive)
REMARK    1  A    between atoms: C10_12  and  N3_13 
REMARK       I    between atoms: N3_13  and  C11_14 
REMARK    2  A    between atoms: C11_14  and  C12_16 
REMARK    3  A    between atoms: N4_21  and  O2_22 
ROOT
HETATM    1  N3  UNL     1      22.837   4.091  51.181  1.00  0.00    -0.327 N 
HETATM    2  C11 UNL     1      23.269   4.012  49.826  1.00  0.00     0.226 C 
HETATM    3  O1  UNL     1      23.137   2.884  49.297  1.00  0.00    -0.273 OA
HETATM    4  H8  UNL     1      22.830   4.890  51.856  1.00  0.00     0.169 HD
ENDROOT
BRANCH   1   5
HETATM    5  C10 UNL     1      22.293   2.993  51.900  1.00  0.00     0.035 A 
HETATM    6  C9  UNL     1      20.911   2.954  52.101  1.00  0.00     0.032 A 
HETATM    7  C8  UNL     1      20.387   1.890  52.799  1.00  0.00     0.035 A 
HETATM    8  C7  UNL     1      21.194   0.887  53.289  1.00  0.00     0.070 A 
HETATM    9  N2  UNL     1      20.640  -0.133  53.964  1.00  0.00    -0.241 NA
HETATM   10  C22 UNL     1      22.574   0.886  53.112  1.00  0.00     0.025 A 
HETATM   11  C6  UNL     1      21.465  -1.087  54.423  1.00  0.00     0.234 A 
HETATM   12  N1  UNL     1      22.794  -1.049  54.229  1.00  0.00    -0.240 NA
HETATM   13  C5  UNL     1      23.436  -0.073  53.568  1.00  0.00     0.081 A 
HETATM   14  C4  UNL     1      24.865  -0.062  53.378  1.00  0.00    -0.005 A 
HETATM   15  C3  UNL     1      26.024   0.584  52.846  1.00  0.00     0.020 A 
HETATM   16  C23 UNL     1      25.682  -1.003  53.830  1.00  0.00     0.020 A 
HETATM   17  C2  UNL     1      26.848  -0.341  53.288  1.00  0.00    -0.060 A 
HETATM   18  C1  UNL     1      28.323  -0.537  53.213  1.00  0.00     0.048 C 
HETATM   19  C21 UNL     1      23.042   1.969  52.411  1.00  0.00     0.045 A 
ENDBRANCH   1   5
BRANCH   2  20
HETATM   20  C12 UNL     1      23.794   5.294  49.315  1.00  0.00     0.082 C 
HETATM   21  C13 UNL     1      22.728   6.385  49.333  1.00  0.00     0.041 C 
HETATM   22  C14 UNL     1      23.328   7.574  48.648  1.00  0.00     0.033 C 
HETATM   23  C15 UNL     1      22.613   7.688  47.291  1.00  0.00     0.034 C 
HETATM   24  C16 UNL     1      22.911   8.829  49.387  1.00  0.00     0.034 C 
HETATM   25  N4  UNL     1      24.706   7.513  48.353  1.00  0.00    -0.182 NA
HETATM   26  C17 UNL     1      25.563   6.940  49.338  1.00  0.00     0.033 C 
HETATM   27  C18 UNL     1      26.199   8.008  50.203  1.00  0.00     0.034 C 
HETATM   28  C19 UNL     1      26.697   6.271  48.571  1.00  0.00     0.034 C 
HETATM   29  C20 UNL     1      24.923   5.838  50.144  1.00  0.00     0.041 C 
BRANCH  25  30
HETATM   30  O2  UNL     1      24.970   7.081  47.093  1.00  0.00    -0.312 OA
HETATM   31  H18 UNL     1      25.318   6.148  47.182  1.00  0.00     0.237 HD
ENDBRANCH  25  30
ENDBRANCH   2  20
TORSDOF 3
ENDMDL
MODEL 9
REMARK VINA RESULT:      -8.9      2.236      7.784
REMARK  3 active torsions:
REMARK  status: ('A' for Active; 'I' for Inactive)
REMARK    1  A    between atoms: C10_12  and  N3_13 
REMARK       I    between atoms: N3_13  and  C11_14 
REMARK    2  A    between atoms: C11_14  and  C12_16 
REMARK    3  A    between atoms: N4_21  and  O2_22 
ROOT
HETATM    1  N3  UNL     1      25.562   3.213  51.583  1.00  0.00    -0.327 N 
HETATM    2  C11 UNL     1      26.519   2.262  51.127  1.00  0.00     0.226 C 
HETATM    3  O1  UNL     1      26.877   2.406  49.935  1.00  0.00    -0.273 OA
HETATM    4  H8  UNL     1      25.095   3.330  52.512  1.00  0.00     0.169 HD
ENDROOT
BRANCH   1   5
HETATM    5  C10 UNL     1      25.037   4.255  50.771  1.00  0.00     0.035 A 
HETATM    6  C9  UNL     1      23.673   4.542  50.865  1.00  0.00     0.032 A 
HETATM    7  C8  UNL     1      23.168   5.551  50.077  1.00  0.00     0.035 A 
HETATM    8  C7  UNL     1      23.976   6.263  49.218  1.00  0.00     0.070 A 
HETATM    9  N2  UNL     1      23.441   7.240  48.468  1.00  0.00    -0.241 NA
HETATM   10  C22 UNL     1      25.338   6.010  49.092  1.00  0.00     0.025 A 
HETATM   11  C6  UNL     1      24.266   7.906  47.645  1.00  0.00     0.234 A 
HETATM   12  N1  UNL     1      25.577   7.628  47.555  1.00  0.00    -0.240 NA
HETATM   13  C5  UNL     1      26.200   6.674  48.264  1.00  0.00     0.081 A 
HETATM   14  C4  UNL     1      27.611   6.402  48.143  1.00  0.00    -0.005 A 
HETATM   15  C3  UNL     1      28.748   5.634  48.546  1.00  0.00     0.020 A 
HETATM   16  C23 UNL     1      28.428   7.059  47.332  1.00  0.00     0.020 A 
HETATM   17  C2  UNL     1      29.571   6.276  47.746  1.00  0.00    -0.060 A 
HETATM   18  C1  UNL     1      31.030   6.173  47.461  1.00  0.00     0.048 C 
HETATM   19  C21 UNL     1      25.788   4.995  49.899  1.00  0.00     0.045 A 
ENDBRANCH   1   5
BRANCH   2  20
HETATM   20  C12 UNL     1      26.899   1.285  52.167  1.00  0.00     0.082 C 
HETATM   21  C13 UNL     1      28.151   1.724  52.919  1.00  0.00     0.041 C 
HETATM   22  C14 UNL     1      28.522   0.588  53.822  1.00  0.00     0.033 C 
HETATM   23  C15 UNL     1      29.792  -0.037  53.219  1.00  0.00     0.034 C 
HETATM   24  C16 UNL     1      28.986   1.148  55.151  1.00  0.00     0.034 C 
HETATM   25  N4  UNL     1      27.592  -0.466  53.936  1.00  0.00    -0.182 NA
HETATM   26  C17 UNL     1      26.211  -0.118  54.009  1.00  0.00     0.033 C 
HETATM   27  C18 UNL     1      25.733  -0.066  55.446  1.00  0.00     0.034 C 
HETATM   28  C19 UNL     1      25.454  -1.258  53.341  1.00  0.00     0.034 C 
HETATM   29  C20 UNL     1      25.846   1.117  53.226  1.00  0.00     0.041 C 
BRANCH  25  30
HETATM   30  O2  UNL     1      27.842  -1.502  53.093  1.00  0.00    -0.312 OA
HETATM   31  H18 UNL     1      28.773  -1.807  53.291  1.00  0.00     0.237 HD
ENDBRANCH  25  30
ENDBRANCH   2  20
TORSDOF 3
ENDMDL
