MODEL 1
REMARK VINA RESULT:      -7.8      0.000      0.000
REMARK  6 active torsions:
REMARK  status: ('A' for Active; 'I' for Inactive)
REMARK    1  A    between atoms: O1_2  and  C2_3 
REMARK    2  A    between atoms: C2_3  and  C3_4 
REMARK    3  A    between atoms: C3_4  and  O3_26 
REMARK    4  A    between atoms: C4_5  and  C5_6 
REMARK    5  A    between atoms: C9_11  and  N2_12 
REMARK    6  A    between atoms: N2_12  and  C10_13 
ROOT
HETATM    1  C5  UNL     1      23.246   0.160  53.340  1.00  0.00     0.078 C 
HETATM    2  C6  UNL     1      22.950  -0.760  54.275  1.00  0.00     0.030 C 
HETATM    3  C7  UNL     1      21.866  -1.734  54.452  1.00  0.00     0.150 C 
HETATM    4  N1  UNL     1      20.556  -1.138  54.231  1.00  0.00    -0.380 N 
HETATM    5  C8  UNL     1      20.151  -0.501  53.021  1.00  0.00     0.129 A 
HETATM    6  C9  UNL     1      18.793  -0.600  52.819  1.00  0.00     0.160 A 
HETATM    7  N3  UNL     1      18.285  -0.031  51.718  1.00  0.00    -0.222 NA
HETATM    8  C16 UNL     1      19.104   0.601  50.867  1.00  0.00     0.238 A 
HETATM    9  N4  UNL     1      20.453   0.721  51.027  1.00  0.00    -0.215 NA
HETATM   10  C17 UNL     1      21.015   0.158  52.137  1.00  0.00     0.202 A 
HETATM   11  O2  UNL     1      22.410   0.329  52.220  1.00  0.00    -0.290 OA
HETATM   12  H10 UNL     1      19.788  -1.116  54.937  1.00  0.00     0.160 HD
ENDROOT
BRANCH   6  13
HETATM   13  N2  UNL     1      17.918  -1.263  53.719  1.00  0.00    -0.339 N 
HETATM   14  H11 UNL     1      17.694  -1.170  54.719  1.00  0.00     0.167 HD
BRANCH  13  15
HETATM   15  C10 UNL     1      17.091  -2.345  53.333  1.00  0.00     0.035 A 
HETATM   16  C11 UNL     1      17.416  -3.624  53.727  1.00  0.00     0.032 A 
HETATM   17  C12 UNL     1      16.684  -4.716  53.373  1.00  0.00     0.046 A 
HETATM   18  C13 UNL     1      15.544  -4.598  52.578  1.00  0.00     0.138 A 
HETATM   19  F1  UNL     1      14.770  -5.637  52.189  1.00  0.00    -0.204 F 
HETATM   20  C14 UNL     1      15.163  -3.349  52.151  1.00  0.00     0.074 A 
HETATM   21 CL1  UNL     1      13.749  -3.023  51.141  1.00  0.00    -0.081 Cl
HETATM   22  C15 UNL     1      15.941  -2.283  52.538  1.00  0.00     0.056 A 
ENDBRANCH  13  15
ENDBRANCH   6  13
BRANCH   1  23
HETATM   23  C4  UNL     1      24.439   0.985  53.482  1.00  0.00     0.071 C 
HETATM   24  C3  UNL     1      25.674   0.613  53.324  1.00  0.00     0.072 C 
BRANCH  24  25
HETATM   25  C2  UNL     1      26.332  -0.641  52.979  1.00  0.00     0.231 C 
BRANCH  25  26
HETATM   26  O1  UNL     1      27.294  -0.894  53.972  1.00  0.00    -0.390 OA
HETATM   27  C1  UNL     1      28.516  -1.254  53.376  1.00  0.00     0.201 C 
ENDBRANCH  25  26
ENDBRANCH  24  25
BRANCH  24  28
HETATM   28  O3  UNL     1      26.693   1.570  53.508  1.00  0.00    -0.358 OA
HETATM   29  C18 UNL     1      27.159   2.145  52.281  1.00  0.00     0.209 C 
ENDBRANCH  24  28
ENDBRANCH   1  23
TORSDOF 6
ENDMDL
MODEL 2
REMARK VINA RESULT:      -7.7      1.699      2.493
REMARK  6 active torsions:
REMARK  status: ('A' for Active; 'I' for Inactive)
REMARK    1  A    between atoms: O1_2  and  C2_3 
REMARK    2  A    between atoms: C2_3  and  C3_4 
REMARK    3  A    between atoms: C3_4  and  O3_26 
REMARK    4  A    between atoms: C4_5  and  C5_6 
REMARK    5  A    between atoms: C9_11  and  N2_12 
REMARK    6  A    between atoms: N2_12  and  C10_13 
ROOT
HETATM    1  C5  UNL     1      24.592  -0.629  54.359  1.00  0.00     0.078 C 
HETATM    2  C6  UNL     1      23.894  -1.292  55.298  1.00  0.00     0.030 C 
HETATM    3  C7  UNL     1      22.556  -1.893  55.351  1.00  0.00     0.150 C 
HETATM    4  N1  UNL     1      21.533  -0.994  54.836  1.00  0.00    -0.380 N 
HETATM    5  C8  UNL     1      21.530  -0.443  53.521  1.00  0.00     0.129 A 
HETATM    6  C9  UNL     1      20.252  -0.188  53.075  1.00  0.00     0.160 A 
HETATM    7  N3  UNL     1      20.114   0.341  51.853  1.00  0.00    -0.222 NA
HETATM    8  C16 UNL     1      21.206   0.598  51.120  1.00  0.00     0.238 A 
HETATM    9  N4  UNL     1      22.488   0.360  51.521  1.00  0.00    -0.215 NA
HETATM   10  C17 UNL     1      22.677  -0.179  52.762  1.00  0.00     0.202 A 
HETATM   11  O2  UNL     1      24.029  -0.391  53.092  1.00  0.00    -0.290 OA
HETATM   12  H10 UNL     1      20.707  -0.662  55.379  1.00  0.00     0.160 HD
ENDROOT
BRANCH   6  13
HETATM   13  N2  UNL     1      19.091  -0.452  53.848  1.00  0.00    -0.339 N 
HETATM   14  H11 UNL     1      18.760  -0.177  54.784  1.00  0.00     0.167 HD
BRANCH  13  15
HETATM   15  C10 UNL     1      18.036  -1.280  53.395  1.00  0.00     0.035 A 
HETATM   16  C11 UNL     1      17.031  -0.740  52.624  1.00  0.00     0.032 A 
HETATM   17  C12 UNL     1      15.971  -1.468  52.175  1.00  0.00     0.046 A 
HETATM   18  C13 UNL     1      15.844  -2.823  52.475  1.00  0.00     0.138 A 
HETATM   19  F1  UNL     1      14.820  -3.606  52.063  1.00  0.00    -0.204 F 
HETATM   20  C14 UNL     1      16.813  -3.425  53.241  1.00  0.00     0.074 A 
HETATM   21 CL1  UNL     1      16.804  -5.128  53.712  1.00  0.00    -0.081 Cl
HETATM   22  C15 UNL     1      17.859  -2.641  53.668  1.00  0.00     0.056 A 
ENDBRANCH  13  15
ENDBRANCH   6  13
BRANCH   1  23
HETATM   23  C4  UNL     1      25.939  -0.156  54.652  1.00  0.00     0.071 C 
HETATM   24  C3  UNL     1      26.449   1.001  54.349  1.00  0.00     0.072 C 
BRANCH  24  25
HETATM   25  C2  UNL     1      25.956   2.191  53.665  1.00  0.00     0.231 C 
BRANCH  25  26
HETATM   26  O1  UNL     1      26.255   2.039  52.300  1.00  0.00    -0.390 OA
HETATM   27  C1  UNL     1      25.306   2.727  51.522  1.00  0.00     0.201 C 
ENDBRANCH  25  26
ENDBRANCH  24  25
BRANCH  24  28
HETATM   28  O3  UNL     1      27.781   1.268  54.723  1.00  0.00    -0.358 OA
HETATM   29  C18 UNL     1      28.625   0.110  54.680  1.00  0.00     0.209 C 
ENDBRANCH  24  28
ENDBRANCH   1  23
TORSDOF 6
ENDMDL
MODEL 3
REMARK VINA RESULT:      -7.7      6.855      9.459
REMARK  6 active torsions:
REMARK  status: ('A' for Active; 'I' for Inactive)
REMARK    1  A    between atoms: O1_2  and  C2_3 
REMARK    2  A    between atoms: C2_3  and  C3_4 
REMARK    3  A    between atoms: C3_4  and  O3_26 
REMARK    4  A    between atoms: C4_5  and  C5_6 
REMARK    5  A    between atoms: C9_11  and  N2_12 
REMARK    6  A    between atoms: N2_12  and  C10_13 
ROOT
HETATM    1  C5  UNL     1      24.776   5.217  48.984  1.00  0.00     0.078 C 
HETATM    2  C6  UNL     1      26.072   4.891  49.128  1.00  0.00     0.030 C 
HETATM    3  C7  UNL     1      26.787   3.790  49.785  1.00  0.00     0.150 C 
HETATM    4  N1  UNL     1      26.293   3.545  51.132  1.00  0.00    -0.380 N 
HETATM    5  C8  UNL     1      24.942   3.216  51.449  1.00  0.00     0.129 A 
HETATM    6  C9  UNL     1      24.856   2.447  52.588  1.00  0.00     0.160 A 
HETATM    7  N3  UNL     1      23.636   2.078  52.999  1.00  0.00    -0.222 NA
HETATM    8  C16 UNL     1      22.561   2.464  52.298  1.00  0.00     0.238 A 
HETATM    9  N4  UNL     1      22.601   3.224  51.165  1.00  0.00    -0.215 NA
HETATM   10  C17 UNL     1      23.825   3.624  50.710  1.00  0.00     0.202 A 
HETATM   11  O2  UNL     1      23.771   4.402  49.538  1.00  0.00    -0.290 OA
HETATM   12  H10 UNL     1      26.877   3.590  51.995  1.00  0.00     0.160 HD
ENDROOT
BRANCH   6  13
HETATM   13  N2  UNL     1      25.989   2.039  53.340  1.00  0.00    -0.339 N 
HETATM   14  H11 UNL     1      26.576   2.472  54.067  1.00  0.00     0.167 HD
BRANCH  13  15
HETATM   15  C10 UNL     1      26.607   0.775  53.178  1.00  0.00     0.035 A 
HETATM   16  C11 UNL     1      25.866  -0.289  52.713  1.00  0.00     0.032 A 
HETATM   17  C12 UNL     1      26.385  -1.538  52.557  1.00  0.00     0.046 A 
HETATM   18  C13 UNL     1      27.717  -1.814  52.864  1.00  0.00     0.138 A 
HETATM   19  F1  UNL     1      28.297  -3.029  52.733  1.00  0.00    -0.204 F 
HETATM   20  C14 UNL     1      28.511  -0.796  53.332  1.00  0.00     0.074 A 
HETATM   21 CL1  UNL     1      30.215  -0.974  53.767  1.00  0.00    -0.081 Cl
HETATM   22  C15 UNL     1      27.935   0.445  53.472  1.00  0.00     0.056 A 
ENDBRANCH  13  15
ENDBRANCH   6  13
BRANCH   1  23
HETATM   23  C4  UNL     1      24.405   6.420  48.248  1.00  0.00     0.071 C 
HETATM   24  C3  UNL     1      23.928   7.525  48.738  1.00  0.00     0.072 C 
BRANCH  24  25
HETATM   25  C2  UNL     1      23.594   7.992  50.078  1.00  0.00     0.231 C 
BRANCH  25  26
HETATM   26  O1  UNL     1      22.193   8.086  50.147  1.00  0.00    -0.390 OA
HETATM   27  C1  UNL     1      21.668   6.956  50.801  1.00  0.00     0.201 C 
ENDBRANCH  25  26
ENDBRANCH  24  25
BRANCH  24  28
HETATM   28  O3  UNL     1      23.631   8.580  47.853  1.00  0.00    -0.358 OA
HETATM   29  C18 UNL     1      24.479   8.607  46.697  1.00  0.00     0.209 C 
ENDBRANCH  24  28
ENDBRANCH   1  23
TORSDOF 6
ENDMDL
MODEL 4
REMARK VINA RESULT:      -7.7      3.398      4.598
REMARK  6 active torsions:
REMARK  status: ('A' for Active; 'I' for Inactive)
REMARK    1  A    between atoms: O1_2  and  C2_3 
REMARK    2  A    between atoms: C2_3  and  C3_4 
REMARK    3  A    between atoms: C3_4  and  O3_26 
REMARK    4  A    between atoms: C4_5  and  C5_6 
REMARK    5  A    between atoms: C9_11  and  N2_12 
REMARK    6  A    between atoms: N2_12  and  C10_13 
ROOT
HETATM    1  C5  UNL     1      25.801  -0.019  52.886  1.00  0.00     0.078 C 
HETATM    2  C6  UNL     1      25.711   0.956  51.964  1.00  0.00     0.030 C 
HETATM    3  C7  UNL     1      24.675   1.929  51.596  1.00  0.00     0.150 C 
HETATM    4  N1  UNL     1      23.365   1.309  51.464  1.00  0.00    -0.380 N 
HETATM    5  C8  UNL     1      22.703   0.591  52.503  1.00  0.00     0.129 A 
HETATM    6  C9  UNL     1      21.333   0.664  52.384  1.00  0.00     0.160 A 
HETATM    7  N3  UNL     1      20.594   0.021  53.297  1.00  0.00    -0.222 NA
HETATM    8  C16 UNL     1      21.205  -0.658  54.278  1.00  0.00     0.238 A 
HETATM    9  N4  UNL     1      22.557  -0.755  54.434  1.00  0.00    -0.215 NA
HETATM   10  C17 UNL     1      23.350  -0.116  53.525  1.00  0.00     0.202 A 
HETATM   11  O2  UNL     1      24.729  -0.268  53.763  1.00  0.00    -0.290 OA
HETATM   12  H10 UNL     1      22.786   1.325  50.597  1.00  0.00     0.160 HD
ENDROOT
BRANCH   6  13
HETATM   13  N2  UNL     1      20.679   1.376  51.345  1.00  0.00    -0.339 N 
HETATM   14  H11 UNL     1      20.988   1.933  50.536  1.00  0.00     0.167 HD
BRANCH  13  15
HETATM   15  C10 UNL     1      19.270   1.467  51.241  1.00  0.00     0.035 A 
HETATM   16  C11 UNL     1      18.558   0.412  50.713  1.00  0.00     0.032 A 
HETATM   17  C12 UNL     1      17.206   0.437  50.558  1.00  0.00     0.046 A 
HETATM   18  C13 UNL     1      16.454   1.550  50.932  1.00  0.00     0.138 A 
HETATM   19  F1  UNL     1      15.110   1.644  50.807  1.00  0.00    -0.204 F 
HETATM   20  C14 UNL     1      17.102   2.637  51.467  1.00  0.00     0.074 A 
HETATM   21 CL1  UNL     1      16.302   4.123  51.992  1.00  0.00    -0.081 Cl
HETATM   22  C15 UNL     1      18.468   2.557  51.599  1.00  0.00     0.056 A 
ENDBRANCH  13  15
ENDBRANCH   6  13
BRANCH   1  23
HETATM   23  C4  UNL     1      27.013  -0.822  52.980  1.00  0.00     0.071 C 
HETATM   24  C3  UNL     1      28.034  -0.615  53.758  1.00  0.00     0.072 C 
BRANCH  24  25
HETATM   25  C2  UNL     1      28.375   0.390  54.757  1.00  0.00     0.231 C 
BRANCH  25  26
HETATM   26  O1  UNL     1      29.343   1.233  54.185  1.00  0.00    -0.390 OA
HETATM   27  C1  UNL     1      28.727   2.384  53.659  1.00  0.00     0.201 C 
ENDBRANCH  25  26
ENDBRANCH  24  25
BRANCH  24  28
HETATM   28  O3  UNL     1      29.118  -1.515  53.698  1.00  0.00    -0.358 OA
HETATM   29  C18 UNL     1      28.778  -2.774  53.104  1.00  0.00     0.209 C 
ENDBRANCH  24  28
ENDBRANCH   1  23
TORSDOF 6
ENDMDL
MODEL 5
REMARK VINA RESULT:      -7.6      7.383      9.764
REMARK  6 active torsions:
REMARK  status: ('A' for Active; 'I' for Inactive)
REMARK    1  A    between atoms: O1_2  and  C2_3 
REMARK    2  A    between atoms: C2_3  and  C3_4 
REMARK    3  A    between atoms: C3_4  and  O3_26 
REMARK    4  A    between atoms: C4_5  and  C5_6 
REMARK    5  A    between atoms: C9_11  and  N2_12 
REMARK    6  A    between atoms: N2_12  and  C10_13 
ROOT
HETATM    1  C5  UNL     1      24.259   1.345  52.548  1.00  0.00     0.078 C 
HETATM    2  C6  UNL     1      24.532   2.497  53.185  1.00  0.00     0.030 C 
HETATM    3  C7  UNL     1      24.149   3.899  52.983  1.00  0.00     0.150 C 
HETATM    4  N1  UNL     1      24.305   4.312  51.595  1.00  0.00    -0.380 N 
HETATM    5  C8  UNL     1      23.652   3.692  50.490  1.00  0.00     0.129 A 
HETATM    6  C9  UNL     1      23.440   4.578  49.457  1.00  0.00     0.160 A 
HETATM    7  N3  UNL     1      22.841   4.114  48.353  1.00  0.00    -0.222 NA
HETATM    8  C16 UNL     1      22.475   2.827  48.294  1.00  0.00     0.238 A 
HETATM    9  N4  UNL     1      22.664   1.917  49.293  1.00  0.00    -0.215 NA
HETATM   10  C17 UNL     1      23.273   2.345  50.438  1.00  0.00     0.202 A 
HETATM   11  O2  UNL     1      23.426   1.341  51.413  1.00  0.00    -0.290 OA
HETATM   12  H10 UNL     1      24.911   5.098  51.275  1.00  0.00     0.160 HD
ENDROOT
BRANCH   6  13
HETATM   13  N2  UNL     1      23.830   5.942  49.509  1.00  0.00    -0.339 N 
HETATM   14  H11 UNL     1      23.444   6.794  49.940  1.00  0.00     0.167 HD
BRANCH  13  15
HETATM   15  C10 UNL     1      24.986   6.438  48.860  1.00  0.00     0.035 A 
HETATM   16  C11 UNL     1      24.898   7.578  48.091  1.00  0.00     0.032 A 
HETATM   17  C12 UNL     1      25.960   8.099  47.418  1.00  0.00     0.046 A 
HETATM   18  C13 UNL     1      27.217   7.498  47.470  1.00  0.00     0.138 A 
HETATM   19  F1  UNL     1      28.315   7.961  46.828  1.00  0.00    -0.204 F 
HETATM   20  C14 UNL     1      27.374   6.358  48.220  1.00  0.00     0.074 A 
HETATM   21 CL1  UNL     1      28.895   5.475  48.394  1.00  0.00    -0.081 Cl
HETATM   22  C15 UNL     1      26.267   5.876  48.878  1.00  0.00     0.056 A 
ENDBRANCH  13  15
ENDBRANCH   6  13
BRANCH   1  23
HETATM   23  C4  UNL     1      24.824   0.092  53.033  1.00  0.00     0.071 C 
HETATM   24  C3  UNL     1      26.074  -0.264  53.017  1.00  0.00     0.072 C 
BRANCH  24  25
HETATM   25  C2  UNL     1      27.312   0.358  52.562  1.00  0.00     0.231 C 
BRANCH  25  26
HETATM   26  O1  UNL     1      27.920   0.942  53.686  1.00  0.00    -0.390 OA
HETATM   27  C1  UNL     1      28.233   2.288  53.417  1.00  0.00     0.201 C 
ENDBRANCH  25  26
ENDBRANCH  24  25
BRANCH  24  28
HETATM   28  O3  UNL     1      26.420  -1.527  53.538  1.00  0.00    -0.358 OA
HETATM   29  C18 UNL     1      27.178  -2.330  52.624  1.00  0.00     0.209 C 
ENDBRANCH  24  28
ENDBRANCH   1  23
TORSDOF 6
ENDMDL
MODEL 6
REMARK VINA RESULT:      -7.5      7.381     10.249
REMARK  6 active torsions:
REMARK  status: ('A' for Active; 'I' for Inactive)
REMARK    1  A    between atoms: O1_2  and  C2_3 
REMARK    2  A    between atoms: C2_3  and  C3_4 
REMARK    3  A    between atoms: C3_4  and  O3_26 
REMARK    4  A    between atoms: C4_5  and  C5_6 
REMARK    5  A    between atoms: C9_11  and  N2_12 
REMARK    6  A    between atoms: N2_12  and  C10_13 
ROOT
HETATM    1  C5  UNL     1      25.043   1.475  52.762  1.00  0.00     0.078 C 
HETATM    2  C6  UNL     1      26.023   1.476  51.842  1.00  0.00     0.030 C 
HETATM    3  C7  UNL     1      26.577   2.486  50.932  1.00  0.00     0.150 C 
HETATM    4  N1  UNL     1      25.534   3.209  50.219  1.00  0.00    -0.380 N 
HETATM    5  C8  UNL     1      24.494   3.954  50.848  1.00  0.00     0.129 A 
HETATM    6  C9  UNL     1      24.063   4.998  50.060  1.00  0.00     0.160 A 
HETATM    7  N3  UNL     1      23.079   5.772  50.536  1.00  0.00    -0.222 NA
HETATM    8  C16 UNL     1      22.558   5.506  51.741  1.00  0.00     0.238 A 
HETATM    9  N4  UNL     1      22.955   4.484  52.554  1.00  0.00    -0.215 NA
HETATM   10  C17 UNL     1      23.955   3.669  52.109  1.00  0.00     0.202 A 
HETATM   11  O2  UNL     1      24.300   2.644  53.011  1.00  0.00    -0.290 OA
HETATM   12  H10 UNL     1      25.444   3.249  49.181  1.00  0.00     0.160 HD
ENDROOT
BRANCH   6  13
HETATM   13  N2  UNL     1      24.606   5.283  48.780  1.00  0.00    -0.339 N 
HETATM   14  H11 UNL     1      24.389   4.993  47.816  1.00  0.00     0.167 HD
BRANCH  13  15
HETATM   15  C10 UNL     1      25.721   6.134  48.587  1.00  0.00     0.035 A 
HETATM   16  C11 UNL     1      25.520   7.481  48.381  1.00  0.00     0.032 A 
HETATM   17  C12 UNL     1      26.541   8.355  48.163  1.00  0.00     0.046 A 
HETATM   18  C13 UNL     1      27.868   7.928  48.135  1.00  0.00     0.138 A 
HETATM   19  F1  UNL     1      28.929   8.740  47.924  1.00  0.00    -0.204 F 
HETATM   20  C14 UNL     1      28.138   6.596  48.334  1.00  0.00     0.074 A 
HETATM   21 CL1  UNL     1      29.758   5.891  48.330  1.00  0.00    -0.081 Cl
HETATM   22  C15 UNL     1      27.068   5.759  48.548  1.00  0.00     0.056 A 
ENDBRANCH  13  15
ENDBRANCH   6  13
BRANCH   1  23
HETATM   23  C4  UNL     1      24.747   0.259  53.510  1.00  0.00     0.071 C 
HETATM   24  C3  UNL     1      25.420  -0.234  54.507  1.00  0.00     0.072 C 
BRANCH  24  25
HETATM   25  C2  UNL     1      26.622   0.164  55.229  1.00  0.00     0.231 C 
BRANCH  25  26
HETATM   26  O1  UNL     1      27.679  -0.623  54.740  1.00  0.00    -0.390 OA
HETATM   27  C1  UNL     1      28.753   0.201  54.355  1.00  0.00     0.201 C 
ENDBRANCH  25  26
ENDBRANCH  24  25
BRANCH  24  28
HETATM   28  O3  UNL     1      24.965  -1.429  55.099  1.00  0.00    -0.358 OA
HETATM   29  C18 UNL     1      23.608  -1.358  55.552  1.00  0.00     0.209 C 
ENDBRANCH  24  28
ENDBRANCH   1  23
TORSDOF 6
ENDMDL
MODEL 7
REMARK VINA RESULT:      -7.5      6.454      9.652
REMARK  6 active torsions:
REMARK  status: ('A' for Active; 'I' for Inactive)
REMARK    1  A    between atoms: O1_2  and  C2_3 
REMARK    2  A    between atoms: C2_3  and  C3_4 
REMARK    3  A    between atoms: C3_4  and  O3_26 
REMARK    4  A    between atoms: C4_5  and  C5_6 
REMARK    5  A    between atoms: C9_11  and  N2_12 
REMARK    6  A    between atoms: N2_12  and  C10_13 
ROOT
HETATM    1  C5  UNL     1      23.694   4.522  48.926  1.00  0.00     0.078 C 
HETATM    2  C6  UNL     1      25.022   4.706  49.029  1.00  0.00     0.030 C 
HETATM    3  C7  UNL     1      26.103   4.014  49.741  1.00  0.00     0.150 C 
HETATM    4  N1  UNL     1      25.757   3.746  51.130  1.00  0.00    -0.380 N 
HETATM    5  C8  UNL     1      24.627   2.983  51.548  1.00  0.00     0.129 A 
HETATM    6  C9  UNL     1      24.849   2.357  52.754  1.00  0.00     0.160 A 
HETATM    7  N3  UNL     1      23.857   1.615  53.262  1.00  0.00    -0.222 NA
HETATM    8  C16 UNL     1      22.703   1.510  52.588  1.00  0.00     0.238 A 
HETATM    9  N4  UNL     1      22.442   2.111  51.392  1.00  0.00    -0.215 NA
HETATM   10  C17 UNL     1      23.425   2.879  50.837  1.00  0.00     0.202 A 
HETATM   11  O2  UNL     1      23.069   3.459  49.604  1.00  0.00    -0.290 OA
HETATM   12  H10 UNL     1      26.299   4.088  51.953  1.00  0.00     0.160 HD
ENDROOT
BRANCH   6  13
HETATM   13  N2  UNL     1      26.066   2.468  53.477  1.00  0.00    -0.339 N 
HETATM   14  H11 UNL     1      26.498   3.190  54.071  1.00  0.00     0.167 HD
BRANCH  13  15
HETATM   15  C10 UNL     1      27.051   1.451  53.489  1.00  0.00     0.035 A 
HETATM   16  C11 UNL     1      28.339   1.757  53.870  1.00  0.00     0.032 A 
HETATM   17  C12 UNL     1      29.344   0.839  53.882  1.00  0.00     0.046 A 
HETATM   18  C13 UNL     1      29.121  -0.484  53.502  1.00  0.00     0.138 A 
HETATM   19  F1  UNL     1      30.071  -1.448  53.489  1.00  0.00    -0.204 F 
HETATM   20  C14 UNL     1      27.858  -0.856  53.110  1.00  0.00     0.074 A 
HETATM   21 CL1  UNL     1      27.406  -2.487  52.600  1.00  0.00    -0.081 Cl
HETATM   22  C15 UNL     1      26.882   0.113  53.117  1.00  0.00     0.056 A 
ENDBRANCH  13  15
ENDBRANCH   6  13
BRANCH   1  23
HETATM   23  C4  UNL     1      22.895   5.425  48.107  1.00  0.00     0.071 C 
HETATM   24  C3  UNL     1      22.176   5.116  47.069  1.00  0.00     0.072 C 
BRANCH  24  25
HETATM   25  C2  UNL     1      21.887   3.879  46.354  1.00  0.00     0.231 C 
BRANCH  25  26
HETATM   26  O1  UNL     1      20.497   3.678  46.418  1.00  0.00    -0.390 OA
HETATM   27  C1  UNL     1      20.167   2.970  47.588  1.00  0.00     0.201 C 
ENDBRANCH  25  26
ENDBRANCH  24  25
BRANCH  24  28
HETATM   28  O3  UNL     1      21.472   6.143  46.409  1.00  0.00    -0.358 OA
HETATM   29  C18 UNL     1      20.983   7.157  47.297  1.00  0.00     0.209 C 
ENDBRANCH  24  28
ENDBRANCH   1  23
TORSDOF 6
ENDMDL
MODEL 8
REMARK VINA RESULT:      -7.5      6.426      7.976
REMARK  6 active torsions:
REMARK  status: ('A' for Active; 'I' for Inactive)
REMARK    1  A    between atoms: O1_2  and  C2_3 
REMARK    2  A    between atoms: C2_3  and  C3_4 
REMARK    3  A    between atoms: C3_4  and  O3_26 
REMARK    4  A    between atoms: C4_5  and  C5_6 
REMARK    5  A    between atoms: C9_11  and  N2_12 
REMARK    6  A    between atoms: N2_12  and  C10_13 
ROOT
HETATM    1  C5  UNL     1      25.709   0.698  52.100  1.00  0.00     0.078 C 
HETATM    2  C6  UNL     1      24.482   0.726  52.649  1.00  0.00     0.030 C 
HETATM    3  C7  UNL     1      23.285   1.553  52.449  1.00  0.00     0.150 C 
HETATM    4  N1  UNL     1      23.602   2.973  52.418  1.00  0.00    -0.380 N 
HETATM    5  C8  UNL     1      24.505   3.579  51.495  1.00  0.00     0.129 A 
HETATM    6  C9  UNL     1      24.173   4.890  51.239  1.00  0.00     0.160 A 
HETATM    7  N3  UNL     1      24.952   5.575  50.392  1.00  0.00    -0.222 NA
HETATM    8  C16 UNL     1      26.009   4.969  49.834  1.00  0.00     0.238 A 
HETATM    9  N4  UNL     1      26.373   3.674  50.059  1.00  0.00    -0.215 NA
HETATM   10  C17 UNL     1      25.608   2.937  50.917  1.00  0.00     0.202 A 
HETATM   11  O2  UNL     1      26.056   1.613  51.089  1.00  0.00    -0.290 OA
HETATM   12  H10 UNL     1      23.203   3.684  53.068  1.00  0.00     0.160 HD
ENDROOT
BRANCH   6  13
HETATM   13  N2  UNL     1      23.058   5.541  51.830  1.00  0.00    -0.339 N 
HETATM   14  H11 UNL     1      22.782   5.785  52.791  1.00  0.00     0.167 HD
BRANCH  13  15
HETATM   15  C10 UNL     1      21.960   6.025  51.078  1.00  0.00     0.035 A 
HETATM   16  C11 UNL     1      21.004   5.142  50.627  1.00  0.00     0.032 A 
HETATM   17  C12 UNL     1      19.936   5.529  49.877  1.00  0.00     0.046 A 
HETATM   18  C13 UNL     1      19.747   6.863  49.520  1.00  0.00     0.138 A 
HETATM   19  F1  UNL     1      18.710   7.318  48.779  1.00  0.00    -0.204 F 
HETATM   20  C14 UNL     1      20.664   7.796  49.938  1.00  0.00     0.074 A 
HETATM   21 CL1  UNL     1      20.574   9.523  49.574  1.00  0.00    -0.081 Cl
HETATM   22  C15 UNL     1      21.724   7.348  50.691  1.00  0.00     0.056 A 
ENDBRANCH  13  15
ENDBRANCH   6  13
BRANCH   1  23
HETATM   23  C4  UNL     1      26.685  -0.286  52.549  1.00  0.00     0.071 C 
HETATM   24  C3  UNL     1      27.431  -0.225  53.612  1.00  0.00     0.072 C 
BRANCH  24  25
HETATM   25  C2  UNL     1      27.598   0.739  54.693  1.00  0.00     0.231 C 
BRANCH  25  26
HETATM   26  O1  UNL     1      27.455   2.020  54.132  1.00  0.00    -0.390 OA
HETATM   27  C1  UNL     1      28.703   2.487  53.679  1.00  0.00     0.201 C 
ENDBRANCH  25  26
ENDBRANCH  24  25
BRANCH  24  28
HETATM   28  O3  UNL     1      28.319  -1.288  53.873  1.00  0.00    -0.358 OA
HETATM   29  C18 UNL     1      29.671  -1.003  53.491  1.00  0.00     0.209 C 
ENDBRANCH  24  28
ENDBRANCH   1  23
TORSDOF 6
ENDMDL
MODEL 9
REMARK VINA RESULT:      -7.3      6.785     10.719
REMARK  6 active torsions:
REMARK  status: ('A' for Active; 'I' for Inactive)
REMARK    1  A    between atoms: O1_2  and  C2_3 
REMARK    2  A    between atoms: C2_3  and  C3_4 
REMARK    3  A    between atoms: C3_4  and  O3_26 
REMARK    4  A    between atoms: C4_5  and  C5_6 
REMARK    5  A    between atoms: C9_11  and  N2_12 
REMARK    6  A    between atoms: N2_12  and  C10_13 
ROOT
HETATM    1  C5  UNL     1      24.826   1.237  52.898  1.00  0.00     0.078 C 
HETATM    2  C6  UNL     1      25.855   1.034  52.057  1.00  0.00     0.030 C 
HETATM    3  C7  UNL     1      26.666   1.904  51.196  1.00  0.00     0.150 C 
HETATM    4  N1  UNL     1      25.844   2.809  50.406  1.00  0.00    -0.380 N 
HETATM    5  C8  UNL     1      24.926   3.753  50.955  1.00  0.00     0.129 A 
HETATM    6  C9  UNL     1      24.771   4.851  50.139  1.00  0.00     0.160 A 
HETATM    7  N3  UNL     1      23.925   5.809  50.539  1.00  0.00    -0.222 NA
HETATM    8  C16 UNL     1      23.271   5.666  51.700  1.00  0.00     0.238 A 
HETATM    9  N4  UNL     1      23.395   4.596  52.538  1.00  0.00    -0.215 NA
HETATM   10  C17 UNL     1      24.246   3.594  52.170  1.00  0.00     0.202 A 
HETATM   11  O2  UNL     1      24.312   2.533  53.092  1.00  0.00    -0.290 OA
HETATM   12  H10 UNL     1      25.843   2.854  49.364  1.00  0.00     0.160 HD
ENDROOT
BRANCH   6  13
HETATM   13  N2  UNL     1      25.456   5.008  48.906  1.00  0.00    -0.339 N 
HETATM   14  H11 UNL     1      25.314   4.667  47.945  1.00  0.00     0.167 HD
BRANCH  13  15
HETATM   15  C10 UNL     1      26.646   5.764  48.776  1.00  0.00     0.035 A 
HETATM   16  C11 UNL     1      26.609   7.128  48.965  1.00  0.00     0.032 A 
HETATM   17  C12 UNL     1      27.706   7.923  48.831  1.00  0.00     0.046 A 
HETATM   18  C13 UNL     1      28.949   7.392  48.489  1.00  0.00     0.138 A 
HETATM   19  F1  UNL     1      30.079   8.121  48.340  1.00  0.00    -0.204 F 
HETATM   20  C14 UNL     1      29.055   6.037  48.286  1.00  0.00     0.074 A 
HETATM   21 CL1  UNL     1      30.552   5.205  47.849  1.00  0.00    -0.081 Cl
HETATM   22  C15 UNL     1      27.915   5.283  48.434  1.00  0.00     0.056 A 
ENDBRANCH  13  15
ENDBRANCH   6  13
BRANCH   1  23
HETATM   23  C4  UNL     1      24.239   0.113  53.616  1.00  0.00     0.071 C 
HETATM   24  C3  UNL     1      22.986  -0.231  53.649  1.00  0.00     0.072 C 
BRANCH  24  25
HETATM   25  C2  UNL     1      21.763   0.294  53.054  1.00  0.00     0.231 C 
BRANCH  25  26
HETATM   26  O1  UNL     1      21.935   0.268  51.659  1.00  0.00    -0.390 OA
HETATM   27  C1  UNL     1      20.694   0.440  51.019  1.00  0.00     0.201 C 
ENDBRANCH  25  26
ENDBRANCH  24  25
BRANCH  24  28
HETATM   28  O3  UNL     1      22.618  -1.360  54.408  1.00  0.00    -0.358 OA
HETATM   29  C18 UNL     1      21.200  -1.545  54.498  1.00  0.00     0.209 C 
ENDBRANCH  24  28
ENDBRANCH   1  23
TORSDOF 6
ENDMDL
