MODEL 1
REMARK VINA RESULT:      -7.5      0.000      0.000
REMARK  3 active torsions:
REMARK  status: ('A' for Active; 'I' for Inactive)
REMARK       I    between atoms: C2_2  and  N1_4 
REMARK    1  A    between atoms: N2_7  and  C5_8 
REMARK    2  A    between atoms: C5_8  and  C6_9 
REMARK    3  A    between atoms: C9_12  and  C10_13 
ROOT
HETATM    1  C6  UNL     1      23.089   0.892  52.212  1.00  0.00     0.096 C 
HETATM    2  C7  UNL     1      22.085   1.976  52.610  1.00  0.00    -0.048 C 
HETATM    3  C8  UNL     1      20.887   1.501  52.912  1.00  0.00     0.015 C 
HETATM    4  C9  UNL     1      20.457   0.680  51.690  1.00  0.00    -0.028 C 
HETATM    5  C11 UNL     1      21.248   0.546  50.559  1.00  0.00     0.037 C 
HETATM    6  C12 UNL     1      22.472   1.325  50.840  1.00  0.00     0.039 C 
HETATM    7  N3  UNL     1      23.505   2.108  50.930  1.00  0.00    -0.289 NA
HETATM    8  C13 UNL     1      23.230   2.861  52.301  1.00  0.00     0.184 C 
ENDROOT
BRANCH   1   9
HETATM    9  C5  UNL     1      24.487   0.974  52.353  1.00  0.00     0.287 C 
BRANCH   9  10
HETATM   10  N2  UNL     1      25.041  -0.353  52.780  1.00  0.00     0.092 N 
HETATM   11  C4  UNL     1      26.371  -0.491  52.193  1.00  0.00     0.292 C 
HETATM   12  C3  UNL     1      27.340  -1.079  53.190  1.00  0.00     0.156 C 
HETATM   13  N1  UNL     1      27.640  -0.037  54.123  1.00  0.00    -0.349 N 
HETATM   14  C2  UNL     1      28.936   0.434  54.327  1.00  0.00     0.215 C 
HETATM   15  C15 UNL     1      26.417   0.363  54.719  1.00  0.00     0.156 C 
HETATM   16  C1  UNL     1      30.068  -0.134  53.553  1.00  0.00     0.117 C 
HETATM   17  O1  UNL     1      29.107   1.359  55.189  1.00  0.00    -0.274 OA
HETATM   18  C14 UNL     1      25.177  -0.346  54.240  1.00  0.00     0.292 C 
ENDBRANCH   9  10
ENDBRANCH   1   9
BRANCH   4  19
HETATM   19  C10 UNL     1      19.132   0.013  51.696  1.00  0.00     0.261 C 
HETATM   20  F1  UNL     1      19.113  -0.819  52.797  1.00  0.00    -0.251 F 
ENDBRANCH   4  19
TORSDOF 3
ENDMDL
MODEL 2
REMARK VINA RESULT:      -7.2      1.901      2.358
REMARK  3 active torsions:
REMARK  status: ('A' for Active; 'I' for Inactive)
REMARK       I    between atoms: C2_2  and  N1_4 
REMARK    1  A    between atoms: N2_7  and  C5_8 
REMARK    2  A    between atoms: C5_8  and  C6_9 
REMARK    3  A    between atoms: C9_12  and  C10_13 
ROOT
HETATM    1  C6  UNL     1      23.439   1.179  51.738  1.00  0.00     0.096 C 
HETATM    2  C7  UNL     1      21.922   1.007  51.637  1.00  0.00    -0.048 C 
HETATM    3  C8  UNL     1      21.515   0.599  50.444  1.00  0.00     0.015 C 
HETATM    4  C9  UNL     1      22.088   1.618  49.452  1.00  0.00    -0.028 C 
HETATM    5  C11 UNL     1      22.854   2.705  49.848  1.00  0.00     0.037 C 
HETATM    6  C12 UNL     1      22.946   2.605  51.319  1.00  0.00     0.039 C 
HETATM    7  N3  UNL     1      22.950   2.691  52.616  1.00  0.00    -0.289 NA
HETATM    8  C13 UNL     1      21.978   1.506  53.029  1.00  0.00     0.184 C 
ENDROOT
BRANCH   1   9
HETATM    9  C5  UNL     1      24.202   1.074  52.916  1.00  0.00     0.287 C 
BRANCH   9  10
HETATM   10  N2  UNL     1      24.846  -0.278  52.995  1.00  0.00     0.092 N 
HETATM   11  C4  UNL     1      26.125  -0.205  52.295  1.00  0.00     0.292 C 
HETATM   12  C3  UNL     1      27.199  -0.938  53.061  1.00  0.00     0.156 C 
HETATM   13  N1  UNL     1      27.534  -0.110  54.178  1.00  0.00    -0.349 N 
HETATM   14  C2  UNL     1      28.822   0.383  54.385  1.00  0.00     0.215 C 
HETATM   15  C15 UNL     1      26.352   0.077  54.937  1.00  0.00     0.156 C 
HETATM   16  C1  UNL     1      29.907   0.066  53.421  1.00  0.00     0.117 C 
HETATM   17  O1  UNL     1      29.027   1.105  55.416  1.00  0.00    -0.274 OA
HETATM   18  C14 UNL     1      25.106  -0.583  54.405  1.00  0.00     0.292 C 
ENDBRANCH   9  10
ENDBRANCH   1   9
BRANCH   4  19
HETATM   19  C10 UNL     1      21.802   1.459  48.006  1.00  0.00     0.261 C 
HETATM   20  F1  UNL     1      22.933   1.867  47.330  1.00  0.00    -0.251 F 
ENDBRANCH   4  19
TORSDOF 3
ENDMDL
MODEL 3
REMARK VINA RESULT:      -6.7      2.293      2.679
REMARK  3 active torsions:
REMARK  status: ('A' for Active; 'I' for Inactive)
REMARK       I    between atoms: C2_2  and  N1_4 
REMARK    1  A    between atoms: N2_7  and  C5_8 
REMARK    2  A    between atoms: C5_8  and  C6_9 
REMARK    3  A    between atoms: C9_12  and  C10_13 
ROOT
HETATM    1  C6  UNL     1      23.856   2.117  51.162  1.00  0.00     0.096 C 
HETATM    2  C7  UNL     1      22.492   2.806  51.252  1.00  0.00    -0.048 C 
HETATM    3  C8  UNL     1      21.626   2.383  50.344  1.00  0.00     0.015 C 
HETATM    4  C9  UNL     1      22.327   2.577  48.994  1.00  0.00    -0.028 C 
HETATM    5  C11 UNL     1      23.605   3.104  48.880  1.00  0.00     0.037 C 
HETATM    6  C12 UNL     1      24.039   3.386  50.264  1.00  0.00     0.039 C 
HETATM    7  N3  UNL     1      24.444   3.814  51.422  1.00  0.00    -0.289 NA
HETATM    8  C13 UNL     1      23.171   3.553  52.335  1.00  0.00     0.184 C 
ENDROOT
BRANCH   1   9
HETATM    9  C5  UNL     1      24.758   1.936  52.226  1.00  0.00     0.287 C 
BRANCH   9  10
HETATM   10  N2  UNL     1      25.102   0.483  52.371  1.00  0.00     0.092 N 
HETATM   11  C4  UNL     1      26.458   0.293  51.866  1.00  0.00     0.292 C 
HETATM   12  C3  UNL     1      27.241  -0.633  52.765  1.00  0.00     0.156 C 
HETATM   13  N1  UNL     1      27.567   0.123  53.935  1.00  0.00    -0.349 N 
HETATM   14  C2  UNL     1      28.883   0.350  54.337  1.00  0.00     0.215 C 
HETATM   15  C15 UNL     1      26.347   0.549  54.518  1.00  0.00     0.156 C 
HETATM   16  C1  UNL     1      30.012  -0.186  53.535  1.00  0.00     0.117 C 
HETATM   17  O1  UNL     1      29.074   1.027  55.401  1.00  0.00    -0.274 OA
HETATM   18  C14 UNL     1      25.087   0.147  53.798  1.00  0.00     0.292 C 
ENDBRANCH   9  10
ENDBRANCH   1   9
BRANCH   4  19
HETATM   19  C10 UNL     1      21.612   2.209  47.749  1.00  0.00     0.261 C 
HETATM   20  F1  UNL     1      22.520   2.338  46.718  1.00  0.00    -0.251 F 
ENDBRANCH   4  19
TORSDOF 3
ENDMDL
MODEL 4
REMARK VINA RESULT:      -6.7      3.719      6.813
REMARK  3 active torsions:
REMARK  status: ('A' for Active; 'I' for Inactive)
REMARK       I    between atoms: C2_2  and  N1_4 
REMARK    1  A    between atoms: N2_7  and  C5_8 
REMARK    2  A    between atoms: C5_8  and  C6_9 
REMARK    3  A    between atoms: C9_12  and  C10_13 
ROOT
HETATM    1  C6  UNL     1      25.529   0.623  53.417  1.00  0.00     0.096 C 
HETATM    2  C7  UNL     1      26.055  -0.057  54.684  1.00  0.00    -0.048 C 
HETATM    3  C8  UNL     1      27.315   0.242  54.958  1.00  0.00     0.015 C 
HETATM    4  C9  UNL     1      28.102  -0.119  53.692  1.00  0.00    -0.028 C 
HETATM    5  C11 UNL     1      27.501  -0.649  52.560  1.00  0.00     0.037 C 
HETATM    6  C12 UNL     1      26.064  -0.750  52.888  1.00  0.00     0.039 C 
HETATM    7  N3  UNL     1      24.819  -1.024  53.138  1.00  0.00    -0.289 NA
HETATM    8  C13 UNL     1      24.701  -0.656  54.678  1.00  0.00     0.184 C 
ENDROOT
BRANCH   1   9
HETATM    9  C5  UNL     1      24.184   0.943  53.154  1.00  0.00     0.287 C 
BRANCH   9  10
HETATM   10  N2  UNL     1      24.091   2.298  52.519  1.00  0.00     0.092 N 
HETATM   11  C4  UNL     1      24.489   2.164  51.121  1.00  0.00     0.292 C 
HETATM   12  C3  UNL     1      23.579   2.967  50.223  1.00  0.00     0.156 C 
HETATM   13  N1  UNL     1      22.346   2.245  50.150  1.00  0.00    -0.349 N 
HETATM   14  C2  UNL     1      21.823   1.777  48.945  1.00  0.00     0.215 C 
HETATM   15  C15 UNL     1      21.846   2.127  51.471  1.00  0.00     0.156 C 
HETATM   16  C1  UNL     1      22.555   2.007  47.674  1.00  0.00     0.117 C 
HETATM   17  O1  UNL     1      20.711   1.153  48.979  1.00  0.00    -0.274 OA
HETATM   18  C14 UNL     1      22.691   2.731  52.562  1.00  0.00     0.292 C 
ENDBRANCH   9  10
ENDBRANCH   1   9
BRANCH   4  19
HETATM   19  C10 UNL     1      29.571   0.083  53.671  1.00  0.00     0.261 C 
HETATM   20  F1  UNL     1      30.142  -1.138  53.962  1.00  0.00    -0.251 F 
ENDBRANCH   4  19
TORSDOF 3
ENDMDL
MODEL 5
REMARK VINA RESULT:      -6.6      2.265      3.313
REMARK  3 active torsions:
REMARK  status: ('A' for Active; 'I' for Inactive)
REMARK       I    between atoms: C2_2  and  N1_4 
REMARK    1  A    between atoms: N2_7  and  C5_8 
REMARK    2  A    between atoms: C5_8  and  C6_9 
REMARK    3  A    between atoms: C9_12  and  C10_13 
ROOT
HETATM    1  C6  UNL     1      22.318   1.737  52.615  1.00  0.00     0.096 C 
HETATM    2  C7  UNL     1      20.901   1.286  52.978  1.00  0.00    -0.048 C 
HETATM    3  C8  UNL     1      20.840   0.595  54.106  1.00  0.00     0.015 C 
HETATM    4  C9  UNL     1      21.829  -0.563  53.926  1.00  0.00    -0.028 C 
HETATM    5  C11 UNL     1      22.570  -0.744  52.767  1.00  0.00     0.037 C 
HETATM    6  C12 UNL     1      22.180   0.365  51.873  1.00  0.00     0.039 C 
HETATM    7  N3  UNL     1      21.787   1.205  50.962  1.00  0.00    -0.289 NA
HETATM    8  C13 UNL     1      20.583   1.942  51.689  1.00  0.00     0.184 C 
ENDROOT
BRANCH   1   9
HETATM    9  C5  UNL     1      22.650   2.865  51.841  1.00  0.00     0.287 C 
BRANCH   9  10
HETATM   10  N2  UNL     1      23.940   3.459  52.322  1.00  0.00     0.092 N 
HETATM   11  C4  UNL     1      24.377   2.695  53.487  1.00  0.00     0.292 C 
HETATM   12  C3  UNL     1      25.864   2.440  53.436  1.00  0.00     0.156 C 
HETATM   13  N1  UNL     1      26.065   1.428  52.445  1.00  0.00    -0.349 N 
HETATM   14  C2  UNL     1      26.660   0.202  52.738  1.00  0.00     0.215 C 
HETATM   15  C15 UNL     1      25.553   1.926  51.221  1.00  0.00     0.156 C 
HETATM   16  C1  UNL     1      27.099  -0.104  54.123  1.00  0.00     0.117 C 
HETATM   17  O1  UNL     1      26.808  -0.634  51.785  1.00  0.00    -0.274 OA
HETATM   18  C14 UNL     1      24.942   3.302  51.263  1.00  0.00     0.292 C 
ENDBRANCH   9  10
ENDBRANCH   1   9
BRANCH   4  19
HETATM   19  C10 UNL     1      21.993  -1.550  55.019  1.00  0.00     0.261 C 
HETATM   20  F1  UNL     1      23.199  -1.269  55.628  1.00  0.00    -0.251 F 
ENDBRANCH   4  19
TORSDOF 3
ENDMDL
MODEL 6
REMARK VINA RESULT:      -6.5      3.509      5.906
REMARK  3 active torsions:
REMARK  status: ('A' for Active; 'I' for Inactive)
REMARK       I    between atoms: C2_2  and  N1_4 
REMARK    1  A    between atoms: N2_7  and  C5_8 
REMARK    2  A    between atoms: C5_8  and  C6_9 
REMARK    3  A    between atoms: C9_12  and  C10_13 
ROOT
HETATM    1  C6  UNL     1      23.655   2.891  51.241  1.00  0.00     0.096 C 
HETATM    2  C7  UNL     1      25.047   3.458  50.947  1.00  0.00    -0.048 C 
HETATM    3  C8  UNL     1      25.997   2.536  50.916  1.00  0.00     0.015 C 
HETATM    4  C9  UNL     1      25.898   1.808  52.263  1.00  0.00    -0.028 C 
HETATM    5  C11 UNL     1      24.966   2.146  53.233  1.00  0.00     0.037 C 
HETATM    6  C12 UNL     1      24.193   3.268  52.662  1.00  0.00     0.039 C 
HETATM    7  N3  UNL     1      23.569   4.353  52.314  1.00  0.00    -0.289 NA
HETATM    8  C13 UNL     1      24.303   4.737  50.960  1.00  0.00     0.184 C 
ENDROOT
BRANCH   1   9
HETATM    9  C5  UNL     1      22.434   3.459  50.835  1.00  0.00     0.287 C 
BRANCH   9  10
HETATM   10  N2  UNL     1      21.455   2.379  50.481  1.00  0.00     0.092 N 
HETATM   11  C4  UNL     1      22.046   1.099  50.859  1.00  0.00     0.292 C 
HETATM   12  C3  UNL     1      21.019   0.203  51.507  1.00  0.00     0.156 C 
HETATM   13  N1  UNL     1      20.805   0.722  52.823  1.00  0.00    -0.349 N 
HETATM   14  C2  UNL     1      21.038  -0.033  53.972  1.00  0.00     0.215 C 
HETATM   15  C15 UNL     1      20.355   2.059  52.683  1.00  0.00     0.156 C 
HETATM   16  C1  UNL     1      21.541  -1.425  53.862  1.00  0.00     0.117 C 
HETATM   17  O1  UNL     1      20.808   0.513  55.102  1.00  0.00    -0.274 OA
HETATM   18  C14 UNL     1      20.239   2.581  51.275  1.00  0.00     0.292 C 
ENDBRANCH   9  10
ENDBRANCH   1   9
BRANCH   4  19
HETATM   19  C10 UNL     1      26.847   0.708  52.562  1.00  0.00     0.261 C 
HETATM   20  F1  UNL     1      26.807  -0.153  51.484  1.00  0.00    -0.251 F 
ENDBRANCH   4  19
TORSDOF 3
ENDMDL
MODEL 7
REMARK VINA RESULT:      -6.4      2.113      2.752
REMARK  3 active torsions:
REMARK  status: ('A' for Active; 'I' for Inactive)
REMARK       I    between atoms: C2_2  and  N1_4 
REMARK    1  A    between atoms: N2_7  and  C5_8 
REMARK    2  A    between atoms: C5_8  and  C6_9 
REMARK    3  A    between atoms: C9_12  and  C10_13 
ROOT
HETATM    1  C6  UNL     1      22.407   1.399  52.318  1.00  0.00     0.096 C 
HETATM    2  C7  UNL     1      21.720   0.237  51.596  1.00  0.00    -0.048 C 
HETATM    3  C8  UNL     1      21.165   0.585  50.446  1.00  0.00     0.015 C 
HETATM    4  C9  UNL     1      20.220   1.744  50.787  1.00  0.00    -0.028 C 
HETATM    5  C11 UNL     1      20.064   2.231  52.077  1.00  0.00     0.037 C 
HETATM    6  C12 UNL     1      20.961   1.412  52.918  1.00  0.00     0.039 C 
HETATM    7  N3  UNL     1      21.593   0.647  53.757  1.00  0.00    -0.289 NA
HETATM    8  C13 UNL     1      22.147  -0.499  52.807  1.00  0.00     0.184 C 
ENDROOT
BRANCH   1   9
HETATM    9  C5  UNL     1      23.484   1.287  53.218  1.00  0.00     0.287 C 
BRANCH   9  10
HETATM   10  N2  UNL     1      24.660   2.068  52.714  1.00  0.00     0.092 N 
HETATM   11  C4  UNL     1      25.626   2.173  53.803  1.00  0.00     0.292 C 
HETATM   12  C3  UNL     1      27.033   1.961  53.296  1.00  0.00     0.156 C 
HETATM   13  N1  UNL     1      27.163   0.558  53.047  1.00  0.00    -0.349 N 
HETATM   14  C2  UNL     1      28.116  -0.231  53.690  1.00  0.00     0.215 C 
HETATM   15  C15 UNL     1      26.178   0.204  52.091  1.00  0.00     0.156 C 
HETATM   16  C1  UNL     1      29.035   0.372  54.688  1.00  0.00     0.117 C 
HETATM   17  O1  UNL     1      28.163  -1.471  53.394  1.00  0.00    -0.274 OA
HETATM   18  C14 UNL     1      25.277   1.315  51.618  1.00  0.00     0.292 C 
ENDBRANCH   9  10
ENDBRANCH   1   9
BRANCH   4  19
HETATM   19  C10 UNL     1      19.418   2.366  49.707  1.00  0.00     0.261 C 
HETATM   20  F1  UNL     1      18.980   3.583  50.189  1.00  0.00    -0.251 F 
ENDBRANCH   4  19
TORSDOF 3
ENDMDL
MODEL 8
REMARK VINA RESULT:      -6.4     10.730     12.389
REMARK  3 active torsions:
REMARK  status: ('A' for Active; 'I' for Inactive)
REMARK       I    between atoms: C2_2  and  N1_4 
REMARK    1  A    between atoms: N2_7  and  C5_8 
REMARK    2  A    between atoms: C5_8  and  C6_9 
REMARK    3  A    between atoms: C9_12  and  C10_13 
ROOT
HETATM    1  C6  UNL     1      32.852   5.106  47.745  1.00  0.00     0.096 C 
HETATM    2  C7  UNL     1      32.968   4.659  46.285  1.00  0.00    -0.048 C 
HETATM    3  C8  UNL     1      32.342   3.520  46.030  1.00  0.00     0.015 C 
HETATM    4  C9  UNL     1      32.915   2.510  47.032  1.00  0.00    -0.028 C 
HETATM    5  C11 UNL     1      33.891   2.844  47.960  1.00  0.00     0.037 C 
HETATM    6  C12 UNL     1      34.179   4.275  47.731  1.00  0.00     0.039 C 
HETATM    7  N3  UNL     1      34.612   5.478  47.501  1.00  0.00    -0.289 NA
HETATM    8  C13 UNL     1      33.804   5.876  46.193  1.00  0.00     0.184 C 
ENDROOT
BRANCH   1   9
HETATM    9  C5  UNL     1      32.920   6.433  48.206  1.00  0.00     0.287 C 
BRANCH   9  10
HETATM   10  N2  UNL     1      31.629   6.816  48.868  1.00  0.00     0.092 N 
HETATM   11  C4  UNL     1      31.842   8.080  49.565  1.00  0.00     0.292 C 
HETATM   12  C3  UNL     1      30.666   9.007  49.371  1.00  0.00     0.156 C 
HETATM   13  N1  UNL     1      30.758   9.498  48.031  1.00  0.00    -0.349 N 
HETATM   14  C2  UNL     1      30.872  10.857  47.738  1.00  0.00     0.215 C 
HETATM   15  C15 UNL     1      30.721   8.377  47.164  1.00  0.00     0.156 C 
HETATM   16  C1  UNL     1      30.916  11.856  48.836  1.00  0.00     0.117 C 
HETATM   17  O1  UNL     1      30.937  11.201  46.512  1.00  0.00    -0.274 OA
HETATM   18  C14 UNL     1      30.622   7.027  47.824  1.00  0.00     0.292 C 
ENDBRANCH   9  10
ENDBRANCH   1   9
BRANCH   4  19
HETATM   19  C10 UNL     1      32.430   1.110  47.005  1.00  0.00     0.261 C 
HETATM   20  F1  UNL     1      32.776   0.547  48.217  1.00  0.00    -0.251 F 
ENDBRANCH   4  19
TORSDOF 3
ENDMDL
MODEL 9
REMARK VINA RESULT:      -6.3      3.854      6.411
REMARK  3 active torsions:
REMARK  status: ('A' for Active; 'I' for Inactive)
REMARK       I    between atoms: C2_2  and  N1_4 
REMARK    1  A    between atoms: N2_7  and  C5_8 
REMARK    2  A    between atoms: C5_8  and  C6_9 
REMARK    3  A    between atoms: C9_12  and  C10_13 
ROOT
HETATM    1  C6  UNL     1      23.153   1.178  51.681  1.00  0.00     0.096 C 
HETATM    2  C7  UNL     1      24.151   0.667  52.723  1.00  0.00    -0.048 C 
HETATM    3  C8  UNL     1      23.857  -0.536  53.191  1.00  0.00     0.015 C 
HETATM    4  C9  UNL     1      22.420  -0.425  53.716  1.00  0.00    -0.028 C 
HETATM    5  C11 UNL     1      21.689   0.753  53.661  1.00  0.00     0.037 C 
HETATM    6  C12 UNL     1      22.584   1.742  53.026  1.00  0.00     0.039 C 
HETATM    7  N3  UNL     1      23.346   2.715  52.626  1.00  0.00    -0.289 NA
HETATM    8  C13 UNL     1      24.757   1.998  52.494  1.00  0.00     0.184 C 
ENDROOT
BRANCH   1   9
HETATM    9  C5  UNL     1      23.433   2.099  50.655  1.00  0.00     0.287 C 
BRANCH   9  10
HETATM   10  N2  UNL     1      22.458   1.929  49.529  1.00  0.00     0.092 N 
HETATM   11  C4  UNL     1      21.460   0.949  49.946  1.00  0.00     0.292 C 
HETATM   12  C3  UNL     1      20.074   1.382  49.533  1.00  0.00     0.156 C 
HETATM   13  N1  UNL     1      19.701   2.439  50.422  1.00  0.00    -0.349 N 
HETATM   14  C2  UNL     1      18.579   2.362  51.247  1.00  0.00     0.215 C 
HETATM   15  C15 UNL     1      20.662   3.471  50.281  1.00  0.00     0.156 C 
HETATM   16  C1  UNL     1      17.726   1.147  51.236  1.00  0.00     0.117 C 
HETATM   17  O1  UNL     1      18.320   3.359  51.999  1.00  0.00    -0.274 OA
HETATM   18  C14 UNL     1      21.782   3.212  49.308  1.00  0.00     0.292 C 
ENDBRANCH   9  10
ENDBRANCH   1   9
BRANCH   4  19
HETATM   19  C10 UNL     1      21.781  -1.613  54.332  1.00  0.00     0.261 C 
HETATM   20  F1  UNL     1      22.601  -2.011  55.368  1.00  0.00    -0.251 F 
ENDBRANCH   4  19
TORSDOF 3
ENDMDL
