MODEL 1
REMARK VINA RESULT:      -9.0      0.000      0.000
REMARK  4 active torsions:
REMARK  status: ('A' for Active; 'I' for Inactive)
REMARK    1  A    between atoms: O1_2  and  C2_3 
REMARK    2  A    between atoms: C6_7  and  N1_8 
REMARK    3  A    between atoms: N1_8  and  C7_9 
REMARK    4  A    between atoms: C15_20  and  C16_21 
ROOT
HETATM    1  C2  UNL     1      25.134   0.345  53.069  1.00  0.00     0.097 C 
HETATM    2  C3  UNL     1      24.178   1.219  52.788  1.00  0.00     0.044 C 
HETATM    3  C4  UNL     1      24.584   2.727  53.076  1.00  0.00     0.100 C 
HETATM    4  C5  UNL     1      25.154   2.508  51.631  1.00  0.00    -0.028 C 
HETATM    5  C6  UNL     1      24.220   2.733  50.720  1.00  0.00     0.034 C 
HETATM    6  C13 UNL     1      22.786   2.418  51.192  1.00  0.00     0.177 C 
HETATM    7  N2  UNL     1      22.935   1.215  52.100  1.00  0.00    -0.385 N 
HETATM    8  C14 UNL     1      26.480   1.891  51.660  1.00  0.00     0.020 C 
HETATM    9  C15 UNL     1      26.466   0.736  52.430  1.00  0.00    -0.011 C 
HETATM   10  H12 UNL     1      22.552   0.284  52.503  1.00  0.00     0.159 HD
ENDROOT
BRANCH   5  11
HETATM   11  N1  UNL     1      24.992   3.162  49.582  1.00  0.00    -0.358 N 
HETATM   12  H6  UNL     1      25.277   2.519  48.821  1.00  0.00     0.166 HD
BRANCH  11  13
HETATM   13  C7  UNL     1      25.483   4.478  49.330  1.00  0.00     0.034 A 
HETATM   14  C8  UNL     1      24.908   5.730  49.393  1.00  0.00     0.032 A 
HETATM   15  C9  UNL     1      25.673   6.833  49.083  1.00  0.00     0.046 A 
HETATM   16  C10 UNL     1      26.993   6.757  48.706  1.00  0.00     0.138 A 
HETATM   17  F1  UNL     1      27.665   7.903  48.419  1.00  0.00    -0.204 F 
HETATM   18  C11 UNL     1      27.583   5.510  48.637  1.00  0.00     0.074 A 
HETATM   19 CL1  UNL     1      29.265   5.477  48.153  1.00  0.00    -0.081 Cl
HETATM   20  C12 UNL     1      26.826   4.376  48.948  1.00  0.00     0.056 A 
ENDBRANCH  11  13
ENDBRANCH   5  11
BRANCH   9  21
HETATM   21  C16 UNL     1      27.585  -0.127  52.659  1.00  0.00     0.095 C 
HETATM   22  C17 UNL     1      27.266  -1.597  52.760  1.00  0.00     0.043 C 
HETATM   23  C18 UNL     1      28.593  -2.333  52.908  1.00  0.00     0.169 C 
HETATM   24  O2  UNL     1      29.612  -1.495  53.305  1.00  0.00    -0.384 OA
HETATM   25  C19 UNL     1      29.260  -0.730  54.422  1.00  0.00     0.246 C 
HETATM   26  C20 UNL     1      28.273   0.277  53.942  1.00  0.00     0.159 C 
HETATM   27  O3  UNL     1      28.135   1.278  54.613  1.00  0.00    -0.295 OA
ENDBRANCH   9  21
BRANCH   1  28
HETATM   28  O1  UNL     1      24.675  -0.648  53.821  1.00  0.00    -0.353 OA
HETATM   29  C1  UNL     1      24.733  -0.911  55.177  1.00  0.00     0.210 C 
ENDBRANCH   1  28
TORSDOF 4
ENDMDL
MODEL 2
REMARK VINA RESULT:      -8.8      3.640      6.310
REMARK  4 active torsions:
REMARK  status: ('A' for Active; 'I' for Inactive)
REMARK    1  A    between atoms: O1_2  and  C2_3 
REMARK    2  A    between atoms: C6_7  and  N1_8 
REMARK    3  A    between atoms: N1_8  and  C7_9 
REMARK    4  A    between atoms: C15_20  and  C16_21 
ROOT
HETATM    1  C2  UNL     1      22.769   1.593  50.782  1.00  0.00     0.097 C 
HETATM    2  C3  UNL     1      23.659   2.529  50.483  1.00  0.00     0.044 C 
HETATM    3  C4  UNL     1      23.570   3.816  51.408  1.00  0.00     0.100 C 
HETATM    4  C5  UNL     1      24.484   2.868  52.260  1.00  0.00    -0.028 C 
HETATM    5  C6  UNL     1      25.750   2.985  51.893  1.00  0.00     0.034 C 
HETATM    6  C13 UNL     1      25.949   3.350  50.409  1.00  0.00     0.177 C 
HETATM    7  N2  UNL     1      24.828   2.635  49.683  1.00  0.00    -0.385 N 
HETATM    8  C14 UNL     1      23.694   1.936  53.066  1.00  0.00     0.020 C 
HETATM    9  C15 UNL     1      22.779   1.257  52.272  1.00  0.00    -0.011 C 
HETATM   10  H12 UNL     1      24.451   2.116  48.809  1.00  0.00     0.159 HD
ENDROOT
BRANCH   5  11
HETATM   11  N1  UNL     1      26.456   2.654  53.105  1.00  0.00    -0.358 N 
HETATM   12  H6  UNL     1      26.297   3.147  54.002  1.00  0.00     0.166 HD
BRANCH  11  13
HETATM   13  C7  UNL     1      27.458   1.649  53.262  1.00  0.00     0.034 A 
HETATM   14  C8  UNL     1      28.768   1.679  53.693  1.00  0.00     0.032 A 
HETATM   15  C9  UNL     1      29.485   0.503  53.734  1.00  0.00     0.046 A 
HETATM   16  C10 UNL     1      28.965  -0.714  53.363  1.00  0.00     0.138 A 
HETATM   17  F1  UNL     1      29.751  -1.819  53.438  1.00  0.00    -0.204 F 
HETATM   18  C11 UNL     1      27.654  -0.760  52.929  1.00  0.00     0.074 A 
HETATM   19 CL1  UNL     1      27.047  -2.338  52.471  1.00  0.00    -0.081 Cl
HETATM   20  C12 UNL     1      26.907   0.420  52.879  1.00  0.00     0.056 A 
ENDBRANCH  11  13
ENDBRANCH   5  11
BRANCH   9  21
HETATM   21  C16 UNL     1      21.860   0.258  52.728  1.00  0.00     0.095 C 
HETATM   22  C17 UNL     1      20.657   0.771  53.477  1.00  0.00     0.043 C 
HETATM   23  C18 UNL     1      19.774  -0.433  53.783  1.00  0.00     0.169 C 
HETATM   24  O2  UNL     1      20.461  -1.622  53.678  1.00  0.00    -0.384 OA
HETATM   25  C19 UNL     1      21.662  -1.602  54.395  1.00  0.00     0.246 C 
HETATM   26  C20 UNL     1      22.582  -0.707  53.638  1.00  0.00     0.159 C 
HETATM   27  O3  UNL     1      23.771  -0.848  53.831  1.00  0.00    -0.295 OA
ENDBRANCH   9  21
BRANCH   1  28
HETATM   28  O1  UNL     1      22.116   1.185  49.700  1.00  0.00    -0.353 OA
HETATM   29  C1  UNL     1      21.346   1.841  48.759  1.00  0.00     0.210 C 
ENDBRANCH   1  28
TORSDOF 4
ENDMDL
MODEL 3
REMARK VINA RESULT:      -8.8      4.244      7.213
REMARK  4 active torsions:
REMARK  status: ('A' for Active; 'I' for Inactive)
REMARK    1  A    between atoms: O1_2  and  C2_3 
REMARK    2  A    between atoms: C6_7  and  N1_8 
REMARK    3  A    between atoms: N1_8  and  C7_9 
REMARK    4  A    between atoms: C15_20  and  C16_21 
ROOT
HETATM    1  C2  UNL     1      24.289   5.582  48.766  1.00  0.00     0.097 C 
HETATM    2  C3  UNL     1      23.506   4.687  49.351  1.00  0.00     0.044 C 
HETATM    3  C4  UNL     1      23.942   3.184  49.087  1.00  0.00     0.100 C 
HETATM    4  C5  UNL     1      24.839   3.571  50.315  1.00  0.00    -0.028 C 
HETATM    5  C6  UNL     1      24.186   3.381  51.450  1.00  0.00     0.034 C 
HETATM    6  C13 UNL     1      22.659   3.570  51.341  1.00  0.00     0.177 C 
HETATM    7  N2  UNL     1      22.480   4.688  50.335  1.00  0.00    -0.385 N 
HETATM    8  C14 UNL     1      26.063   4.254  49.896  1.00  0.00     0.020 C 
HETATM    9  C15 UNL     1      25.765   5.328  49.068  1.00  0.00    -0.011 C 
HETATM   10  H12 UNL     1      21.937   5.553  49.974  1.00  0.00     0.159 HD
ENDROOT
BRANCH   5  11
HETATM   11  N1  UNL     1      25.251   3.107  52.380  1.00  0.00    -0.358 N 
HETATM   12  H6  UNL     1      25.616   3.815  53.043  1.00  0.00     0.166 HD
BRANCH  11  13
HETATM   13  C7  UNL     1      25.960   1.877  52.528  1.00  0.00     0.034 A 
HETATM   14  C8  UNL     1      25.720   0.589  52.097  1.00  0.00     0.032 A 
HETATM   15  C9  UNL     1      26.625  -0.401  52.411  1.00  0.00     0.046 A 
HETATM   16  C10 UNL     1      27.769  -0.177  53.141  1.00  0.00     0.138 A 
HETATM   17  F1  UNL     1      28.601  -1.219  53.400  1.00  0.00    -0.204 F 
HETATM   18  C11 UNL     1      28.023   1.107  53.580  1.00  0.00     0.074 A 
HETATM   19 CL1  UNL     1      29.494   1.330  54.503  1.00  0.00    -0.081 Cl
HETATM   20  C12 UNL     1      27.118   2.128  53.273  1.00  0.00     0.056 A 
ENDBRANCH  11  13
ENDBRANCH   5  11
BRANCH   9  21
HETATM   21  C16 UNL     1      26.719   6.227  48.491  1.00  0.00     0.095 C 
HETATM   22  C17 UNL     1      28.112   5.678  48.320  1.00  0.00     0.043 C 
HETATM   23  C18 UNL     1      28.931   6.751  47.611  1.00  0.00     0.169 C 
HETATM   24  O2  UNL     1      28.343   7.993  47.694  1.00  0.00    -0.384 OA
HETATM   25  C19 UNL     1      27.990   8.324  49.007  1.00  0.00     0.246 C 
HETATM   26  C20 UNL     1      26.823   7.465  49.351  1.00  0.00     0.159 C 
HETATM   27  O3  UNL     1      26.107   7.842  50.255  1.00  0.00    -0.295 OA
ENDBRANCH   9  21
BRANCH   1  28
HETATM   28  O1  UNL     1      23.578   6.472  48.083  1.00  0.00    -0.353 OA
HETATM   29  C1  UNL     1      23.150   7.755  48.365  1.00  0.00     0.210 C 
ENDBRANCH   1  28
TORSDOF 4
ENDMDL
MODEL 4
REMARK VINA RESULT:      -8.6      4.389      6.347
REMARK  4 active torsions:
REMARK  status: ('A' for Active; 'I' for Inactive)
REMARK    1  A    between atoms: O1_2  and  C2_3 
REMARK    2  A    between atoms: C6_7  and  N1_8 
REMARK    3  A    between atoms: N1_8  and  C7_9 
REMARK    4  A    between atoms: C15_20  and  C16_21 
ROOT
HETATM    1  C2  UNL     1      25.784   2.928  50.760  1.00  0.00     0.097 C 
HETATM    2  C3  UNL     1      24.686   3.524  50.316  1.00  0.00     0.044 C 
HETATM    3  C4  UNL     1      23.650   2.534  49.633  1.00  0.00     0.100 C 
HETATM    4  C5  UNL     1      23.269   2.407  51.149  1.00  0.00    -0.028 C 
HETATM    5  C6  UNL     1      22.418   3.359  51.498  1.00  0.00     0.034 C 
HETATM    6  C13 UNL     1      22.576   4.672  50.705  1.00  0.00     0.177 C 
HETATM    7  N2  UNL     1      24.064   4.795  50.455  1.00  0.00    -0.385 N 
HETATM    8  C14 UNL     1      24.114   1.433  51.840  1.00  0.00     0.020 C 
HETATM    9  C15 UNL     1      25.457   1.715  51.629  1.00  0.00    -0.011 C 
HETATM   10  H12 UNL     1      24.954   5.403  50.337  1.00  0.00     0.159 HD
ENDROOT
BRANCH   5  11
HETATM   11  N1  UNL     1      21.687   2.743  52.575  1.00  0.00    -0.358 N 
HETATM   12  H6  UNL     1      21.872   2.951  53.574  1.00  0.00     0.166 HD
BRANCH  11  13
HETATM   13  C7  UNL     1      20.643   1.776  52.456  1.00  0.00     0.034 A 
HETATM   14  C8  UNL     1      19.468   1.737  51.734  1.00  0.00     0.032 A 
HETATM   15  C9  UNL     1      18.657   0.629  51.837  1.00  0.00     0.046 A 
HETATM   16  C10 UNL     1      18.952  -0.455  52.630  1.00  0.00     0.138 A 
HETATM   17  F1  UNL     1      18.088  -1.503  52.666  1.00  0.00    -0.204 F 
HETATM   18  C11 UNL     1      20.125  -0.430  53.360  1.00  0.00     0.074 A 
HETATM   19 CL1  UNL     1      20.447  -1.838  54.351  1.00  0.00    -0.081 Cl
HETATM   20  C12 UNL     1      20.964   0.685  53.271  1.00  0.00     0.056 A 
ENDBRANCH  11  13
ENDBRANCH   5  11
BRANCH   9  21
HETATM   21  C16 UNL     1      26.558   0.978  52.172  1.00  0.00     0.095 C 
HETATM   22  C17 UNL     1      26.367  -0.515  52.256  1.00  0.00     0.043 C 
HETATM   23  C18 UNL     1      27.677  -1.105  52.766  1.00  0.00     0.169 C 
HETATM   24  O2  UNL     1      28.475  -0.158  53.369  1.00  0.00    -0.384 OA
HETATM   25  C19 UNL     1      27.777   0.587  54.326  1.00  0.00     0.246 C 
HETATM   26  C20 UNL     1      26.853   1.475  53.567  1.00  0.00     0.159 C 
HETATM   27  O3  UNL     1      26.452   2.469  54.136  1.00  0.00    -0.295 OA
ENDBRANCH   9  21
BRANCH   1  28
HETATM   28  O1  UNL     1      26.877   3.555  50.342  1.00  0.00    -0.353 OA
HETATM   29  C1  UNL     1      27.194   4.225  49.176  1.00  0.00     0.210 C 
ENDBRANCH   1  28
TORSDOF 4
ENDMDL
MODEL 5
REMARK VINA RESULT:      -8.5      4.708      8.080
REMARK  4 active torsions:
REMARK  status: ('A' for Active; 'I' for Inactive)
REMARK    1  A    between atoms: O1_2  and  C2_3 
REMARK    2  A    between atoms: C6_7  and  N1_8 
REMARK    3  A    between atoms: N1_8  and  C7_9 
REMARK    4  A    between atoms: C15_20  and  C16_21 
ROOT
HETATM    1  C2  UNL     1      29.441   8.412  48.929  1.00  0.00     0.097 C 
HETATM    2  C3  UNL     1      28.124   8.436  49.077  1.00  0.00     0.044 C 
HETATM    3  C4  UNL     1      27.323   8.161  47.734  1.00  0.00     0.100 C 
HETATM    4  C5  UNL     1      27.605   6.706  48.247  1.00  0.00    -0.028 C 
HETATM    5  C6  UNL     1      26.673   6.324  49.105  1.00  0.00     0.034 C 
HETATM    6  C13 UNL     1      26.055   7.475  49.924  1.00  0.00     0.177 C 
HETATM    7  N2  UNL     1      27.199   8.440  50.156  1.00  0.00    -0.385 N 
HETATM    8  C14 UNL     1      28.929   6.235  47.839  1.00  0.00     0.020 C 
HETATM    9  C15 UNL     1      29.907   7.150  48.205  1.00  0.00    -0.011 C 
HETATM   10  H12 UNL     1      27.708   9.167  50.778  1.00  0.00     0.159 HD
ENDROOT
BRANCH   5  11
HETATM   11  N1  UNL     1      26.661   4.893  48.935  1.00  0.00    -0.358 N 
HETATM   12  H6  UNL     1      27.279   4.401  48.264  1.00  0.00     0.166 HD
BRANCH  11  13
HETATM   13  C7  UNL     1      25.825   3.958  49.617  1.00  0.00     0.034 A 
HETATM   14  C8  UNL     1      24.468   3.710  49.594  1.00  0.00     0.032 A 
HETATM   15  C9  UNL     1      23.958   2.708  50.390  1.00  0.00     0.046 A 
HETATM   16  C10 UNL     1      24.732   1.932  51.219  1.00  0.00     0.138 A 
HETATM   17  F1  UNL     1      24.137   0.967  51.967  1.00  0.00    -0.204 F 
HETATM   18  C11 UNL     1      26.093   2.169  51.254  1.00  0.00     0.074 A 
HETATM   19 CL1  UNL     1      27.027   1.148  52.328  1.00  0.00    -0.081 Cl
HETATM   20  C12 UNL     1      26.633   3.181  50.455  1.00  0.00     0.056 A 
ENDBRANCH  11  13
ENDBRANCH   5  11
BRANCH   9  21
HETATM   21  C16 UNL     1      31.314   7.002  47.979  1.00  0.00     0.095 C 
HETATM   22  C17 UNL     1      31.709   6.552  46.596  1.00  0.00     0.043 C 
HETATM   23  C18 UNL     1      33.232   6.552  46.545  1.00  0.00     0.169 C 
HETATM   24  O2  UNL     1      33.795   6.551  47.801  1.00  0.00    -0.384 OA
HETATM   25  C19 UNL     1      33.255   5.554  48.621  1.00  0.00     0.246 C 
HETATM   26  C20 UNL     1      31.874   5.998  48.959  1.00  0.00     0.159 C 
HETATM   27  O3  UNL     1      31.368   5.520  49.953  1.00  0.00    -0.295 OA
ENDBRANCH   9  21
BRANCH   1  28
HETATM   28  O1  UNL     1      30.007   9.488  49.465  1.00  0.00    -0.353 OA
HETATM   29  C1  UNL     1      30.505  10.659  48.928  1.00  0.00     0.210 C 
ENDBRANCH   1  28
TORSDOF 4
ENDMDL
MODEL 6
REMARK VINA RESULT:      -8.1      4.709      7.532
REMARK  4 active torsions:
REMARK  status: ('A' for Active; 'I' for Inactive)
REMARK    1  A    between atoms: O1_2  and  C2_3 
REMARK    2  A    between atoms: C6_7  and  N1_8 
REMARK    3  A    between atoms: N1_8  and  C7_9 
REMARK    4  A    between atoms: C15_20  and  C16_21 
ROOT
HETATM    1  C2  UNL     1      24.134   5.710  48.452  1.00  0.00     0.097 C 
HETATM    2  C3  UNL     1      23.221   4.941  49.028  1.00  0.00     0.044 C 
HETATM    3  C4  UNL     1      23.609   3.402  49.063  1.00  0.00     0.100 C 
HETATM    4  C5  UNL     1      24.324   3.946  50.349  1.00  0.00    -0.028 C 
HETATM    5  C6  UNL     1      23.492   3.954  51.378  1.00  0.00     0.034 C 
HETATM    6  C13 UNL     1      22.014   4.171  50.997  1.00  0.00     0.177 C 
HETATM    7  N2  UNL     1      22.056   5.125  49.821  1.00  0.00    -0.385 N 
HETATM    8  C14 UNL     1      25.634   4.518  50.039  1.00  0.00     0.020 C 
HETATM    9  C15 UNL     1      25.528   5.460  49.025  1.00  0.00    -0.011 C 
HETATM   10  H12 UNL     1      21.624   5.941  49.253  1.00  0.00     0.159 HD
ENDROOT
BRANCH   5  11
HETATM   11  N1  UNL     1      24.382   3.793  52.499  1.00  0.00    -0.358 N 
HETATM   12  H6  UNL     1      24.789   4.595  53.015  1.00  0.00     0.166 HD
BRANCH  11  13
HETATM   13  C7  UNL     1      24.845   2.562  53.053  1.00  0.00     0.034 A 
HETATM   14  C8  UNL     1      26.023   2.182  53.662  1.00  0.00     0.032 A 
HETATM   15  C9  UNL     1      26.160   0.884  54.102  1.00  0.00     0.046 A 
HETATM   16  C10 UNL     1      25.179  -0.069  53.965  1.00  0.00     0.138 A 
HETATM   17  F1  UNL     1      25.408  -1.325  54.431  1.00  0.00    -0.204 F 
HETATM   18  C11 UNL     1      23.994   0.296  53.357  1.00  0.00     0.074 A 
HETATM   19 CL1  UNL     1      22.782  -0.961  53.212  1.00  0.00    -0.081 Cl
HETATM   20  C12 UNL     1      23.832   1.608  52.903  1.00  0.00     0.056 A 
ENDBRANCH  11  13
ENDBRANCH   5  11
BRANCH   9  21
HETATM   21  C16 UNL     1      26.609   6.229  48.484  1.00  0.00     0.095 C 
HETATM   22  C17 UNL     1      27.950   5.541  48.457  1.00  0.00     0.043 C 
HETATM   23  C18 UNL     1      28.924   6.488  47.766  1.00  0.00     0.169 C 
HETATM   24  O2  UNL     1      28.458   7.784  47.737  1.00  0.00    -0.384 OA
HETATM   25  C19 UNL     1      28.039   8.222  48.998  1.00  0.00     0.246 C 
HETATM   26  C20 UNL     1      26.769   7.499  49.287  1.00  0.00     0.159 C 
HETATM   27  O3  UNL     1      26.026   7.995  50.109  1.00  0.00    -0.295 OA
ENDBRANCH   9  21
BRANCH   1  28
HETATM   28  O1  UNL     1      23.589   6.506  47.540  1.00  0.00    -0.353 OA
HETATM   29  C1  UNL     1      22.305   6.980  47.346  1.00  0.00     0.210 C 
ENDBRANCH   1  28
TORSDOF 4
ENDMDL
MODEL 7
REMARK VINA RESULT:      -8.0      4.977      8.387
REMARK  4 active torsions:
REMARK  status: ('A' for Active; 'I' for Inactive)
REMARK    1  A    between atoms: O1_2  and  C2_3 
REMARK    2  A    between atoms: C6_7  and  N1_8 
REMARK    3  A    between atoms: N1_8  and  C7_9 
REMARK    4  A    between atoms: C15_20  and  C16_21 
ROOT
HETATM    1  C2  UNL     1      28.318   8.093  48.991  1.00  0.00     0.097 C 
HETATM    2  C3  UNL     1      27.043   7.826  49.237  1.00  0.00     0.044 C 
HETATM    3  C4  UNL     1      26.259   7.240  47.987  1.00  0.00     0.100 C 
HETATM    4  C5  UNL     1      26.906   5.949  48.598  1.00  0.00    -0.028 C 
HETATM    5  C6  UNL     1      26.139   5.449  49.554  1.00  0.00     0.034 C 
HETATM    6  C13 UNL     1      25.311   6.502  50.318  1.00  0.00     0.177 C 
HETATM    7  N2  UNL     1      26.204   7.724  50.379  1.00  0.00    -0.385 N 
HETATM    8  C14 UNL     1      28.279   5.759  48.131  1.00  0.00     0.020 C 
HETATM    9  C15 UNL     1      29.031   6.907  48.343  1.00  0.00    -0.011 C 
HETATM   10  H12 UNL     1      26.559   8.608  50.896  1.00  0.00     0.159 HD
ENDROOT
BRANCH   5  11
HETATM   11  N1  UNL     1      26.458   4.045  49.507  1.00  0.00    -0.358 N 
HETATM   12  H6  UNL     1      27.037   3.624  48.758  1.00  0.00     0.166 HD
BRANCH  11  13
HETATM   13  C7  UNL     1      26.037   3.041  50.431  1.00  0.00     0.034 A 
HETATM   14  C8  UNL     1      26.705   2.274  51.362  1.00  0.00     0.032 A 
HETATM   15  C9  UNL     1      25.992   1.373  52.121  1.00  0.00     0.046 A 
HETATM   16  C10 UNL     1      24.634   1.190  52.002  1.00  0.00     0.138 A 
HETATM   17  F1  UNL     1      24.018   0.276  52.797  1.00  0.00    -0.204 F 
HETATM   18  C11 UNL     1      23.952   1.951  51.074  1.00  0.00     0.074 A 
HETATM   19 CL1  UNL     1      22.225   1.675  50.969  1.00  0.00    -0.081 Cl
HETATM   20  C12 UNL     1      24.655   2.872  50.292  1.00  0.00     0.056 A 
ENDBRANCH  11  13
ENDBRANCH   5  11
BRANCH   9  21
HETATM   21  C16 UNL     1      30.418   7.067  48.023  1.00  0.00     0.095 C 
HETATM   22  C17 UNL     1      31.277   7.648  49.116  1.00  0.00     0.043 C 
HETATM   23  C18 UNL     1      32.713   7.643  48.606  1.00  0.00     0.169 C 
HETATM   24  O2  UNL     1      32.778   7.516  47.236  1.00  0.00    -0.384 OA
HETATM   25  C19 UNL     1      31.947   8.431  46.581  1.00  0.00     0.246 C 
HETATM   26  C20 UNL     1      30.552   7.965  46.816  1.00  0.00     0.159 C 
HETATM   27  O3  UNL     1      29.704   8.347  46.036  1.00  0.00    -0.295 OA
ENDBRANCH   9  21
BRANCH   1  28
HETATM   28  O1  UNL     1      28.641   9.319  49.389  1.00  0.00    -0.353 OA
HETATM   29  C1  UNL     1      28.630  10.549  48.760  1.00  0.00     0.210 C 
ENDBRANCH   1  28
TORSDOF 4
ENDMDL
MODEL 8
REMARK VINA RESULT:      -7.9      4.499      7.764
REMARK  4 active torsions:
REMARK  status: ('A' for Active; 'I' for Inactive)
REMARK    1  A    between atoms: O1_2  and  C2_3 
REMARK    2  A    between atoms: C6_7  and  N1_8 
REMARK    3  A    between atoms: N1_8  and  C7_9 
REMARK    4  A    between atoms: C15_20  and  C16_21 
ROOT
HETATM    1  C2  UNL     1      24.512   6.237  49.249  1.00  0.00     0.097 C 
HETATM    2  C3  UNL     1      24.059   5.119  49.798  1.00  0.00     0.044 C 
HETATM    3  C4  UNL     1      24.358   3.817  48.940  1.00  0.00     0.100 C 
HETATM    4  C5  UNL     1      25.686   3.977  49.759  1.00  0.00    -0.028 C 
HETATM    5  C6  UNL     1      25.576   3.400  50.945  1.00  0.00     0.034 C 
HETATM    6  C13 UNL     1      24.145   3.400  51.520  1.00  0.00     0.177 C 
HETATM    7  N2  UNL     1      23.545   4.713  51.059  1.00  0.00    -0.385 N 
HETATM    8  C14 UNL     1      26.611   4.909  49.114  1.00  0.00     0.020 C 
HETATM    9  C15 UNL     1      25.980   6.115  48.843  1.00  0.00    -0.011 C 
HETATM   10  H12 UNL     1      22.891   5.561  51.227  1.00  0.00     0.159 HD
ENDROOT
BRANCH   5  11
HETATM   11  N1  UNL     1      26.937   3.033  51.241  1.00  0.00    -0.358 N 
HETATM   12  H6  UNL     1      27.734   3.286  50.628  1.00  0.00     0.166 HD
BRANCH  11  13
HETATM   13  C7  UNL     1      27.395   2.281  52.365  1.00  0.00     0.034 A 
HETATM   14  C8  UNL     1      28.499   2.385  53.186  1.00  0.00     0.032 A 
HETATM   15  C9  UNL     1      28.655   1.481  54.213  1.00  0.00     0.046 A 
HETATM   16  C10 UNL     1      27.764   0.467  54.471  1.00  0.00     0.138 A 
HETATM   17  F1  UNL     1      28.004  -0.376  55.509  1.00  0.00    -0.204 F 
HETATM   18  C11 UNL     1      26.654   0.350  53.657  1.00  0.00     0.074 A 
HETATM   19 CL1  UNL     1      25.554  -0.961  54.035  1.00  0.00    -0.081 Cl
HETATM   20  C12 UNL     1      26.475   1.256  52.608  1.00  0.00     0.056 A 
ENDBRANCH  11  13
ENDBRANCH   5  11
BRANCH   9  21
HETATM   21  C16 UNL     1      26.591   7.258  48.235  1.00  0.00     0.095 C 
HETATM   22  C17 UNL     1      27.840   6.984  47.436  1.00  0.00     0.043 C 
HETATM   23  C18 UNL     1      28.267   8.304  46.806  1.00  0.00     0.169 C 
HETATM   24  O2  UNL     1      27.690   9.389  47.428  1.00  0.00    -0.384 OA
HETATM   25  C19 UNL     1      27.849   9.346  48.818  1.00  0.00     0.246 C 
HETATM   26  C20 UNL     1      26.950   8.262  49.305  1.00  0.00     0.159 C 
HETATM   27  O3  UNL     1      26.616   8.305  50.471  1.00  0.00    -0.295 OA
ENDBRANCH   9  21
BRANCH   1  28
HETATM   28  O1  UNL     1      23.570   7.172  49.213  1.00  0.00    -0.353 OA
HETATM   29  C1  UNL     1      23.119   8.095  50.138  1.00  0.00     0.210 C 
ENDBRANCH   1  28
TORSDOF 4
ENDMDL
MODEL 9
REMARK VINA RESULT:      -7.8      4.317      7.461
REMARK  4 active torsions:
REMARK  status: ('A' for Active; 'I' for Inactive)
REMARK    1  A    between atoms: O1_2  and  C2_3 
REMARK    2  A    between atoms: C6_7  and  N1_8 
REMARK    3  A    between atoms: N1_8  and  C7_9 
REMARK    4  A    between atoms: C15_20  and  C16_21 
ROOT
HETATM    1  C2  UNL     1      22.544   4.654  50.155  1.00  0.00     0.097 C 
HETATM    2  C3  UNL     1      22.589   3.497  50.801  1.00  0.00     0.044 C 
HETATM    3  C4  UNL     1      23.423   2.375  50.048  1.00  0.00     0.100 C 
HETATM    4  C5  UNL     1      24.545   3.141  50.831  1.00  0.00    -0.028 C 
HETATM    5  C6  UNL     1      24.661   2.670  52.063  1.00  0.00     0.034 C 
HETATM    6  C13 UNL     1      23.350   2.118  52.656  1.00  0.00     0.177 C 
HETATM    7  N2  UNL     1      22.266   3.017  52.099  1.00  0.00    -0.385 N 
HETATM    8  C14 UNL     1      25.009   4.320  50.098  1.00  0.00     0.020 C 
HETATM    9  C15 UNL     1      23.937   5.125  49.739  1.00  0.00    -0.011 C 
HETATM   10  H12 UNL     1      21.314   3.524  52.205  1.00  0.00     0.159 HD
ENDROOT
BRANCH   5  11
HETATM   11  N1  UNL     1      26.045   2.931  52.366  1.00  0.00    -0.358 N 
HETATM   12  H6  UNL     1      26.466   3.876  52.307  1.00  0.00     0.166 HD
BRANCH  11  13
HETATM   13  C7  UNL     1      27.027   1.975  52.767  1.00  0.00     0.034 A 
HETATM   14  C8  UNL     1      28.258   2.084  53.380  1.00  0.00     0.032 A 
HETATM   15  C9  UNL     1      28.978   0.940  53.641  1.00  0.00     0.046 A 
HETATM   16  C10 UNL     1      28.537  -0.322  53.321  1.00  0.00     0.138 A 
HETATM   17  F1  UNL     1      29.320  -1.392  53.619  1.00  0.00    -0.204 F 
HETATM   18  C11 UNL     1      27.306  -0.448  52.707  1.00  0.00     0.074 A 
HETATM   19 CL1  UNL     1      26.797  -2.080  52.324  1.00  0.00    -0.081 Cl
HETATM   20  C12 UNL     1      26.557   0.700  52.432  1.00  0.00     0.056 A 
ENDBRANCH  11  13
ENDBRANCH   5  11
BRANCH   9  21
HETATM   21  C16 UNL     1      24.027   6.366  49.029  1.00  0.00     0.095 C 
HETATM   22  C17 UNL     1      25.161   6.472  48.042  1.00  0.00     0.043 C 
HETATM   23  C18 UNL     1      25.016   7.817  47.339  1.00  0.00     0.169 C 
HETATM   24  O2  UNL     1      24.206   8.685  48.037  1.00  0.00    -0.384 OA
HETATM   25  C19 UNL     1      24.575   8.785  49.383  1.00  0.00     0.246 C 
HETATM   26  C20 UNL     1      24.180   7.497  50.018  1.00  0.00     0.159 C 
HETATM   27  O3  UNL     1      24.029   7.499  51.222  1.00  0.00    -0.295 OA
ENDBRANCH   9  21
BRANCH   1  28
HETATM   28  O1  UNL     1      21.298   5.103  50.056  1.00  0.00    -0.353 OA
HETATM   29  C1  UNL     1      20.737   6.361  50.165  1.00  0.00     0.210 C 
ENDBRANCH   1  28
TORSDOF 4
ENDMDL
