MODEL 1
REMARK VINA RESULT:      -7.2      0.000      0.000
REMARK  4 active torsions:
REMARK  status: ('A' for Active; 'I' for Inactive)
REMARK    1  A    between atoms: O1_2  and  S1_3 
REMARK    2  A    between atoms: S1_3  and  C2_4 
REMARK    3  A    between atoms: C2_4  and  C3_5 
REMARK    4  A    between atoms: C3_5  and  C4_7 
ROOT
HETATM    1  C2  UNL     1      26.328   0.484  52.568  1.00  0.00     0.134 C 
HETATM    2  C5  UNL     1      26.571   1.516  51.629  1.00  0.00     0.038 C 
HETATM    3  C6  UNL     1      26.527   2.585  50.714  1.00  0.00     0.022 C 
HETATM    4  C7  UNL     1      25.057   2.923  50.446  1.00  0.00     0.120 C 
HETATM    5  N1  UNL     1      24.126   2.560  51.454  1.00  0.00    -0.389 N 
HETATM    6  C8  UNL     1      23.819   1.484  52.362  1.00  0.00     0.037 C 
HETATM    7  C9  UNL     1      22.622   1.444  52.877  1.00  0.00     0.031 C 
HETATM    8  C10 UNL     1      22.347   0.341  53.791  1.00  0.00     0.015 C 
HETATM    9  C11 UNL     1      23.314  -0.525  54.049  1.00  0.00    -0.013 C 
HETATM   10  C12 UNL     1      24.311  -0.664  53.262  1.00  0.00    -0.003 C 
HETATM   11  C13 UNL     1      24.795   0.422  52.738  1.00  0.00     0.009 C 
HETATM   12  H10 UNL     1      23.379   3.308  51.631  1.00  0.00     0.159 HD
ENDROOT
BRANCH   1  13
HETATM   13  S1  UNL     1      26.897  -1.181  52.053  1.00  0.00     0.011 SA
BRANCH  13  14
HETATM   14  O1  UNL     1      27.481  -2.089  53.366  1.00  0.00    -0.323 OA
HETATM   15  C1  UNL     1      28.789  -2.491  53.030  1.00  0.00     0.220 C 
ENDBRANCH  13  14
ENDBRANCH   1  13
BRANCH   1  16
HETATM   16  C3  UNL     1      26.846   0.635  53.962  1.00  0.00     0.258 C 
HETATM   17  O2  UNL     1      26.230   0.342  54.970  1.00  0.00    -0.286 OA
BRANCH  16  18
HETATM   18  C4  UNL     1      28.210   1.182  54.109  1.00  0.00     0.453 C 
HETATM   19  F1  UNL     1      28.138   2.571  54.077  1.00  0.00    -0.163 F 
HETATM   20  F2  UNL     1      28.803   0.751  55.293  1.00  0.00    -0.163 F 
HETATM   21  F3  UNL     1      29.032   0.807  53.062  1.00  0.00    -0.163 F 
ENDBRANCH  16  18
ENDBRANCH   1  16
TORSDOF 4
ENDMDL
MODEL 2
REMARK VINA RESULT:      -7.0      3.254      3.846
REMARK  4 active torsions:
REMARK  status: ('A' for Active; 'I' for Inactive)
REMARK    1  A    between atoms: O1_2  and  S1_3 
REMARK    2  A    between atoms: S1_3  and  C2_4 
REMARK    3  A    between atoms: C2_4  and  C3_5 
REMARK    4  A    between atoms: C3_5  and  C4_7 
ROOT
HETATM    1  C2  UNL     1      24.580   2.174  51.689  1.00  0.00     0.134 C 
HETATM    2  C5  UNL     1      24.302   2.697  50.402  1.00  0.00     0.038 C 
HETATM    3  C6  UNL     1      23.792   3.051  49.139  1.00  0.00     0.022 C 
HETATM    4  C7  UNL     1      22.594   2.146  48.839  1.00  0.00     0.120 C 
HETATM    5  N1  UNL     1      21.923   1.584  49.957  1.00  0.00    -0.389 N 
HETATM    6  C8  UNL     1      22.191   0.978  51.236  1.00  0.00     0.037 C 
HETATM    7  C9  UNL     1      21.241   0.277  51.789  1.00  0.00     0.031 C 
HETATM    8  C10 UNL     1      21.548  -0.322  53.083  1.00  0.00     0.015 C 
HETATM    9  C11 UNL     1      22.742  -0.109  53.614  1.00  0.00    -0.013 C 
HETATM   10  C12 UNL     1      23.735   0.251  52.895  1.00  0.00    -0.003 C 
HETATM   11  C13 UNL     1      23.491   1.111  51.953  1.00  0.00     0.009 C 
HETATM   12  H10 UNL     1      20.856   1.591  49.859  1.00  0.00     0.159 HD
ENDROOT
BRANCH   1  13
HETATM   13  S1  UNL     1      26.209   1.352  51.855  1.00  0.00     0.011 SA
BRANCH  13  14
HETATM   14  O1  UNL     1      27.481   2.475  51.962  1.00  0.00    -0.323 OA
HETATM   15  C1  UNL     1      28.253   2.108  53.082  1.00  0.00     0.220 C 
ENDBRANCH  13  14
ENDBRANCH   1  13
BRANCH   1  16
HETATM   16  C3  UNL     1      24.502   3.081  52.874  1.00  0.00     0.258 C 
HETATM   17  O2  UNL     1      25.037   2.873  53.947  1.00  0.00    -0.286 OA
BRANCH  16  18
HETATM   18  C4  UNL     1      23.713   4.319  52.713  1.00  0.00     0.453 C 
HETATM   19  F1  UNL     1      23.792   5.054  53.891  1.00  0.00    -0.163 F 
HETATM   20  F2  UNL     1      24.168   5.073  51.635  1.00  0.00    -0.163 F 
HETATM   21  F3  UNL     1      22.370   4.052  52.508  1.00  0.00    -0.163 F 
ENDBRANCH  16  18
ENDBRANCH   1  16
TORSDOF 4
ENDMDL
MODEL 3
REMARK VINA RESULT:      -6.6      3.598      5.669
REMARK  4 active torsions:
REMARK  status: ('A' for Active; 'I' for Inactive)
REMARK    1  A    between atoms: O1_2  and  S1_3 
REMARK    2  A    between atoms: S1_3  and  C2_4 
REMARK    3  A    between atoms: C2_4  and  C3_5 
REMARK    4  A    between atoms: C3_5  and  C4_7 
ROOT
HETATM    1  C2  UNL     1      23.253   2.316  51.248  1.00  0.00     0.134 C 
HETATM    2  C5  UNL     1      23.847   1.378  52.128  1.00  0.00     0.038 C 
HETATM    3  C6  UNL     1      24.685   0.539  52.887  1.00  0.00     0.022 C 
HETATM    4  C7  UNL     1      26.111   0.673  52.344  1.00  0.00     0.120 C 
HETATM    5  N1  UNL     1      26.421   1.877  51.659  1.00  0.00    -0.389 N 
HETATM    6  C8  UNL     1      25.862   2.800  50.705  1.00  0.00     0.037 C 
HETATM    7  C9  UNL     1      26.679   3.607  50.087  1.00  0.00     0.031 C 
HETATM    8  C10 UNL     1      26.078   4.526  49.128  1.00  0.00     0.015 C 
HETATM    9  C11 UNL     1      24.765   4.498  48.958  1.00  0.00    -0.013 C 
HETATM   10  C12 UNL     1      24.074   3.475  49.286  1.00  0.00    -0.003 C 
HETATM   11  C13 UNL     1      24.408   2.877  50.390  1.00  0.00     0.009 C 
HETATM   12  H10 UNL     1      27.390   2.265  51.901  1.00  0.00     0.159 HD
ENDROOT
BRANCH   1  13
HETATM   13  S1  UNL     1      22.000   1.619  50.106  1.00  0.00     0.011 SA
BRANCH  13  14
HETATM   14  O1  UNL     1      21.254   0.233  50.747  1.00  0.00    -0.323 OA
HETATM   15  C1  UNL     1      20.005   0.643  51.256  1.00  0.00     0.220 C 
ENDBRANCH  13  14
ENDBRANCH   1  13
BRANCH   1  16
HETATM   16  C3  UNL     1      22.596   3.531  51.818  1.00  0.00     0.258 C 
HETATM   17  O2  UNL     1      21.446   3.867  51.603  1.00  0.00    -0.286 OA
BRANCH  16  18
HETATM   18  C4  UNL     1      23.418   4.375  52.708  1.00  0.00     0.453 C 
HETATM   19  F1  UNL     1      22.572   5.108  53.535  1.00  0.00    -0.163 F 
HETATM   20  F2  UNL     1      24.296   3.607  53.467  1.00  0.00    -0.163 F 
HETATM   21  F3  UNL     1      24.166   5.298  51.998  1.00  0.00    -0.163 F 
ENDBRANCH  16  18
ENDBRANCH   1  16
TORSDOF 4
ENDMDL
MODEL 4
REMARK VINA RESULT:      -6.5      4.165      5.636
REMARK  4 active torsions:
REMARK  status: ('A' for Active; 'I' for Inactive)
REMARK    1  A    between atoms: O1_2  and  S1_3 
REMARK    2  A    between atoms: S1_3  and  C2_4 
REMARK    3  A    between atoms: C2_4  and  C3_5 
REMARK    4  A    between atoms: C3_5  and  C4_7 
ROOT
HETATM    1  C2  UNL     1      23.048   1.605  51.861  1.00  0.00     0.134 C 
HETATM    2  C5  UNL     1      24.448   1.386  51.815  1.00  0.00     0.038 C 
HETATM    3  C6  UNL     1      25.784   0.979  51.979  1.00  0.00     0.022 C 
HETATM    4  C7  UNL     1      25.856   0.063  53.204  1.00  0.00     0.120 C 
HETATM    5  N1  UNL     1      24.658  -0.603  53.573  1.00  0.00    -0.389 N 
HETATM    6  C8  UNL     1      23.242  -0.375  53.700  1.00  0.00     0.037 C 
HETATM    7  C9  UNL     1      22.553  -1.206  54.431  1.00  0.00     0.031 C 
HETATM    8  C10 UNL     1      21.123  -0.943  54.537  1.00  0.00     0.015 C 
HETATM    9  C11 UNL     1      20.618   0.092  53.885  1.00  0.00    -0.013 C 
HETATM   10  C12 UNL     1      21.356   1.064  53.507  1.00  0.00    -0.003 C 
HETATM   11  C13 UNL     1      22.530   0.758  53.043  1.00  0.00     0.009 C 
HETATM   12  H10 UNL     1      24.813  -1.623  53.866  1.00  0.00     0.159 HD
ENDROOT
BRANCH   1  13
HETATM   13  S1  UNL     1      22.545   3.342  52.159  1.00  0.00     0.011 SA
BRANCH  13  14
HETATM   14  O1  UNL     1      23.800   4.436  51.815  1.00  0.00    -0.323 OA
HETATM   15  C1  UNL     1      23.227   5.488  51.072  1.00  0.00     0.220 C 
ENDBRANCH  13  14
ENDBRANCH   1  13
BRANCH   1  16
HETATM   16  C3  UNL     1      22.208   1.172  50.703  1.00  0.00     0.258 C 
HETATM   17  O2  UNL     1      21.464   0.210  50.703  1.00  0.00    -0.286 OA
BRANCH  16  18
HETATM   18  C4  UNL     1      22.302   1.984  49.473  1.00  0.00     0.453 C 
HETATM   19  F1  UNL     1      22.070   1.160  48.376  1.00  0.00    -0.163 F 
HETATM   20  F2  UNL     1      21.393   3.038  49.492  1.00  0.00    -0.163 F 
HETATM   21  F3  UNL     1      23.567   2.518  49.301  1.00  0.00    -0.163 F 
ENDBRANCH  16  18
ENDBRANCH   1  16
TORSDOF 4
ENDMDL
MODEL 5
REMARK VINA RESULT:      -6.5      3.453      5.304
REMARK  4 active torsions:
REMARK  status: ('A' for Active; 'I' for Inactive)
REMARK    1  A    between atoms: O1_2  and  S1_3 
REMARK    2  A    between atoms: S1_3  and  C2_4 
REMARK    3  A    between atoms: C2_4  and  C3_5 
REMARK    4  A    between atoms: C3_5  and  C4_7 
ROOT
HETATM    1  C2  UNL     1      23.538   1.801  52.432  1.00  0.00     0.134 C 
HETATM    2  C5  UNL     1      22.423   1.205  53.072  1.00  0.00     0.038 C 
HETATM    3  C6  UNL     1      21.502   0.400  53.768  1.00  0.00     0.022 C 
HETATM    4  C7  UNL     1      22.173  -0.944  54.066  1.00  0.00     0.120 C 
HETATM    5  N1  UNL     1      23.591  -0.952  54.112  1.00  0.00    -0.389 N 
HETATM    6  C8  UNL     1      24.738  -0.416  53.424  1.00  0.00     0.037 C 
HETATM    7  C9  UNL     1      25.891  -0.993  53.619  1.00  0.00     0.031 C 
HETATM    8  C10 UNL     1      27.028  -0.424  52.906  1.00  0.00     0.015 C 
HETATM    9  C11 UNL     1      26.830   0.632  52.134  1.00  0.00    -0.013 C 
HETATM   10  C12 UNL     1      25.668   0.921  51.688  1.00  0.00    -0.003 C 
HETATM   11  C13 UNL     1      24.673   0.757  52.507  1.00  0.00     0.009 C 
HETATM   12  H10 UNL     1      23.986  -1.546  54.911  1.00  0.00     0.159 HD
ENDROOT
BRANCH   1  13
HETATM   13  S1  UNL     1      23.284   2.221  50.667  1.00  0.00     0.011 SA
BRANCH  13  14
HETATM   14  O1  UNL     1      21.649   2.105  50.213  1.00  0.00    -0.323 OA
HETATM   15  C1  UNL     1      21.584   1.165  49.166  1.00  0.00     0.220 C 
ENDBRANCH  13  14
ENDBRANCH   1  13
BRANCH   1  16
HETATM   16  C3  UNL     1      24.137   3.037  53.022  1.00  0.00     0.258 C 
HETATM   17  O2  UNL     1      25.118   3.061  53.741  1.00  0.00    -0.286 OA
BRANCH  16  18
HETATM   18  C4  UNL     1      23.476   4.317  52.697  1.00  0.00     0.453 C 
HETATM   19  F1  UNL     1      24.026   4.817  51.522  1.00  0.00    -0.163 F 
HETATM   20  F2  UNL     1      22.100   4.156  52.562  1.00  0.00    -0.163 F 
HETATM   21  F3  UNL     1      23.697   5.274  53.672  1.00  0.00    -0.163 F 
ENDBRANCH  16  18
ENDBRANCH   1  16
TORSDOF 4
ENDMDL
MODEL 6
REMARK VINA RESULT:      -6.5      4.685      6.206
REMARK  4 active torsions:
REMARK  status: ('A' for Active; 'I' for Inactive)
REMARK    1  A    between atoms: O1_2  and  S1_3 
REMARK    2  A    between atoms: S1_3  and  C2_4 
REMARK    3  A    between atoms: C2_4  and  C3_5 
REMARK    4  A    between atoms: C3_5  and  C4_7 
ROOT
HETATM    1  C2  UNL     1      21.664   2.439  51.661  1.00  0.00     0.134 C 
HETATM    2  C5  UNL     1      21.896   3.833  51.560  1.00  0.00     0.038 C 
HETATM    3  C6  UNL     1      22.372   5.157  51.599  1.00  0.00     0.022 C 
HETATM    4  C7  UNL     1      23.623   5.188  52.482  1.00  0.00     0.120 C 
HETATM    5  N1  UNL     1      24.337   3.970  52.618  1.00  0.00    -0.389 N 
HETATM    6  C8  UNL     1      24.120   2.557  52.800  1.00  0.00     0.037 C 
HETATM    7  C9  UNL     1      25.117   1.838  53.233  1.00  0.00     0.031 C 
HETATM    8  C10 UNL     1      24.860   0.413  53.406  1.00  0.00     0.015 C 
HETATM    9  C11 UNL     1      23.660  -0.057  53.103  1.00  0.00    -0.013 C 
HETATM   10  C12 UNL     1      22.640   0.710  53.048  1.00  0.00    -0.003 C 
HETATM   11  C13 UNL     1      22.821   1.883  52.520  1.00  0.00     0.009 C 
HETATM   12  H10 UNL     1      25.401   4.095  52.582  1.00  0.00     0.159 HD
ENDROOT
BRANCH   1  13
HETATM   13  S1  UNL     1      20.092   1.974  52.479  1.00  0.00     0.011 SA
BRANCH  13  14
HETATM   14  O1  UNL     1      18.874   3.132  52.223  1.00  0.00    -0.323 OA
HETATM   15  C1  UNL     1      18.134   2.702  51.104  1.00  0.00     0.220 C 
ENDBRANCH  13  14
ENDBRANCH   1  13
BRANCH   1  16
HETATM   16  C3  UNL     1      21.695   1.606  50.421  1.00  0.00     0.258 C 
HETATM   17  O2  UNL     1      21.219   0.491  50.318  1.00  0.00    -0.286 OA
BRANCH  16  18
HETATM   18  C4  UNL     1      22.357   2.196  49.240  1.00  0.00     0.453 C 
HETATM   19  F1  UNL     1      21.645   3.326  48.849  1.00  0.00    -0.163 F 
HETATM   20  F2  UNL     1      23.681   2.525  49.513  1.00  0.00    -0.163 F 
HETATM   21  F3  UNL     1      22.348   1.334  48.158  1.00  0.00    -0.163 F 
ENDBRANCH  16  18
ENDBRANCH   1  16
TORSDOF 4
ENDMDL
MODEL 7
REMARK VINA RESULT:      -6.4      9.471     11.403
REMARK  4 active torsions:
REMARK  status: ('A' for Active; 'I' for Inactive)
REMARK    1  A    between atoms: O1_2  and  S1_3 
REMARK    2  A    between atoms: S1_3  and  C2_4 
REMARK    3  A    between atoms: C2_4  and  C3_5 
REMARK    4  A    between atoms: C3_5  and  C4_7 
ROOT
HETATM    1  C2  UNL     1      32.469   5.650  46.366  1.00  0.00     0.134 C 
HETATM    2  C5  UNL     1      32.392   4.245  46.541  1.00  0.00     0.038 C 
HETATM    3  C6  UNL     1      32.549   2.889  46.878  1.00  0.00     0.022 C 
HETATM    4  C7  UNL     1      33.877   2.735  47.626  1.00  0.00     0.120 C 
HETATM    5  N1  UNL     1      34.377   3.890  48.281  1.00  0.00    -0.389 N 
HETATM    6  C8  UNL     1      34.534   5.309  48.087  1.00  0.00     0.037 C 
HETATM    7  C9  UNL     1      35.393   5.936  48.841  1.00  0.00     0.031 C 
HETATM    8  C10 UNL     1      35.525   7.371  48.616  1.00  0.00     0.015 C 
HETATM    9  C11 UNL     1      34.770   7.941  47.690  1.00  0.00    -0.013 C 
HETATM   10  C12 UNL     1      34.241   7.256  46.750  1.00  0.00    -0.003 C 
HETATM   11  C13 UNL     1      33.770   6.089  47.073  1.00  0.00     0.009 C 
HETATM   12  H10 UNL     1      34.789   3.684  49.249  1.00  0.00     0.159 HD
ENDROOT
BRANCH   1  13
HETATM   13  S1  UNL     1      32.567   6.209  44.624  1.00  0.00     0.011 SA
BRANCH  13  14
HETATM   14  O1  UNL     1      33.080   4.966  43.584  1.00  0.00    -0.323 OA
HETATM   15  C1  UNL     1      34.475   5.107  43.440  1.00  0.00     0.220 C 
ENDBRANCH  13  14
ENDBRANCH   1  13
BRANCH   1  16
HETATM   16  C3  UNL     1      31.412   6.515  46.972  1.00  0.00     0.258 C 
HETATM   17  O2  UNL     1      31.111   7.626  46.579  1.00  0.00    -0.286 OA
BRANCH  16  18
HETATM   18  C4  UNL     1      30.688   5.964  48.136  1.00  0.00     0.453 C 
HETATM   19  F1  UNL     1      29.983   6.995  48.750  1.00  0.00    -0.163 F 
HETATM   20  F2  UNL     1      29.824   4.941  47.756  1.00  0.00    -0.163 F 
HETATM   21  F3  UNL     1      31.553   5.458  49.090  1.00  0.00    -0.163 F 
ENDBRANCH  16  18
ENDBRANCH   1  16
TORSDOF 4
ENDMDL
MODEL 8
REMARK VINA RESULT:      -6.2      4.704      6.247
REMARK  4 active torsions:
REMARK  status: ('A' for Active; 'I' for Inactive)
REMARK    1  A    between atoms: O1_2  and  S1_3 
REMARK    2  A    between atoms: S1_3  and  C2_4 
REMARK    3  A    between atoms: C2_4  and  C3_5 
REMARK    4  A    between atoms: C3_5  and  C4_7 
ROOT
HETATM    1  C2  UNL     1      23.716   3.903  49.868  1.00  0.00     0.134 C 
HETATM    2  C5  UNL     1      24.996   3.366  49.580  1.00  0.00     0.038 C 
HETATM    3  C6  UNL     1      26.355   3.105  49.328  1.00  0.00     0.022 C 
HETATM    4  C7  UNL     1      27.090   4.446  49.245  1.00  0.00     0.120 C 
HETATM    5  N1  UNL     1      26.493   5.544  49.918  1.00  0.00    -0.389 N 
HETATM    6  C8  UNL     1      25.207   6.147  50.155  1.00  0.00     0.037 C 
HETATM    7  C9  UNL     1      25.180   7.386  50.562  1.00  0.00     0.031 C 
HETATM    8  C10 UNL     1      23.861   7.964  50.791  1.00  0.00     0.015 C 
HETATM    9  C11 UNL     1      22.794   7.207  50.593  1.00  0.00    -0.013 C 
HETATM   10  C12 UNL     1      22.845   6.163  49.858  1.00  0.00    -0.003 C 
HETATM   11  C13 UNL     1      23.914   5.432  49.960  1.00  0.00     0.009 C 
HETATM   12  H10 UNL     1      27.200   6.159  50.436  1.00  0.00     0.159 HD
ENDROOT
BRANCH   1  13
HETATM   13  S1  UNL     1      22.439   3.585  48.592  1.00  0.00     0.011 SA
BRANCH  13  14
HETATM   14  O1  UNL     1      22.607   2.044  47.893  1.00  0.00    -0.323 OA
HETATM   15  C1  UNL     1      21.629   1.221  48.487  1.00  0.00     0.220 C 
ENDBRANCH  13  14
ENDBRANCH   1  13
BRANCH   1  16
HETATM   16  C3  UNL     1      23.050   3.541  51.155  1.00  0.00     0.258 C 
HETATM   17  O2  UNL     1      21.883   3.213  51.268  1.00  0.00    -0.286 OA
BRANCH  16  18
HETATM   18  C4  UNL     1      23.884   3.589  52.373  1.00  0.00     0.453 C 
HETATM   19  F1  UNL     1      23.429   2.623  53.264  1.00  0.00    -0.163 F 
HETATM   20  F2  UNL     1      25.228   3.383  52.074  1.00  0.00    -0.163 F 
HETATM   21  F3  UNL     1      23.777   4.805  53.024  1.00  0.00    -0.163 F 
ENDBRANCH  16  18
ENDBRANCH   1  16
TORSDOF 4
ENDMDL
MODEL 9
REMARK VINA RESULT:      -6.2      4.500      5.968
REMARK  4 active torsions:
REMARK  status: ('A' for Active; 'I' for Inactive)
REMARK    1  A    between atoms: O1_2  and  S1_3 
REMARK    2  A    between atoms: S1_3  and  C2_4 
REMARK    3  A    between atoms: C2_4  and  C3_5 
REMARK    4  A    between atoms: C3_5  and  C4_7 
ROOT
HETATM    1  C2  UNL     1      23.262   2.617  50.923  1.00  0.00     0.134 C 
HETATM    2  C5  UNL     1      24.183   3.381  50.164  1.00  0.00     0.038 C 
HETATM    3  C6  UNL     1      25.296   3.980  49.546  1.00  0.00     0.022 C 
HETATM    4  C7  UNL     1      26.562   3.449  50.225  1.00  0.00     0.120 C 
HETATM    5  N1  UNL     1      26.458   2.188  50.869  1.00  0.00    -0.389 N 
HETATM    6  C8  UNL     1      25.566   1.427  51.706  1.00  0.00     0.037 C 
HETATM    7  C9  UNL     1      26.060   0.411  52.358  1.00  0.00     0.031 C 
HETATM    8  C10 UNL     1      25.128  -0.335  53.195  1.00  0.00     0.015 C 
HETATM    9  C11 UNL     1      23.861   0.045  53.229  1.00  0.00    -0.013 C 
HETATM   10  C12 UNL     1      23.511   1.226  52.890  1.00  0.00    -0.003 C 
HETATM   11  C13 UNL     1      24.117   1.740  51.862  1.00  0.00     0.009 C 
HETATM   12  H10 UNL     1      27.309   1.558  50.707  1.00  0.00     0.159 HD
ENDROOT
BRANCH   1  13
HETATM   13  S1  UNL     1      22.118   3.598  51.966  1.00  0.00     0.011 SA
BRANCH  13  14
HETATM   14  O1  UNL     1      20.571   2.896  52.049  1.00  0.00    -0.323 OA
HETATM   15  C1  UNL     1      19.666   3.852  51.548  1.00  0.00     0.220 C 
ENDBRANCH  13  14
ENDBRANCH   1  13
BRANCH   1  16
HETATM   16  C3  UNL     1      22.374   1.643  50.218  1.00  0.00     0.258 C 
HETATM   17  O2  UNL     1      21.998   0.582  50.681  1.00  0.00    -0.286 OA
BRANCH  16  18
HETATM   18  C4  UNL     1      21.930   2.010  48.859  1.00  0.00     0.453 C 
HETATM   19  F1  UNL     1      20.939   1.120  48.458  1.00  0.00    -0.163 F 
HETATM   20  F2  UNL     1      21.457   3.318  48.817  1.00  0.00    -0.163 F 
HETATM   21  F3  UNL     1      22.953   1.900  47.933  1.00  0.00    -0.163 F 
ENDBRANCH  16  18
ENDBRANCH   1  16
TORSDOF 4
ENDMDL
