MODEL 1
REMARK VINA RESULT:      -7.9      0.000      0.000
REMARK  0 active torsions:
REMARK  status: ('A' for Active; 'I' for Inactive)
ROOT
HETATM    1  C1  UNL     1      26.752   2.667  50.000  1.00  0.00     0.047 C 
HETATM    2  C2  UNL     1      26.586   2.555  51.184  1.00  0.00     0.144 C 
HETATM    3  N1  UNL     1      26.412   2.427  52.590  1.00  0.00     0.166 N 
HETATM    4  C3  UNL     1      27.677   2.661  53.320  1.00  0.00     0.353 C 
HETATM    5  C4  UNL     1      28.301   1.319  53.362  1.00  0.00     0.083 A 
HETATM    6  N2  UNL     1      29.333   0.602  53.752  1.00  0.00    -0.261 NA
HETATM    7  C5  UNL     1      28.313  -0.043  53.077  1.00  0.00     0.256 A 
HETATM    8  N3  UNL     1      27.279  -0.774  53.780  1.00  0.00    -0.357 N 
HETATM    9  C6  UNL     1      25.982  -1.252  53.452  1.00  0.00     0.199 C 
HETATM   10  N4  UNL     1      25.021  -0.846  54.167  1.00  0.00    -0.273 NA
HETATM   11  C7  UNL     1      23.651  -1.118  54.111  1.00  0.00     0.170 C 
HETATM   12  C8  UNL     1      22.482  -0.501  53.836  1.00  0.00    -0.016 A 
HETATM   13  C9  UNL     1      21.594  -1.663  54.064  1.00  0.00     0.066 A 
HETATM   14  C10 UNL     1      20.151  -1.348  53.845  1.00  0.00    -0.022 A 
HETATM   15  C11 UNL     1      19.614  -0.221  53.492  1.00  0.00    -0.001 A 
HETATM   16  C12 UNL     1      20.540   0.877  53.281  1.00  0.00     0.037 A 
HETATM   17  C13 UNL     1      21.826   0.780  53.428  1.00  0.00     0.073 A 
HETATM   18  O1  UNL     1      22.970   1.505  53.337  1.00  0.00    -0.346 OA
HETATM   19  C14 UNL     1      23.632   1.825  52.104  1.00  0.00     0.258 C 
HETATM   20  C15 UNL     1      25.028   2.121  52.469  1.00  0.00     0.393 A 
HETATM   21  O2  UNL     1      25.402   2.146  53.623  1.00  0.00    -0.133 OA
HETATM   22  H5  UNL     1      27.530  -1.018  54.762  1.00  0.00     0.162 HD
ENDROOT
TORSDOF 0
ENDMDL
MODEL 2
REMARK VINA RESULT:      -7.8      2.570      4.225
REMARK  0 active torsions:
REMARK  status: ('A' for Active; 'I' for Inactive)
ROOT
HETATM    1  C1  UNL     1      22.666   2.644  47.517  1.00  0.00     0.047 C 
HETATM    2  C2  UNL     1      22.931   3.179  48.557  1.00  0.00     0.144 C 
HETATM    3  N1  UNL     1      23.252   3.834  49.779  1.00  0.00     0.166 N 
HETATM    4  C3  UNL     1      23.770   5.199  49.547  1.00  0.00     0.353 C 
HETATM    5  C4  UNL     1      25.226   4.989  49.378  1.00  0.00     0.083 A 
HETATM    6  N2  UNL     1      26.395   5.548  49.149  1.00  0.00    -0.261 NA
HETATM    7  C5  UNL     1      26.355   4.177  49.329  1.00  0.00     0.256 A 
HETATM    8  N3  UNL     1      26.667   3.570  50.607  1.00  0.00    -0.357 N 
HETATM    9  C6  UNL     1      26.428   2.303  51.205  1.00  0.00     0.199 C 
HETATM   10  N4  UNL     1      25.788   2.294  52.296  1.00  0.00    -0.273 NA
HETATM   11  C7  UNL     1      25.394   1.239  53.123  1.00  0.00     0.170 C 
HETATM   12  C8  UNL     1      24.273   0.610  53.539  1.00  0.00    -0.016 A 
HETATM   13  C9  UNL     1      24.927  -0.388  54.414  1.00  0.00     0.066 A 
HETATM   14  C10 UNL     1      23.956  -1.306  55.081  1.00  0.00    -0.022 A 
HETATM   15  C11 UNL     1      22.663  -1.325  54.982  1.00  0.00    -0.001 A 
HETATM   16  C12 UNL     1      22.086  -0.322  54.107  1.00  0.00     0.037 A 
HETATM   17  C13 UNL     1      22.781   0.555  53.450  1.00  0.00     0.073 A 
HETATM   18  O1  UNL     1      22.649   1.593  52.585  1.00  0.00    -0.346 OA
HETATM   19  C14 UNL     1      22.418   1.450  51.174  1.00  0.00     0.258 C 
HETATM   20  C15 UNL     1      22.867   2.716  50.569  1.00  0.00     0.393 A 
HETATM   21  O2  UNL     1      23.251   3.651  51.240  1.00  0.00    -0.133 OA
HETATM   22  H5  UNL     1      27.193   4.195  51.253  1.00  0.00     0.162 HD
ENDROOT
TORSDOF 0
ENDMDL
MODEL 3
REMARK VINA RESULT:      -7.7      2.158      5.467
REMARK  0 active torsions:
REMARK  status: ('A' for Active; 'I' for Inactive)
ROOT
HETATM    1  C1  UNL     1      26.800  -2.215  52.331  1.00  0.00     0.047 C 
HETATM    2  C2  UNL     1      26.399  -1.263  52.942  1.00  0.00     0.144 C 
HETATM    3  N1  UNL     1      25.919  -0.149  53.685  1.00  0.00     0.166 N 
HETATM    4  C3  UNL     1      25.515  -0.539  55.053  1.00  0.00     0.353 C 
HETATM    5  C4  UNL     1      24.096  -0.932  54.893  1.00  0.00     0.083 A 
HETATM    6  N2  UNL     1      23.009  -1.380  55.483  1.00  0.00    -0.261 NA
HETATM    7  C5  UNL     1      22.950  -1.119  54.126  1.00  0.00     0.256 A 
HETATM    8  N3  UNL     1      22.406   0.122  53.614  1.00  0.00    -0.357 N 
HETATM    9  C6  UNL     1      22.481   0.821  52.379  1.00  0.00     0.199 C 
HETATM   10  N4  UNL     1      22.937   2.000  52.412  1.00  0.00    -0.273 NA
HETATM   11  C7  UNL     1      23.138   2.939  51.397  1.00  0.00     0.170 C 
HETATM   12  C8  UNL     1      24.145   3.567  50.751  1.00  0.00    -0.016 A 
HETATM   13  C9  UNL     1      23.309   4.377  49.837  1.00  0.00     0.066 A 
HETATM   14  C10 UNL     1      24.112   5.245  48.925  1.00  0.00    -0.022 A 
HETATM   15  C11 UNL     1      25.402   5.360  48.847  1.00  0.00    -0.001 A 
HETATM   16  C12 UNL     1      26.162   4.536  49.768  1.00  0.00     0.037 A 
HETATM   17  C13 UNL     1      25.627   3.727  50.629  1.00  0.00     0.073 A 
HETATM   18  O1  UNL     1      25.948   2.838  51.604  1.00  0.00    -0.346 OA
HETATM   19  C14 UNL     1      26.396   1.495  51.363  1.00  0.00     0.258 C 
HETATM   20  C15 UNL     1      26.114   0.754  52.605  1.00  0.00     0.393 A 
HETATM   21  O2  UNL     1      25.675   1.300  53.596  1.00  0.00    -0.133 OA
HETATM   22  H5  UNL     1      21.815   0.637  54.299  1.00  0.00     0.162 HD
ENDROOT
TORSDOF 0
ENDMDL
MODEL 4
REMARK VINA RESULT:      -7.6      2.658      6.181
REMARK  0 active torsions:
REMARK  status: ('A' for Active; 'I' for Inactive)
ROOT
HETATM    1  C1  UNL     1      20.098   3.752  51.939  1.00  0.00     0.047 C 
HETATM    2  C2  UNL     1      20.478   2.647  51.662  1.00  0.00     0.144 C 
HETATM    3  N1  UNL     1      20.904   1.332  51.329  1.00  0.00     0.166 N 
HETATM    4  C3  UNL     1      19.766   0.470  50.944  1.00  0.00     0.353 C 
HETATM    5  C4  UNL     1      19.313  -0.097  52.234  1.00  0.00     0.083 A 
HETATM    6  N2  UNL     1      18.450  -0.881  52.844  1.00  0.00    -0.261 NA
HETATM    7  C5  UNL     1      19.405  -0.243  53.615  1.00  0.00     0.256 A 
HETATM    8  N3  UNL     1      20.619  -0.914  54.031  1.00  0.00    -0.357 N 
HETATM    9  C6  UNL     1      21.886  -0.494  54.519  1.00  0.00     0.199 C 
HETATM   10  N4  UNL     1      22.904  -0.848  53.858  1.00  0.00    -0.273 NA
HETATM   11  C7  UNL     1      24.265  -0.605  54.061  1.00  0.00     0.170 C 
HETATM   12  C8  UNL     1      25.293   0.070  53.502  1.00  0.00    -0.016 A 
HETATM   13  C9  UNL     1      26.331  -0.317  54.484  1.00  0.00     0.066 A 
HETATM   14  C10 UNL     1      27.670   0.269  54.179  1.00  0.00    -0.022 A 
HETATM   15  C11 UNL     1      28.009   1.044  53.195  1.00  0.00    -0.001 A 
HETATM   16  C12 UNL     1      26.944   1.386  52.271  1.00  0.00     0.037 A 
HETATM   17  C13 UNL     1      25.722   0.965  52.384  1.00  0.00     0.073 A 
HETATM   18  O1  UNL     1      24.505   1.041  51.785  1.00  0.00    -0.346 OA
HETATM   19  C14 UNL     1      23.608   2.156  51.908  1.00  0.00     0.258 C 
HETATM   20  C15 UNL     1      22.272   1.627  51.585  1.00  0.00     0.393 A 
HETATM   21  O2  UNL     1      22.103   0.483  51.216  1.00  0.00    -0.133 OA
HETATM   22  H5  UNL     1      20.570  -1.952  53.965  1.00  0.00     0.162 HD
ENDROOT
TORSDOF 0
ENDMDL
MODEL 5
REMARK VINA RESULT:      -7.3      3.104      4.562
REMARK  0 active torsions:
REMARK  status: ('A' for Active; 'I' for Inactive)
ROOT
HETATM    1  C1  UNL     1      21.552   4.709  47.942  1.00  0.00     0.047 C 
HETATM    2  C2  UNL     1      21.907   4.904  49.071  1.00  0.00     0.144 C 
HETATM    3  N1  UNL     1      22.338   5.156  50.403  1.00  0.00     0.166 N 
HETATM    4  C3  UNL     1      23.066   6.440  50.508  1.00  0.00     0.353 C 
HETATM    5  C4  UNL     1      24.468   6.063  50.217  1.00  0.00     0.083 A 
HETATM    6  N2  UNL     1      25.710   6.478  50.083  1.00  0.00    -0.261 NA
HETATM    7  C5  UNL     1      25.453   5.131  49.903  1.00  0.00     0.256 A 
HETATM    8  N3  UNL     1      25.674   4.167  50.962  1.00  0.00    -0.357 N 
HETATM    9  C6  UNL     1      25.242   2.840  51.222  1.00  0.00     0.199 C 
HETATM   10  N4  UNL     1      24.617   2.640  52.304  1.00  0.00    -0.273 NA
HETATM   11  C7  UNL     1      24.066   1.476  52.848  1.00  0.00     0.170 C 
HETATM   12  C8  UNL     1      22.862   0.938  53.142  1.00  0.00    -0.016 A 
HETATM   13  C9  UNL     1      23.356  -0.343  53.694  1.00  0.00     0.066 A 
HETATM   14  C10 UNL     1      22.257  -1.247  54.148  1.00  0.00    -0.022 A 
HETATM   15  C11 UNL     1      20.976  -1.042  54.112  1.00  0.00    -0.001 A 
HETATM   16  C12 UNL     1      20.559   0.232  53.557  1.00  0.00     0.037 A 
HETATM   17  C13 UNL     1      21.380   1.135  53.117  1.00  0.00     0.073 A 
HETATM   18  O1  UNL     1      21.409   2.373  52.559  1.00  0.00    -0.346 OA
HETATM   19  C14 UNL     1      21.147   2.644  51.172  1.00  0.00     0.258 C 
HETATM   20  C15 UNL     1      21.787   3.941  50.894  1.00  0.00     0.393 A 
HETATM   21  O2  UNL     1      22.321   4.597  51.765  1.00  0.00    -0.133 OA
HETATM   22  H5  UNL     1      26.299   4.512  51.721  1.00  0.00     0.162 HD
ENDROOT
TORSDOF 0
ENDMDL
MODEL 6
REMARK VINA RESULT:      -7.2     11.017     12.737
REMARK  0 active torsions:
REMARK  status: ('A' for Active; 'I' for Inactive)
ROOT
HETATM    1  C1  UNL     1      32.442  11.492  46.178  1.00  0.00     0.047 C 
HETATM    2  C2  UNL     1      31.729  10.529  46.246  1.00  0.00     0.144 C 
HETATM    3  N1  UNL     1      30.865   9.402  46.332  1.00  0.00     0.166 N 
HETATM    4  C3  UNL     1      29.502   9.789  46.754  1.00  0.00     0.353 C 
HETATM    5  C4  UNL     1      29.573   9.739  48.232  1.00  0.00     0.083 A 
HETATM    6  N2  UNL     1      28.930   9.910  49.367  1.00  0.00    -0.261 NA
HETATM    7  C5  UNL     1      30.254   9.512  49.425  1.00  0.00     0.256 A 
HETATM    8  N3  UNL     1      30.623   8.124  49.607  1.00  0.00    -0.357 N 
HETATM    9  C6  UNL     1      31.802   7.359  49.401  1.00  0.00     0.199 C 
HETATM   10  N4  UNL     1      31.717   6.370  48.617  1.00  0.00    -0.273 NA
HETATM   11  C7  UNL     1      32.671   5.435  48.207  1.00  0.00     0.170 C 
HETATM   12  C8  UNL     1      33.350   5.064  47.099  1.00  0.00    -0.016 A 
HETATM   13  C9  UNL     1      34.126   3.963  47.710  1.00  0.00     0.066 A 
HETATM   14  C10 UNL     1      35.034   3.279  46.741  1.00  0.00    -0.022 A 
HETATM   15  C11 UNL     1      35.210   3.534  45.481  1.00  0.00    -0.001 A 
HETATM   16  C12 UNL     1      34.421   4.627  44.945  1.00  0.00     0.037 A 
HETATM   17  C13 UNL     1      33.582   5.328  45.645  1.00  0.00     0.073 A 
HETATM   18  O1  UNL     1      32.708   6.361  45.544  1.00  0.00    -0.346 OA
HETATM   19  C14 UNL     1      33.087   7.747  45.527  1.00  0.00     0.258 C 
HETATM   20  C15 UNL     1      31.887   8.492  45.942  1.00  0.00     0.393 A 
HETATM   21  O2  UNL     1      30.823   7.942  46.143  1.00  0.00    -0.133 OA
HETATM   22  H5  UNL     1      29.853   7.529  49.980  1.00  0.00     0.162 HD
ENDROOT
TORSDOF 0
ENDMDL
MODEL 7
REMARK VINA RESULT:      -7.2      3.895      5.802
REMARK  0 active torsions:
REMARK  status: ('A' for Active; 'I' for Inactive)
ROOT
HETATM    1  C1  UNL     1      25.289   5.333  49.921  1.00  0.00     0.047 C 
HETATM    2  C2  UNL     1      24.398   4.598  49.594  1.00  0.00     0.144 C 
HETATM    3  N1  UNL     1      23.338   3.741  49.188  1.00  0.00     0.166 N 
HETATM    4  C3  UNL     1      22.656   4.252  47.979  1.00  0.00     0.353 C 
HETATM    5  C4  UNL     1      21.609   5.144  48.528  1.00  0.00     0.083 A 
HETATM    6  N2  UNL     1      20.616   5.964  48.258  1.00  0.00    -0.261 NA
HETATM    7  C5  UNL     1      20.934   5.745  49.586  1.00  0.00     0.256 A 
HETATM    8  N3  UNL     1      20.200   4.796  50.397  1.00  0.00    -0.357 N 
HETATM    9  C6  UNL     1      20.441   4.120  51.624  1.00  0.00     0.199 C 
HETATM   10  N4  UNL     1      20.415   2.856  51.599  1.00  0.00    -0.273 NA
HETATM   11  C7  UNL     1      20.608   1.910  52.609  1.00  0.00     0.170 C 
HETATM   12  C8  UNL     1      21.488   0.954  52.980  1.00  0.00    -0.016 A 
HETATM   13  C9  UNL     1      20.785   0.513  54.206  1.00  0.00     0.066 A 
HETATM   14  C10 UNL     1      21.494  -0.590  54.921  1.00  0.00    -0.022 A 
HETATM   15  C11 UNL     1      22.606  -1.176  54.602  1.00  0.00    -0.001 A 
HETATM   16  C12 UNL     1      23.244  -0.696  53.392  1.00  0.00     0.037 A 
HETATM   17  C13 UNL     1      22.767   0.254  52.647  1.00  0.00     0.073 A 
HETATM   18  O1  UNL     1      23.027   0.958  51.516  1.00  0.00    -0.346 OA
HETATM   19  C14 UNL     1      23.969   2.040  51.431  1.00  0.00     0.258 C 
HETATM   20  C15 UNL     1      23.560   2.831  50.258  1.00  0.00     0.393 A 
HETATM   21  O2  UNL     1      22.649   2.486  49.533  1.00  0.00    -0.133 OA
HETATM   22  H5  UNL     1      19.271   4.536  50.004  1.00  0.00     0.162 HD
ENDROOT
TORSDOF 0
ENDMDL
MODEL 8
REMARK VINA RESULT:      -7.1      1.631      2.263
REMARK  0 active torsions:
REMARK  status: ('A' for Active; 'I' for Inactive)
ROOT
HETATM    1  C1  UNL     1      26.418   2.441  50.393  1.00  0.00     0.047 C 
HETATM    2  C2  UNL     1      25.868   2.462  51.460  1.00  0.00     0.144 C 
HETATM    3  N1  UNL     1      25.237   2.486  52.735  1.00  0.00     0.166 N 
HETATM    4  C3  UNL     1      26.227   2.447  53.834  1.00  0.00     0.353 C 
HETATM    5  C4  UNL     1      26.433   0.998  54.059  1.00  0.00     0.083 A 
HETATM    6  N2  UNL     1      27.066   0.075  54.750  1.00  0.00    -0.261 NA
HETATM    7  C5  UNL     1      26.176  -0.340  53.777  1.00  0.00     0.256 A 
HETATM    8  N3  UNL     1      24.821  -0.735  54.105  1.00  0.00    -0.357 N 
HETATM    9  C6  UNL     1      23.613  -0.894  53.374  1.00  0.00     0.199 C 
HETATM   10  N4  UNL     1      22.619  -0.208  53.749  1.00  0.00    -0.273 NA
HETATM   11  C7  UNL     1      21.314  -0.131  53.255  1.00  0.00     0.170 C 
HETATM   12  C8  UNL     1      20.493   0.739  52.626  1.00  0.00    -0.016 A 
HETATM   13  C9  UNL     1      19.307  -0.142  52.547  1.00  0.00     0.066 A 
HETATM   14  C10 UNL     1      18.139   0.508  51.881  1.00  0.00    -0.022 A 
HETATM   15  C11 UNL     1      18.054   1.705  51.387  1.00  0.00    -0.001 A 
HETATM   16  C12 UNL     1      19.252   2.516  51.496  1.00  0.00     0.037 A 
HETATM   17  C13 UNL     1      20.355   2.110  52.045  1.00  0.00     0.073 A 
HETATM   18  O1  UNL     1      21.619   2.516  52.333  1.00  0.00    -0.346 OA
HETATM   19  C14 UNL     1      22.692   2.567  51.379  1.00  0.00     0.258 C 
HETATM   20  C15 UNL     1      23.931   2.529  52.175  1.00  0.00     0.393 A 
HETATM   21  O2  UNL     1      23.919   2.544  53.388  1.00  0.00    -0.133 OA
HETATM   22  H5  UNL     1      24.681  -0.961  55.112  1.00  0.00     0.162 HD
ENDROOT
TORSDOF 0
ENDMDL
MODEL 9
REMARK VINA RESULT:      -7.1      3.758      6.186
REMARK  0 active torsions:
REMARK  status: ('A' for Active; 'I' for Inactive)
ROOT
HETATM    1  C1  UNL     1      26.406   6.757  48.647  1.00  0.00     0.047 C 
HETATM    2  C2  UNL     1      25.552   5.930  48.816  1.00  0.00     0.144 C 
HETATM    3  N1  UNL     1      24.525   4.965  49.005  1.00  0.00     0.166 N 
HETATM    4  C3  UNL     1      23.233   5.427  48.454  1.00  0.00     0.353 C 
HETATM    5  C4  UNL     1      22.624   6.168  49.582  1.00  0.00     0.083 A 
HETATM    6  N2  UNL     1      21.595   6.870  50.005  1.00  0.00    -0.261 NA
HETATM    7  C5  UNL     1      22.636   6.649  50.888  1.00  0.00     0.256 A 
HETATM    8  N3  UNL     1      22.582   5.592  51.878  1.00  0.00    -0.357 N 
HETATM    9  C6  UNL     1      23.539   4.912  52.678  1.00  0.00     0.199 C 
HETATM   10  N4  UNL     1      23.606   3.656  52.552  1.00  0.00    -0.273 NA
HETATM   11  C7  UNL     1      24.421   2.709  53.178  1.00  0.00     0.170 C 
HETATM   12  C8  UNL     1      25.427   1.855  52.889  1.00  0.00    -0.016 A 
HETATM   13  C9  UNL     1      25.597   1.294  54.248  1.00  0.00     0.066 A 
HETATM   14  C10 UNL     1      26.674   0.263  54.325  1.00  0.00    -0.022 A 
HETATM   15  C11 UNL     1      27.444  -0.174  53.376  1.00  0.00    -0.001 A 
HETATM   16  C12 UNL     1      27.228   0.419  52.070  1.00  0.00     0.037 A 
HETATM   17  C13 UNL     1      26.334   1.326  51.823  1.00  0.00     0.073 A 
HETATM   18  O1  UNL     1      25.837   2.093  50.819  1.00  0.00    -0.346 OA
HETATM   19  C14 UNL     1      26.467   3.282  50.317  1.00  0.00     0.258 C 
HETATM   20  C15 UNL     1      25.395   4.055  49.666  1.00  0.00     0.393 A 
HETATM   21  O2  UNL     1      24.265   3.626  49.559  1.00  0.00    -0.133 OA
HETATM   22  H5  UNL     1      21.621   5.235  52.060  1.00  0.00     0.162 HD
ENDROOT
TORSDOF 0
ENDMDL
