MODEL 1
REMARK VINA RESULT:      -7.3      0.000      0.000
REMARK  4 active torsions:
REMARK  status: ('A' for Active; 'I' for Inactive)
REMARK    1  A    between atoms: O1_2  and  C2_3 
REMARK    2  A    between atoms: C6_9  and  S1_10 
REMARK    3  A    between atoms: S1_10  and  C7_11 
REMARK    4  A    between atoms: C14_19  and  O2_20 
ROOT
HETATM    1  C2  UNL     1      26.599   0.376  54.332  1.00  0.00     0.103 A 
HETATM    2  C3  UNL     1      25.513  -0.438  54.083  1.00  0.00     0.072 A 
HETATM    3  C4  UNL     1      24.374   0.041  53.468  1.00  0.00     0.074 A 
HETATM    4  N1  UNL     1      23.293  -0.714  53.207  1.00  0.00    -0.241 NA
HETATM    5  C5  UNL     1      22.189  -0.197  52.598  1.00  0.00     0.234 A 
HETATM    6  N2  UNL     1      22.218   1.106  52.265  1.00  0.00    -0.234 NA
HETATM    7  C6  UNL     1      23.243   1.918  52.487  1.00  0.00     0.108 A 
HETATM    8  C12 UNL     1      24.353   1.378  53.105  1.00  0.00     0.031 A 
HETATM    9  C13 UNL     1      25.438   2.196  53.352  1.00  0.00     0.056 A 
HETATM   10  C14 UNL     1      26.575   1.704  53.968  1.00  0.00     0.102 A 
ENDROOT
BRANCH   7  11
HETATM   11  S1  UNL     1      23.242   3.648  52.028  1.00  0.00    -0.097 SA
BRANCH  11  12
HETATM   12  C7  UNL     1      23.493   3.688  50.221  1.00  0.00     0.101 A 
HETATM   13  C8  UNL     1      23.388   5.039  49.659  1.00  0.00    -0.006 A 
HETATM   14  C9  UNL     1      24.573   5.426  49.179  1.00  0.00     0.021 A 
HETATM   15  C10 UNL     1      25.561   4.347  49.391  1.00  0.00     0.031 A 
HETATM   16 CL1  UNL     1      27.244   4.433  48.912  1.00  0.00    -0.085 Cl
HETATM   17  C11 UNL     1      24.923   3.343  49.997  1.00  0.00     0.016 A 
ENDBRANCH  11  12
ENDBRANCH   7  11
BRANCH  10  18
HETATM   18  O2  UNL     1      27.722   2.427  54.268  1.00  0.00    -0.353 OA
HETATM   19  C15 UNL     1      28.679   2.591  53.237  1.00  0.00     0.210 C 
ENDBRANCH  10  18
BRANCH   1  20
HETATM   20  O1  UNL     1      27.695  -0.193  54.951  1.00  0.00    -0.353 OA
HETATM   21  C1  UNL     1      28.717  -0.776  54.186  1.00  0.00     0.210 C 
ENDBRANCH   1  20
TORSDOF 4
ENDMDL
MODEL 2
REMARK VINA RESULT:      -7.2      3.016      4.602
REMARK  4 active torsions:
REMARK  status: ('A' for Active; 'I' for Inactive)
REMARK    1  A    between atoms: O1_2  and  C2_3 
REMARK    2  A    between atoms: C6_9  and  S1_10 
REMARK    3  A    between atoms: S1_10  and  C7_11 
REMARK    4  A    between atoms: C14_19  and  O2_20 
ROOT
HETATM    1  C2  UNL     1      27.482   0.254  53.966  1.00  0.00     0.103 A 
HETATM    2  C3  UNL     1      27.849   1.067  52.914  1.00  0.00     0.072 A 
HETATM    3  C4  UNL     1      26.922   1.824  52.226  1.00  0.00     0.074 A 
HETATM    4  N1  UNL     1      27.233   2.629  51.195  1.00  0.00    -0.241 NA
HETATM    5  C5  UNL     1      26.283   3.358  50.544  1.00  0.00     0.234 A 
HETATM    6  N2  UNL     1      25.013   3.243  50.972  1.00  0.00    -0.234 NA
HETATM    7  C6  UNL     1      24.624   2.473  51.979  1.00  0.00     0.108 A 
HETATM    8  C12 UNL     1      25.598   1.741  52.627  1.00  0.00     0.031 A 
HETATM    9  C13 UNL     1      25.228   0.928  53.681  1.00  0.00     0.056 A 
HETATM   10  C14 UNL     1      26.166   0.175  54.363  1.00  0.00     0.102 A 
ENDROOT
BRANCH   7  11
HETATM   11  S1  UNL     1      22.921   2.348  52.519  1.00  0.00    -0.097 SA
BRANCH  11  12
HETATM   12  C7  UNL     1      22.356   0.688  52.013  1.00  0.00     0.101 A 
HETATM   13  C8  UNL     1      21.687  -0.043  53.095  1.00  0.00    -0.006 A 
HETATM   14  C9  UNL     1      20.398  -0.223  52.795  1.00  0.00     0.021 A 
HETATM   15  C10 UNL     1      20.116   0.383  51.475  1.00  0.00     0.031 A 
HETATM   16 CL1  UNL     1      18.547   0.377  50.695  1.00  0.00    -0.085 Cl
HETATM   17  C11 UNL     1      21.260   0.909  51.031  1.00  0.00     0.016 A 
ENDBRANCH  11  12
ENDBRANCH   7  11
BRANCH  10  18
HETATM   18  O2  UNL     1      25.913  -0.674  55.433  1.00  0.00    -0.353 OA
HETATM   19  C15 UNL     1      24.606  -1.206  55.550  1.00  0.00     0.210 C 
ENDBRANCH  10  18
BRANCH   1  20
HETATM   20  O1  UNL     1      28.480  -0.466  54.595  1.00  0.00    -0.353 OA
HETATM   21  C1  UNL     1      29.631  -0.846  53.888  1.00  0.00     0.210 C 
ENDBRANCH   1  20
TORSDOF 4
ENDMDL
MODEL 3
REMARK VINA RESULT:      -7.2      3.195      4.396
REMARK  4 active torsions:
REMARK  status: ('A' for Active; 'I' for Inactive)
REMARK    1  A    between atoms: O1_2  and  C2_3 
REMARK    2  A    between atoms: C6_9  and  S1_10 
REMARK    3  A    between atoms: S1_10  and  C7_11 
REMARK    4  A    between atoms: C14_19  and  O2_20 
ROOT
HETATM    1  C2  UNL     1      27.493   0.856  53.426  1.00  0.00     0.103 A 
HETATM    2  C3  UNL     1      26.966   0.010  54.380  1.00  0.00     0.072 A 
HETATM    3  C4  UNL     1      25.619  -0.292  54.417  1.00  0.00     0.074 A 
HETATM    4  N1  UNL     1      25.062  -1.109  55.327  1.00  0.00    -0.241 NA
HETATM    5  C5  UNL     1      23.726  -1.378  55.325  1.00  0.00     0.234 A 
HETATM    6  N2  UNL     1      22.977  -0.791  54.373  1.00  0.00    -0.234 NA
HETATM    7  C6  UNL     1      23.449   0.026  53.441  1.00  0.00     0.108 A 
HETATM    8  C12 UNL     1      24.804   0.288  53.458  1.00  0.00     0.031 A 
HETATM    9  C13 UNL     1      25.328   1.135  52.501  1.00  0.00     0.056 A 
HETATM   10  C14 UNL     1      26.680   1.428  52.473  1.00  0.00     0.102 A 
ENDROOT
BRANCH   7  11
HETATM   11  S1  UNL     1      22.419   0.787  52.191  1.00  0.00    -0.097 SA
BRANCH  11  12
HETATM   12  C7  UNL     1      20.798   1.072  52.980  1.00  0.00     0.101 A 
HETATM   13  C8  UNL     1      20.144   2.302  52.519  1.00  0.00    -0.006 A 
HETATM   14  C9  UNL     1      19.033   2.001  51.841  1.00  0.00     0.021 A 
HETATM   15  C10 UNL     1      18.869   0.531  51.803  1.00  0.00     0.031 A 
HETATM   16 CL1  UNL     1      17.542  -0.299  51.015  1.00  0.00    -0.085 Cl
HETATM   17  C11 UNL     1      19.899   0.003  52.468  1.00  0.00     0.016 A 
ENDBRANCH  11  12
ENDBRANCH   7  11
BRANCH  10  18
HETATM   18  O2  UNL     1      27.319   2.262  51.565  1.00  0.00    -0.353 OA
HETATM   19  C15 UNL     1      26.505   3.006  50.677  1.00  0.00     0.210 C 
ENDBRANCH  10  18
BRANCH   1  20
HETATM   20  O1  UNL     1      28.853   1.097  53.468  1.00  0.00    -0.353 OA
HETATM   21  C1  UNL     1      29.755   0.037  53.648  1.00  0.00     0.210 C 
ENDBRANCH   1  20
TORSDOF 4
ENDMDL
MODEL 4
REMARK VINA RESULT:      -6.8      2.056      2.753
REMARK  4 active torsions:
REMARK  status: ('A' for Active; 'I' for Inactive)
REMARK    1  A    between atoms: O1_2  and  C2_3 
REMARK    2  A    between atoms: C6_9  and  S1_10 
REMARK    3  A    between atoms: S1_10  and  C7_11 
REMARK    4  A    between atoms: C14_19  and  O2_20 
ROOT
HETATM    1  C2  UNL     1      26.920   1.885  52.386  1.00  0.00     0.103 A 
HETATM    2  C3  UNL     1      26.155   1.055  53.180  1.00  0.00     0.072 A 
HETATM    3  C4  UNL     1      24.823   0.816  52.907  1.00  0.00     0.074 A 
HETATM    4  N1  UNL     1      24.041   0.016  53.652  1.00  0.00    -0.241 NA
HETATM    5  C5  UNL     1      22.729  -0.190  53.345  1.00  0.00     0.234 A 
HETATM    6  N2  UNL     1      22.240   0.440  52.261  1.00  0.00    -0.234 NA
HETATM    7  C6  UNL     1      22.944   1.244  51.476  1.00  0.00     0.108 A 
HETATM    8  C12 UNL     1      24.271   1.442  51.801  1.00  0.00     0.031 A 
HETATM    9  C13 UNL     1      25.033   2.273  51.004  1.00  0.00     0.056 A 
HETATM   10  C14 UNL     1      26.367   2.504  51.287  1.00  0.00     0.102 A 
ENDROOT
BRANCH   7  11
HETATM   11  S1  UNL     1      22.256   2.064  50.041  1.00  0.00    -0.097 SA
BRANCH  11  12
HETATM   12  C7  UNL     1      21.504   3.608  50.659  1.00  0.00     0.101 A 
HETATM   13  C8  UNL     1      21.582   3.739  52.118  1.00  0.00    -0.006 A 
HETATM   14  C9  UNL     1      22.379   4.762  52.442  1.00  0.00     0.021 A 
HETATM   15  C10 UNL     1      22.893   5.390  51.205  1.00  0.00     0.031 A 
HETATM   16 CL1  UNL     1      23.975   6.768  51.168  1.00  0.00    -0.085 Cl
HETATM   17  C11 UNL     1      22.378   4.712  50.177  1.00  0.00     0.016 A 
ENDBRANCH  11  12
ENDBRANCH   7  11
BRANCH  10  18
HETATM   18  O2  UNL     1      27.229   3.317  50.562  1.00  0.00    -0.353 OA
HETATM   19  C15 UNL     1      26.700   3.990  49.435  1.00  0.00     0.210 C 
ENDBRANCH  10  18
BRANCH   1  20
HETATM   20  O1  UNL     1      28.244   2.063  52.737  1.00  0.00    -0.353 OA
HETATM   21  C1  UNL     1      28.922   1.074  53.466  1.00  0.00     0.210 C 
ENDBRANCH   1  20
TORSDOF 4
ENDMDL
MODEL 5
REMARK VINA RESULT:      -6.8      2.266      2.712
REMARK  4 active torsions:
REMARK  status: ('A' for Active; 'I' for Inactive)
REMARK    1  A    between atoms: O1_2  and  C2_3 
REMARK    2  A    between atoms: C6_9  and  S1_10 
REMARK    3  A    between atoms: S1_10  and  C7_11 
REMARK    4  A    between atoms: C14_19  and  O2_20 
ROOT
HETATM    1  C2  UNL     1      26.996   0.772  53.091  1.00  0.00     0.103 A 
HETATM    2  C3  UNL     1      26.259  -0.106  53.859  1.00  0.00     0.072 A 
HETATM    3  C4  UNL     1      24.879  -0.113  53.829  1.00  0.00     0.074 A 
HETATM    4  N1  UNL     1      24.121  -0.949  54.559  1.00  0.00    -0.241 NA
HETATM    5  C5  UNL     1      22.760  -0.919  54.499  1.00  0.00     0.234 A 
HETATM    6  N2  UNL     1      22.196  -0.017  53.675  1.00  0.00    -0.234 NA
HETATM    7  C6  UNL     1      22.871   0.842  52.923  1.00  0.00     0.108 A 
HETATM    8  C12 UNL     1      24.249   0.799  52.997  1.00  0.00     0.031 A 
HETATM    9  C13 UNL     1      24.983   1.679  52.226  1.00  0.00     0.056 A 
HETATM   10  C14 UNL     1      26.366   1.676  52.264  1.00  0.00     0.102 A 
ENDROOT
BRANCH   7  11
HETATM   11  S1  UNL     1      22.083   2.029  51.839  1.00  0.00    -0.097 SA
BRANCH  11  12
HETATM   12  C7  UNL     1      22.282   1.373  50.148  1.00  0.00     0.101 A 
HETATM   13  C8  UNL     1      21.002   1.085  49.491  1.00  0.00    -0.006 A 
HETATM   14  C9  UNL     1      20.826   1.908  48.454  1.00  0.00     0.021 A 
HETATM   15  C10 UNL     1      21.991   2.813  48.347  1.00  0.00     0.031 A 
HETATM   16 CL1  UNL     1      22.175   4.054  47.124  1.00  0.00    -0.085 Cl
HETATM   17  C11 UNL     1      22.830   2.493  49.335  1.00  0.00     0.016 A 
ENDBRANCH  11  12
ENDBRANCH   7  11
BRANCH  10  18
HETATM   18  O2  UNL     1      27.207   2.510  51.538  1.00  0.00    -0.353 OA
HETATM   19  C15 UNL     1      26.639   3.236  50.464  1.00  0.00     0.210 C 
ENDBRANCH  10  18
BRANCH   1  20
HETATM   20  O1  UNL     1      28.372   0.704  53.186  1.00  0.00    -0.353 OA
HETATM   21  C1  UNL     1      28.982  -0.347  53.889  1.00  0.00     0.210 C 
ENDBRANCH   1  20
TORSDOF 4
ENDMDL
MODEL 6
REMARK VINA RESULT:      -6.7      3.223      6.030
REMARK  4 active torsions:
REMARK  status: ('A' for Active; 'I' for Inactive)
REMARK    1  A    between atoms: O1_2  and  C2_3 
REMARK    2  A    between atoms: C6_9  and  S1_10 
REMARK    3  A    between atoms: S1_10  and  C7_11 
REMARK    4  A    between atoms: C14_19  and  O2_20 
ROOT
HETATM    1  C2  UNL     1      21.962   4.845  51.636  1.00  0.00     0.103 A 
HETATM    2  C3  UNL     1      21.261   3.682  51.878  1.00  0.00     0.072 A 
HETATM    3  C4  UNL     1      21.882   2.548  52.362  1.00  0.00     0.074 A 
HETATM    4  N1  UNL     1      21.239   1.394  52.612  1.00  0.00    -0.241 NA
HETATM    5  C5  UNL     1      21.894   0.298  53.089  1.00  0.00     0.234 A 
HETATM    6  N2  UNL     1      23.217   0.412  53.303  1.00  0.00    -0.234 NA
HETATM    7  C6  UNL     1      23.924   1.512  53.082  1.00  0.00     0.108 A 
HETATM    8  C12 UNL     1      23.245   2.613  52.599  1.00  0.00     0.031 A 
HETATM    9  C13 UNL     1      23.951   3.775  52.358  1.00  0.00     0.056 A 
HETATM   10  C14 UNL     1      23.318   4.906  51.874  1.00  0.00     0.102 A 
ENDROOT
BRANCH   7  11
HETATM   11  S1  UNL     1      25.686   1.624  53.379  1.00  0.00    -0.097 SA
BRANCH  11  12
HETATM   12  C7  UNL     1      26.196  -0.016  53.997  1.00  0.00     0.101 A 
HETATM   13  C8  UNL     1      26.219  -1.041  52.947  1.00  0.00    -0.006 A 
HETATM   14  C9  UNL     1      27.473  -1.450  52.737  1.00  0.00     0.021 A 
HETATM   15  C10 UNL     1      28.383  -0.717  53.643  1.00  0.00     0.031 A 
HETATM   16 CL1  UNL     1      30.120  -0.943  53.702  1.00  0.00    -0.085 Cl
HETATM   17  C11 UNL     1      27.630   0.113  54.369  1.00  0.00     0.016 A 
ENDBRANCH  11  12
ENDBRANCH   7  11
BRANCH  10  18
HETATM   18  O2  UNL     1      23.920   6.126  51.594  1.00  0.00    -0.353 OA
HETATM   19  C15 UNL     1      24.742   6.200  50.444  1.00  0.00     0.210 C 
ENDBRANCH  10  18
BRANCH   1  20
HETATM   20  O1  UNL     1      21.255   5.929  51.153  1.00  0.00    -0.353 OA
HETATM   21  C1  UNL     1      20.447   5.796  50.014  1.00  0.00     0.210 C 
ENDBRANCH   1  20
TORSDOF 4
ENDMDL
MODEL 7
REMARK VINA RESULT:      -6.7      3.352      6.021
REMARK  4 active torsions:
REMARK  status: ('A' for Active; 'I' for Inactive)
REMARK    1  A    between atoms: O1_2  and  C2_3 
REMARK    2  A    between atoms: C6_9  and  S1_10 
REMARK    3  A    between atoms: S1_10  and  C7_11 
REMARK    4  A    between atoms: C14_19  and  O2_20 
ROOT
HETATM    1  C2  UNL     1      22.083   2.309  49.329  1.00  0.00     0.103 A 
HETATM    2  C3  UNL     1      21.356   1.403  50.074  1.00  0.00     0.072 A 
HETATM    3  C4  UNL     1      21.842   0.882  51.257  1.00  0.00     0.074 A 
HETATM    4  N1  UNL     1      21.170  -0.002  52.014  1.00  0.00    -0.241 NA
HETATM    5  C5  UNL     1      21.689  -0.491  53.175  1.00  0.00     0.234 A 
HETATM    6  N2  UNL     1      22.908  -0.055  53.541  1.00  0.00    -0.234 NA
HETATM    7  C6  UNL     1      23.635   0.815  52.851  1.00  0.00     0.108 A 
HETATM    8  C12 UNL     1      23.094   1.299  51.677  1.00  0.00     0.031 A 
HETATM    9  C13 UNL     1      23.824   2.206  50.935  1.00  0.00     0.056 A 
HETATM   10  C14 UNL     1      23.327   2.722  49.752  1.00  0.00     0.102 A 
ENDROOT
BRANCH   7  11
HETATM   11  S1  UNL     1      25.255   1.371  53.372  1.00  0.00    -0.097 SA
BRANCH  11  12
HETATM   12  C7  UNL     1      26.096  -0.098  54.052  1.00  0.00     0.101 A 
HETATM   13  C8  UNL     1      26.257  -1.173  53.066  1.00  0.00    -0.006 A 
HETATM   14  C9  UNL     1      27.554  -1.357  52.801  1.00  0.00     0.021 A 
HETATM   15  C10 UNL     1      28.354  -0.406  53.601  1.00  0.00     0.031 A 
HETATM   16 CL1  UNL     1      30.103  -0.302  53.562  1.00  0.00    -0.085 Cl
HETATM   17  C11 UNL     1      27.498   0.320  54.323  1.00  0.00     0.016 A 
ENDBRANCH  11  12
ENDBRANCH   7  11
BRANCH  10  18
HETATM   18  O2  UNL     1      23.966   3.636  48.923  1.00  0.00    -0.353 OA
HETATM   19  C15 UNL     1      24.198   4.934  49.438  1.00  0.00     0.210 C 
ENDBRANCH  10  18
BRANCH   1  20
HETATM   20  O1  UNL     1      21.514   2.776  48.160  1.00  0.00    -0.353 OA
HETATM   21  C1  UNL     1      20.129   2.681  47.959  1.00  0.00     0.210 C 
ENDBRANCH   1  20
TORSDOF 4
ENDMDL
MODEL 8
REMARK VINA RESULT:      -6.6      2.099      3.138
REMARK  4 active torsions:
REMARK  status: ('A' for Active; 'I' for Inactive)
REMARK    1  A    between atoms: O1_2  and  C2_3 
REMARK    2  A    between atoms: C6_9  and  S1_10 
REMARK    3  A    between atoms: S1_10  and  C7_11 
REMARK    4  A    between atoms: C14_19  and  O2_20 
ROOT
HETATM    1  C2  UNL     1      23.158   0.303  53.330  1.00  0.00     0.103 A 
HETATM    2  C3  UNL     1      21.866   0.729  53.101  1.00  0.00     0.072 A 
HETATM    3  C4  UNL     1      21.596   1.980  52.584  1.00  0.00     0.074 A 
HETATM    4  N1  UNL     1      20.354   2.437  52.344  1.00  0.00    -0.241 NA
HETATM    5  C5  UNL     1      20.135   3.681  51.833  1.00  0.00     0.234 A 
HETATM    6  N2  UNL     1      21.213   4.442  51.573  1.00  0.00    -0.234 NA
HETATM    7  C6  UNL     1      22.468   4.067  51.780  1.00  0.00     0.108 A 
HETATM    8  C12 UNL     1      22.673   2.804  52.299  1.00  0.00     0.031 A 
HETATM    9  C13 UNL     1      23.967   2.382  52.527  1.00  0.00     0.056 A 
HETATM   10  C14 UNL     1      24.226   1.125  53.045  1.00  0.00     0.102 A 
ENDROOT
BRANCH   7  11
HETATM   11  S1  UNL     1      23.878   5.112  51.422  1.00  0.00    -0.097 SA
BRANCH  11  12
HETATM   12  C7  UNL     1      24.237   4.877  49.648  1.00  0.00     0.101 A 
HETATM   13  C8  UNL     1      24.318   6.142  48.908  1.00  0.00    -0.006 A 
HETATM   14  C9  UNL     1      25.566   6.335  48.471  1.00  0.00     0.021 A 
HETATM   15  C10 UNL     1      26.411   5.198  48.894  1.00  0.00     0.031 A 
HETATM   16 CL1  UNL     1      28.119   5.044  48.533  1.00  0.00    -0.085 Cl
HETATM   17  C11 UNL     1      25.630   4.359  49.577  1.00  0.00     0.016 A 
ENDBRANCH  11  12
ENDBRANCH   7  11
BRANCH  10  18
HETATM   18  O2  UNL     1      25.479   0.593  53.316  1.00  0.00    -0.353 OA
HETATM   19  C15 UNL     1      26.422   0.571  52.260  1.00  0.00     0.210 C 
ENDBRANCH  10  18
BRANCH   1  20
HETATM   20  O1  UNL     1      23.330  -0.966  53.850  1.00  0.00    -0.353 OA
HETATM   21  C1  UNL     1      22.609  -1.370  54.984  1.00  0.00     0.210 C 
ENDBRANCH   1  20
TORSDOF 4
ENDMDL
MODEL 9
REMARK VINA RESULT:      -6.3      3.656      5.954
REMARK  4 active torsions:
REMARK  status: ('A' for Active; 'I' for Inactive)
REMARK    1  A    between atoms: O1_2  and  C2_3 
REMARK    2  A    between atoms: C6_9  and  S1_10 
REMARK    3  A    between atoms: S1_10  and  C7_11 
REMARK    4  A    between atoms: C14_19  and  O2_20 
ROOT
HETATM    1  C2  UNL     1      25.708   4.252  49.909  1.00  0.00     0.103 A 
HETATM    2  C3  UNL     1      26.495   3.191  50.306  1.00  0.00     0.072 A 
HETATM    3  C4  UNL     1      26.013   2.202  51.139  1.00  0.00     0.074 A 
HETATM    4  N1  UNL     1      26.743   1.151  51.551  1.00  0.00    -0.241 NA
HETATM    5  C5  UNL     1      26.224   0.198  52.376  1.00  0.00     0.234 A 
HETATM    6  N2  UNL     1      24.945   0.346  52.766  1.00  0.00    -0.234 NA
HETATM    7  C6  UNL     1      24.159   1.351  52.405  1.00  0.00     0.108 A 
HETATM    8  C12 UNL     1      24.700   2.308  51.570  1.00  0.00     0.031 A 
HETATM    9  C13 UNL     1      23.909   3.369  51.175  1.00  0.00     0.056 A 
HETATM   10  C14 UNL     1      24.403   4.354  50.339  1.00  0.00     0.102 A 
ENDROOT
BRANCH   7  11
HETATM   11  S1  UNL     1      22.460   1.513  52.947  1.00  0.00    -0.097 SA
BRANCH  11  12
HETATM   12  C7  UNL     1      21.640  -0.055  52.502  1.00  0.00     0.101 A 
HETATM   13  C8  UNL     1      20.809  -0.594  53.585  1.00  0.00    -0.006 A 
HETATM   14  C9  UNL     1      19.522  -0.571  53.225  1.00  0.00     0.021 A 
HETATM   15  C10 UNL     1      19.407  -0.009  51.862  1.00  0.00     0.031 A 
HETATM   16 CL1  UNL     1      17.896   0.202  51.000  1.00  0.00    -0.085 Cl
HETATM   17  C11 UNL     1      20.643   0.287  51.453  1.00  0.00     0.016 A 
ENDBRANCH  11  12
ENDBRANCH   7  11
BRANCH  10  18
HETATM   18  O2  UNL     1      23.706   5.462  49.877  1.00  0.00    -0.353 OA
HETATM   19  C15 UNL     1      23.523   6.540  50.776  1.00  0.00     0.210 C 
ENDBRANCH  10  18
BRANCH   1  20
HETATM   20  O1  UNL     1      26.278   5.193  49.073  1.00  0.00    -0.353 OA
HETATM   21  C1  UNL     1      27.602   5.040  48.633  1.00  0.00     0.210 C 
ENDBRANCH   1  20
TORSDOF 4
ENDMDL
