MODEL 1
REMARK VINA RESULT:      -8.0      0.000      0.000
REMARK  5 active torsions:
REMARK  status: ('A' for Active; 'I' for Inactive)
REMARK    1  A    between atoms: N1_1  and  C1_2 
REMARK    2  A    between atoms: C4_6  and  C5_7 
REMARK    3  A    between atoms: C5_7  and  O2_8 
REMARK    4  A    between atoms: O2_8  and  C6_9 
REMARK    5  A    between atoms: N3_13  and  C9_14 
ROOT
HETATM    1  C6  UNL     1      24.129   1.021  52.537  1.00  0.00     0.086 C 
HETATM    2  C7  UNL     1      23.862   2.006  51.651  1.00  0.00    -0.027 C 
HETATM    3  C8  UNL     1      23.743   2.508  50.258  1.00  0.00     0.148 C 
HETATM    4  N2  UNL     1      22.423   3.025  49.915  1.00  0.00    -0.229 NA
HETATM    5  N3  UNL     1      21.341   2.662  50.732  1.00  0.00    -0.278 N 
HETATM    6  C15 UNL     1      21.908   2.392  51.971  1.00  0.00     0.065 C 
HETATM    7  C16 UNL     1      21.781   1.424  52.841  1.00  0.00     0.106 C 
HETATM    8  O3  UNL     1      20.468   0.917  53.010  1.00  0.00    -0.348 OA
HETATM    9  C17 UNL     1      20.429  -0.501  53.395  1.00  0.00     0.201 C 
HETATM   10  C18 UNL     1      21.511  -0.614  54.431  1.00  0.00     0.196 C 
HETATM   11  O4  UNL     1      22.772  -0.433  53.875  1.00  0.00    -0.370 OA
HETATM   12  C19 UNL     1      23.020   0.909  53.583  1.00  0.00     0.236 C 
HETATM   13  C20 UNL     1      23.167   3.230  52.365  1.00  0.00     0.099 C 
HETATM   14  H13 UNL     1      22.177   2.814  48.930  1.00  0.00     0.147 HD
ENDROOT
BRANCH   1  15
HETATM   15  O2  UNL     1      25.369   0.630  51.942  1.00  0.00    -0.349 OA
BRANCH  15  16
HETATM   16  C5  UNL     1      26.549   1.316  52.369  1.00  0.00     0.209 C 
BRANCH  16  17
HETATM   17  C4  UNL     1      26.686   1.309  53.855  1.00  0.00     0.178 C 
HETATM   18  C1  UNL     1      27.679   0.239  54.275  1.00  0.00     0.250 C 
HETATM   19  C2  UNL     1      28.958   0.809  53.695  1.00  0.00     0.064 C 
HETATM   20  C3  UNL     1      28.670   2.274  53.630  1.00  0.00     0.170 C 
HETATM   21  O1  UNL     1      27.411   2.473  54.192  1.00  0.00    -0.381 OA
BRANCH  18  22
HETATM   22  N1  UNL     1      27.339  -1.046  53.696  1.00  0.00     0.085 N 
HETATM   23  H1  UNL     1      27.176  -1.791  54.422  1.00  0.00     0.313 HD
HETATM   24  H2  UNL     1      26.382  -0.924  53.254  1.00  0.00     0.313 HD
ENDBRANCH  18  22
ENDBRANCH  16  17
ENDBRANCH  15  16
ENDBRANCH   1  15
BRANCH   5  25
HETATM   25  C9  UNL     1      19.962   2.393  50.834  1.00  0.00     0.053 A 
HETATM   26  C10 UNL     1      19.629   1.202  50.186  1.00  0.00     0.034 A 
HETATM   27  C11 UNL     1      18.327   0.750  50.114  1.00  0.00     0.046 A 
HETATM   28  C12 UNL     1      17.366   1.531  50.713  1.00  0.00     0.138 A 
HETATM   29  F1  UNL     1      16.056   1.186  50.704  1.00  0.00    -0.204 F 
HETATM   30  C13 UNL     1      17.730   2.701  51.344  1.00  0.00     0.074 A 
HETATM   31 CL1  UNL     1      16.483   3.689  52.106  1.00  0.00    -0.081 Cl
HETATM   32  C14 UNL     1      19.011   3.174  51.432  1.00  0.00     0.058 A 
ENDBRANCH   5  25
TORSDOF 5
ENDMDL
MODEL 2
REMARK VINA RESULT:      -7.7      3.823      7.714
REMARK  5 active torsions:
REMARK  status: ('A' for Active; 'I' for Inactive)
REMARK    1  A    between atoms: N1_1  and  C1_2 
REMARK    2  A    between atoms: C4_6  and  C5_7 
REMARK    3  A    between atoms: C5_7  and  O2_8 
REMARK    4  A    between atoms: O2_8  and  C6_9 
REMARK    5  A    between atoms: N3_13  and  C9_14 
ROOT
HETATM    1  C6  UNL     1      20.637   1.781  52.516  1.00  0.00     0.086 C 
HETATM    2  C7  UNL     1      21.594   2.369  51.766  1.00  0.00    -0.027 C 
HETATM    3  C8  UNL     1      22.528   3.491  51.492  1.00  0.00     0.148 C 
HETATM    4  N2  UNL     1      23.933   3.104  51.427  1.00  0.00    -0.229 NA
HETATM    5  N3  UNL     1      24.302   1.872  51.988  1.00  0.00    -0.278 N 
HETATM    6  C15 UNL     1      23.151   1.096  51.930  1.00  0.00     0.065 C 
HETATM    7  C16 UNL     1      22.527   0.323  52.781  1.00  0.00     0.106 C 
HETATM    8  O3  UNL     1      23.357  -0.459  53.623  1.00  0.00    -0.348 OA
HETATM    9  C17 UNL     1      22.758  -0.748  54.934  1.00  0.00     0.201 C 
HETATM   10  C18 UNL     1      21.335  -1.096  54.602  1.00  0.00     0.196 C 
HETATM   11  O4  UNL     1      20.636   0.008  54.130  1.00  0.00    -0.370 OA
HETATM   12  C19 UNL     1      20.995   0.325  52.820  1.00  0.00     0.236 C 
HETATM   13  C20 UNL     1      22.194   1.350  50.721  1.00  0.00     0.099 C 
HETATM   14  H13 UNL     1      24.549   3.841  51.817  1.00  0.00     0.147 HD
ENDROOT
BRANCH   1  15
HETATM   15  O2  UNL     1      19.795   2.933  52.598  1.00  0.00    -0.349 OA
BRANCH  15  16
HETATM   16  C5  UNL     1      19.083   3.314  51.418  1.00  0.00     0.209 C 
BRANCH  16  17
HETATM   17  C4  UNL     1      17.610   3.138  51.580  1.00  0.00     0.178 C 
HETATM   18  C1  UNL     1      16.893   3.636  50.336  1.00  0.00     0.250 C 
HETATM   19  C2  UNL     1      17.371   2.620  49.318  1.00  0.00     0.064 C 
HETATM   20  C3  UNL     1      17.705   1.434  50.163  1.00  0.00     0.170 C 
HETATM   21  O1  UNL     1      17.362   1.752  51.476  1.00  0.00    -0.381 OA
BRANCH  18  22
HETATM   22  N1  UNL     1      17.305   4.986  50.000  1.00  0.00     0.085 N 
HETATM   23  H1  UNL     1      16.983   5.283  49.042  1.00  0.00     0.313 HD
HETATM   24  H2  UNL     1      16.763   5.627  50.648  1.00  0.00     0.313 HD
ENDBRANCH  18  22
ENDBRANCH  16  17
ENDBRANCH  15  16
ENDBRANCH   1  15
BRANCH   5  25
HETATM   25  C9  UNL     1      25.293   1.103  52.632  1.00  0.00     0.053 A 
HETATM   26  C10 UNL     1      25.800   1.767  53.750  1.00  0.00     0.034 A 
HETATM   27  C11 UNL     1      26.812   1.232  54.519  1.00  0.00     0.046 A 
HETATM   28  C12 UNL     1      27.302   0.005  54.132  1.00  0.00     0.138 A 
HETATM   29  F1  UNL     1      28.296  -0.615  54.813  1.00  0.00    -0.204 F 
HETATM   30  C13 UNL     1      26.778  -0.621  53.023  1.00  0.00     0.074 A 
HETATM   31 CL1  UNL     1      27.419  -2.194  52.542  1.00  0.00    -0.081 Cl
HETATM   32  C14 UNL     1      25.775  -0.116  52.241  1.00  0.00     0.058 A 
ENDBRANCH   5  25
TORSDOF 5
ENDMDL
MODEL 3
REMARK VINA RESULT:      -7.7      4.045      5.540
REMARK  5 active torsions:
REMARK  status: ('A' for Active; 'I' for Inactive)
REMARK    1  A    between atoms: N1_1  and  C1_2 
REMARK    2  A    between atoms: C4_6  and  C5_7 
REMARK    3  A    between atoms: C5_7  and  O2_8 
REMARK    4  A    between atoms: O2_8  and  C6_9 
REMARK    5  A    between atoms: N3_13  and  C9_14 
ROOT
HETATM    1  C6  UNL     1      25.790   2.480  51.378  1.00  0.00     0.086 C 
HETATM    2  C7  UNL     1      24.486   2.600  51.711  1.00  0.00    -0.027 C 
HETATM    3  C8  UNL     1      23.415   3.023  52.649  1.00  0.00     0.148 C 
HETATM    4  N2  UNL     1      22.466   3.979  52.089  1.00  0.00    -0.229 NA
HETATM    5  N3  UNL     1      22.844   4.680  50.934  1.00  0.00    -0.278 N 
HETATM    6  C15 UNL     1      23.769   3.857  50.305  1.00  0.00     0.065 C 
HETATM    7  C16 UNL     1      24.946   4.050  49.768  1.00  0.00     0.106 C 
HETATM    8  O3  UNL     1      25.102   5.259  49.045  1.00  0.00    -0.348 OA
HETATM    9  C17 UNL     1      26.477   5.779  49.057  1.00  0.00     0.201 C 
HETATM   10  C18 UNL     1      27.317   4.554  48.833  1.00  0.00     0.196 C 
HETATM   11  O4  UNL     1      27.258   3.688  49.917  1.00  0.00    -0.370 OA
HETATM   12  C19 UNL     1      26.046   2.999  49.963  1.00  0.00     0.236 C 
HETATM   13  C20 UNL     1      23.561   2.316  50.464  1.00  0.00     0.099 C 
HETATM   14  H13 UNL     1      22.151   4.663  52.801  1.00  0.00     0.147 HD
ENDROOT
BRANCH   1  15
HETATM   15  O2  UNL     1      26.200   1.905  52.621  1.00  0.00    -0.349 OA
BRANCH  15  16
HETATM   16  C5  UNL     1      27.561   1.480  52.734  1.00  0.00     0.209 C 
BRANCH  16  17
HETATM   17  C4  UNL     1      28.000   1.403  54.157  1.00  0.00     0.178 C 
HETATM   18  C1  UNL     1      27.812  -0.011  54.679  1.00  0.00     0.250 C 
HETATM   19  C2  UNL     1      28.833  -0.751  53.838  1.00  0.00     0.064 C 
HETATM   20  C3  UNL     1      29.816   0.318  53.490  1.00  0.00     0.170 C 
HETATM   21  O1  UNL     1      29.411   1.481  54.143  1.00  0.00    -0.381 OA
BRANCH  18  22
HETATM   22  N1  UNL     1      26.461  -0.481  54.440  1.00  0.00     0.085 N 
HETATM   23  H1  UNL     1      25.731   0.243  54.665  1.00  0.00     0.313 HD
HETATM   24  H2  UNL     1      26.373  -0.596  53.389  1.00  0.00     0.313 HD
ENDBRANCH  18  22
ENDBRANCH  16  17
ENDBRANCH  15  16
ENDBRANCH   1  15
BRANCH   5  25
HETATM   25  C9  UNL     1      22.748   5.862  50.171  1.00  0.00     0.053 A 
HETATM   26  C10 UNL     1      23.340   6.940  50.832  1.00  0.00     0.034 A 
HETATM   27  C11 UNL     1      23.333   8.213  50.302  1.00  0.00     0.046 A 
HETATM   28  C12 UNL     1      22.713   8.374  49.084  1.00  0.00     0.138 A 
HETATM   29  F1  UNL     1      22.647   9.579  48.469  1.00  0.00    -0.204 F 
HETATM   30  C13 UNL     1      22.140   7.288  48.459  1.00  0.00     0.074 A 
HETATM   31 CL1  UNL     1      21.350   7.514  46.898  1.00  0.00    -0.081 Cl
HETATM   32  C14 UNL     1      22.131   6.014  48.960  1.00  0.00     0.058 A 
ENDBRANCH   5  25
TORSDOF 5
ENDMDL
MODEL 4
REMARK VINA RESULT:      -7.6      4.415      6.198
REMARK  5 active torsions:
REMARK  status: ('A' for Active; 'I' for Inactive)
REMARK    1  A    between atoms: N1_1  and  C1_2 
REMARK    2  A    between atoms: C4_6  and  C5_7 
REMARK    3  A    between atoms: C5_7  and  O2_8 
REMARK    4  A    between atoms: O2_8  and  C6_9 
REMARK    5  A    between atoms: N3_13  and  C9_14 
ROOT
HETATM    1  C6  UNL     1      23.475   4.824  49.338  1.00  0.00     0.086 C 
HETATM    2  C7  UNL     1      23.941   4.901  50.604  1.00  0.00    -0.027 C 
HETATM    3  C8  UNL     1      23.824   5.369  52.009  1.00  0.00     0.148 C 
HETATM    4  N2  UNL     1      23.807   4.299  53.001  1.00  0.00    -0.229 NA
HETATM    5  N3  UNL     1      23.514   2.999  52.561  1.00  0.00    -0.278 N 
HETATM    6  C15 UNL     1      23.895   2.982  51.225  1.00  0.00     0.065 C 
HETATM    7  C16 UNL     1      23.336   2.559  50.122  1.00  0.00     0.106 C 
HETATM    8  O3  UNL     1      22.609   1.346  50.227  1.00  0.00    -0.348 OA
HETATM    9  C17 UNL     1      21.487   1.249  49.282  1.00  0.00     0.201 C 
HETATM   10  C18 UNL     1      22.064   1.771  47.997  1.00  0.00     0.196 C 
HETATM   11  O4  UNL     1      22.342   3.130  48.076  1.00  0.00    -0.370 OA
HETATM   12  C19 UNL     1      23.485   3.380  48.836  1.00  0.00     0.236 C 
HETATM   13  C20 UNL     1      25.117   3.874  50.832  1.00  0.00     0.099 C 
HETATM   14  H13 UNL     1      23.180   4.527  53.794  1.00  0.00     0.147 HD
ENDROOT
BRANCH   1  15
HETATM   15  O2  UNL     1      23.225   6.225  49.196  1.00  0.00    -0.349 OA
BRANCH  15  16
HETATM   16  C5  UNL     1      24.308   7.045  48.750  1.00  0.00     0.209 C 
BRANCH  16  17
HETATM   17  C4  UNL     1      24.307   8.376  49.423  1.00  0.00     0.178 C 
HETATM   18  C1  UNL     1      25.711   8.714  49.899  1.00  0.00     0.250 C 
HETATM   19  C2  UNL     1      26.421   8.868  48.569  1.00  0.00     0.064 C 
HETATM   20  C3  UNL     1      25.310   9.228  47.638  1.00  0.00     0.170 C 
HETATM   21  O1  UNL     1      24.150   9.339  48.401  1.00  0.00    -0.381 OA
BRANCH  18  22
HETATM   22  N1  UNL     1      26.266   7.637  50.696  1.00  0.00     0.085 N 
HETATM   23  H1  UNL     1      27.203   7.877  51.110  1.00  0.00     0.313 HD
HETATM   24  H2  UNL     1      25.639   7.550  51.547  1.00  0.00     0.313 HD
ENDBRANCH  18  22
ENDBRANCH  16  17
ENDBRANCH  15  16
ENDBRANCH   1  15
BRANCH   5  25
HETATM   25  C9  UNL     1      22.955   1.739  52.853  1.00  0.00     0.053 A 
HETATM   26  C10 UNL     1      23.946   0.771  53.024  1.00  0.00     0.034 A 
HETATM   27  C11 UNL     1      23.641  -0.550  53.275  1.00  0.00     0.046 A 
HETATM   28  C12 UNL     1      22.305  -0.874  53.351  1.00  0.00     0.138 A 
HETATM   29  F1  UNL     1      21.889  -2.140  53.594  1.00  0.00    -0.204 F 
HETATM   30  C13 UNL     1      21.353   0.106  53.178  1.00  0.00     0.074 A 
HETATM   31 CL1  UNL     1      19.646  -0.328  53.279  1.00  0.00    -0.081 Cl
HETATM   32  C14 UNL     1      21.625   1.424  52.927  1.00  0.00     0.058 A 
ENDBRANCH   5  25
TORSDOF 5
ENDMDL
MODEL 5
REMARK VINA RESULT:      -7.3      4.203      8.033
REMARK  5 active torsions:
REMARK  status: ('A' for Active; 'I' for Inactive)
REMARK    1  A    between atoms: N1_1  and  C1_2 
REMARK    2  A    between atoms: C4_6  and  C5_7 
REMARK    3  A    between atoms: C5_7  and  O2_8 
REMARK    4  A    between atoms: O2_8  and  C6_9 
REMARK    5  A    between atoms: N3_13  and  C9_14 
ROOT
HETATM    1  C6  UNL     1      22.637   3.679  50.375  1.00  0.00     0.086 C 
HETATM    2  C7  UNL     1      22.388   3.009  51.522  1.00  0.00    -0.027 C 
HETATM    3  C8  UNL     1      21.927   1.799  52.249  1.00  0.00     0.148 C 
HETATM    4  N2  UNL     1      22.922   1.218  53.144  1.00  0.00    -0.229 NA
HETATM    5  N3  UNL     1      24.265   1.578  52.955  1.00  0.00    -0.278 N 
HETATM    6  C15 UNL     1      24.216   2.829  52.354  1.00  0.00     0.065 C 
HETATM    7  C16 UNL     1      24.820   3.374  51.330  1.00  0.00     0.106 C 
HETATM    8  O3  UNL     1      26.186   3.032  51.168  1.00  0.00    -0.348 OA
HETATM    9  C17 UNL     1      26.633   3.047  49.767  1.00  0.00     0.201 C 
HETATM   10  C18 UNL     1      26.010   4.295  49.212  1.00  0.00     0.196 C 
HETATM   11  O4  UNL     1      24.627   4.188  49.140  1.00  0.00    -0.370 OA
HETATM   12  C19 UNL     1      24.033   4.302  50.396  1.00  0.00     0.236 C 
HETATM   13  C20 UNL     1      23.024   3.756  52.758  1.00  0.00     0.099 C 
HETATM   14  H13 UNL     1      22.858   0.183  53.162  1.00  0.00     0.147 HD
ENDROOT
BRANCH   1  15
HETATM   15  O2  UNL     1      21.374   3.395  49.770  1.00  0.00    -0.349 OA
BRANCH  15  16
HETATM   16  C5  UNL     1      20.207   3.934  50.398  1.00  0.00     0.209 C 
BRANCH  16  17
HETATM   17  C4  UNL     1      19.004   3.815  49.523  1.00  0.00     0.178 C 
HETATM   18  C1  UNL     1      18.420   2.417  49.639  1.00  0.00     0.250 C 
HETATM   19  C2  UNL     1      17.946   2.436  51.079  1.00  0.00     0.064 C 
HETATM   20  C3  UNL     1      17.734   3.891  51.340  1.00  0.00     0.170 C 
HETATM   21  O1  UNL     1      17.983   4.566  50.147  1.00  0.00    -0.381 OA
BRANCH  18  22
HETATM   22  N1  UNL     1      19.433   1.405  49.409  1.00  0.00     0.085 N 
HETATM   23  H1  UNL     1      20.132   1.688  48.673  1.00  0.00     0.313 HD
HETATM   24  H2  UNL     1      20.016   1.368  50.294  1.00  0.00     0.313 HD
ENDBRANCH  18  22
ENDBRANCH  16  17
ENDBRANCH  15  16
ENDBRANCH   1  15
BRANCH   5  25
HETATM   25  C9  UNL     1      25.623   1.209  53.047  1.00  0.00     0.053 A 
HETATM   26  C10 UNL     1      25.851  -0.034  52.455  1.00  0.00     0.034 A 
HETATM   27  C11 UNL     1      27.097  -0.625  52.458  1.00  0.00     0.046 A 
HETATM   28  C12 UNL     1      28.112   0.071  53.075  1.00  0.00     0.138 A 
HETATM   29  F1  UNL     1      29.376  -0.414  53.138  1.00  0.00    -0.204 F 
HETATM   30  C13 UNL     1      27.851   1.295  53.649  1.00  0.00     0.074 A 
HETATM   31 CL1  UNL     1      29.165   2.172  54.435  1.00  0.00    -0.081 Cl
HETATM   32  C14 UNL     1      26.627   1.907  53.662  1.00  0.00     0.058 A 
ENDBRANCH   5  25
TORSDOF 5
ENDMDL
MODEL 6
REMARK VINA RESULT:      -7.3      4.851      6.525
REMARK  5 active torsions:
REMARK  status: ('A' for Active; 'I' for Inactive)
REMARK    1  A    between atoms: N1_1  and  C1_2 
REMARK    2  A    between atoms: C4_6  and  C5_7 
REMARK    3  A    between atoms: C5_7  and  O2_8 
REMARK    4  A    between atoms: O2_8  and  C6_9 
REMARK    5  A    between atoms: N3_13  and  C9_14 
ROOT
HETATM    1  C6  UNL     1      24.660   3.385  51.505  1.00  0.00     0.086 C 
HETATM    2  C7  UNL     1      23.475   4.029  51.584  1.00  0.00    -0.027 C 
HETATM    3  C8  UNL     1      22.554   4.987  52.249  1.00  0.00     0.148 C 
HETATM    4  N2  UNL     1      22.110   6.084  51.397  1.00  0.00    -0.229 NA
HETATM    5  N3  UNL     1      22.848   6.356  50.235  1.00  0.00    -0.278 N 
HETATM    6  C15 UNL     1      23.448   5.147  49.906  1.00  0.00     0.065 C 
HETATM    7  C16 UNL     1      24.658   4.793  49.560  1.00  0.00     0.106 C 
HETATM    8  O3  UNL     1      25.342   5.694  48.705  1.00  0.00    -0.348 OA
HETATM    9  C17 UNL     1      26.801   5.678  48.879  1.00  0.00     0.201 C 
HETATM   10  C18 UNL     1      27.126   4.215  48.988  1.00  0.00     0.196 C 
HETATM   11  O4  UNL     1      26.625   3.666  50.161  1.00  0.00    -0.370 OA
HETATM   12  C19 UNL     1      25.244   3.481  50.095  1.00  0.00     0.236 C 
HETATM   13  C20 UNL     1      22.649   3.849  50.252  1.00  0.00     0.099 C 
HETATM   14  H13 UNL     1      22.008   6.965  51.935  1.00  0.00     0.147 HD
ENDROOT
BRANCH   1  15
HETATM   15  O2  UNL     1      24.683   2.966  52.872  1.00  0.00    -0.349 OA
BRANCH  15  16
HETATM   16  C5  UNL     1      24.760   1.560  53.128  1.00  0.00     0.209 C 
BRANCH  16  17
HETATM   17  C4  UNL     1      26.018   0.968  52.587  1.00  0.00     0.178 C 
HETATM   18  C1  UNL     1      27.146   1.156  53.587  1.00  0.00     0.250 C 
HETATM   19  C2  UNL     1      26.664   0.267  54.716  1.00  0.00     0.064 C 
HETATM   20  C3  UNL     1      25.784  -0.715  54.013  1.00  0.00     0.170 C 
HETATM   21  O1  UNL     1      25.856  -0.434  52.650  1.00  0.00    -0.381 OA
BRANCH  18  22
HETATM   22  N1  UNL     1      27.261   2.544  53.993  1.00  0.00     0.085 N 
HETATM   23  H1  UNL     1      27.419   3.194  53.180  1.00  0.00     0.313 HD
HETATM   24  H2  UNL     1      26.301   2.825  54.346  1.00  0.00     0.313 HD
ENDBRANCH  18  22
ENDBRANCH  16  17
ENDBRANCH  15  16
ENDBRANCH   1  15
BRANCH   5  25
HETATM   25  C9  UNL     1      23.295   7.313  49.302  1.00  0.00     0.053 A 
HETATM   26  C10 UNL     1      24.197   8.205  49.885  1.00  0.00     0.034 A 
HETATM   27  C11 UNL     1      24.740   9.258  49.179  1.00  0.00     0.046 A 
HETATM   28  C12 UNL     1      24.348   9.392  47.866  1.00  0.00     0.138 A 
HETATM   29  F1  UNL     1      24.817  10.390  47.078  1.00  0.00    -0.204 F 
HETATM   30  C13 UNL     1      23.456   8.494  47.324  1.00  0.00     0.074 A 
HETATM   31 CL1  UNL     1      22.966   8.682  45.639  1.00  0.00    -0.081 Cl
HETATM   32  C14 UNL     1      22.901   7.440  47.998  1.00  0.00     0.058 A 
ENDBRANCH   5  25
TORSDOF 5
ENDMDL
MODEL 7
REMARK VINA RESULT:      -7.3      4.684      8.084
REMARK  5 active torsions:
REMARK  status: ('A' for Active; 'I' for Inactive)
REMARK    1  A    between atoms: N1_1  and  C1_2 
REMARK    2  A    between atoms: C4_6  and  C5_7 
REMARK    3  A    between atoms: C5_7  and  O2_8 
REMARK    4  A    between atoms: O2_8  and  C6_9 
REMARK    5  A    between atoms: N3_13  and  C9_14 
ROOT
HETATM    1  C6  UNL     1      22.707   4.259  50.335  1.00  0.00     0.086 C 
HETATM    2  C7  UNL     1      22.406   3.608  51.481  1.00  0.00    -0.027 C 
HETATM    3  C8  UNL     1      21.833   2.446  52.206  1.00  0.00     0.148 C 
HETATM    4  N2  UNL     1      22.776   1.757  53.080  1.00  0.00    -0.229 NA
HETATM    5  N3  UNL     1      24.146   1.977  52.873  1.00  0.00    -0.278 N 
HETATM    6  C15 UNL     1      24.219   3.232  52.283  1.00  0.00     0.065 C 
HETATM    7  C16 UNL     1      24.860   3.721  51.253  1.00  0.00     0.106 C 
HETATM    8  O3  UNL     1      26.180   3.240  51.066  1.00  0.00    -0.348 OA
HETATM    9  C17 UNL     1      26.606   3.221  49.659  1.00  0.00     0.201 C 
HETATM   10  C18 UNL     1      26.108   4.533  49.123  1.00  0.00     0.196 C 
HETATM   11  O4  UNL     1      24.720   4.570  49.072  1.00  0.00    -0.370 OA
HETATM   12  C19 UNL     1      24.160   4.734  50.339  1.00  0.00     0.236 C 
HETATM   13  C20 UNL     1      23.135   4.274  52.712  1.00  0.00     0.099 C 
HETATM   14  H13 UNL     1      22.605   0.734  53.092  1.00  0.00     0.147 HD
ENDROOT
BRANCH   1  15
HETATM   15  O2  UNL     1      21.412   4.114  49.747  1.00  0.00    -0.349 OA
BRANCH  15  16
HETATM   16  C5  UNL     1      21.202   4.704  48.462  1.00  0.00     0.209 C 
BRANCH  16  17
HETATM   17  C4  UNL     1      21.523   3.754  47.358  1.00  0.00     0.178 C 
HETATM   18  C1  UNL     1      20.251   3.075  46.878  1.00  0.00     0.250 C 
HETATM   19  C2  UNL     1      19.520   4.257  46.273  1.00  0.00     0.064 C 
HETATM   20  C3  UNL     1      20.632   5.192  45.923  1.00  0.00     0.170 C 
HETATM   21  O1  UNL     1      21.828   4.545  46.228  1.00  0.00    -0.381 OA
BRANCH  18  22
HETATM   22  N1  UNL     1      19.522   2.487  47.985  1.00  0.00     0.085 N 
HETATM   23  H1  UNL     1      18.479   2.596  47.891  1.00  0.00     0.313 HD
HETATM   24  H2  UNL     1      19.664   1.439  47.905  1.00  0.00     0.313 HD
ENDBRANCH  18  22
ENDBRANCH  16  17
ENDBRANCH  15  16
ENDBRANCH   1  15
BRANCH   5  25
HETATM   25  C9  UNL     1      25.459   1.469  52.940  1.00  0.00     0.053 A 
HETATM   26  C10 UNL     1      25.561   0.240  52.286  1.00  0.00     0.034 A 
HETATM   27  C11 UNL     1      26.741  -0.473  52.254  1.00  0.00     0.046 A 
HETATM   28  C12 UNL     1      27.820   0.084  52.901  1.00  0.00     0.138 A 
HETATM   29  F1  UNL     1      29.029  -0.528  52.934  1.00  0.00    -0.204 F 
HETATM   30  C13 UNL     1      27.684   1.299  53.537  1.00  0.00     0.074 A 
HETATM   31 CL1  UNL     1      29.080   1.997  54.360  1.00  0.00    -0.081 Cl
HETATM   32  C14 UNL     1      26.528   2.030  53.585  1.00  0.00     0.058 A 
ENDBRANCH   5  25
TORSDOF 5
ENDMDL
MODEL 8
REMARK VINA RESULT:      -7.2      4.755      8.142
REMARK  5 active torsions:
REMARK  status: ('A' for Active; 'I' for Inactive)
REMARK    1  A    between atoms: N1_1  and  C1_2 
REMARK    2  A    between atoms: C4_6  and  C5_7 
REMARK    3  A    between atoms: C5_7  and  O2_8 
REMARK    4  A    between atoms: O2_8  and  C6_9 
REMARK    5  A    between atoms: N3_13  and  C9_14 
ROOT
HETATM    1  C6  UNL     1      22.836   4.128  50.472  1.00  0.00     0.086 C 
HETATM    2  C7  UNL     1      22.525   3.464  51.607  1.00  0.00    -0.027 C 
HETATM    3  C8  UNL     1      21.933   2.301  52.316  1.00  0.00     0.148 C 
HETATM    4  N2  UNL     1      22.865   1.582  53.177  1.00  0.00    -0.229 NA
HETATM    5  N3  UNL     1      24.239   1.781  52.971  1.00  0.00    -0.278 N 
HETATM    6  C15 UNL     1      24.332   3.044  52.400  1.00  0.00     0.065 C 
HETATM    7  C16 UNL     1      24.980   3.538  51.377  1.00  0.00     0.106 C 
HETATM    8  O3  UNL     1      26.292   3.037  51.181  1.00  0.00    -0.348 OA
HETATM    9  C17 UNL     1      26.716   3.032  49.774  1.00  0.00     0.201 C 
HETATM   10  C18 UNL     1      26.240   4.361  49.259  1.00  0.00     0.196 C 
HETATM   11  O4  UNL     1      24.853   4.423  49.210  1.00  0.00    -0.370 OA
HETATM   12  C19 UNL     1      24.297   4.576  50.480  1.00  0.00     0.236 C 
HETATM   13  C20 UNL     1      23.268   4.098  52.848  1.00  0.00     0.099 C 
HETATM   14  H13 UNL     1      22.676   0.562  53.173  1.00  0.00     0.147 HD
ENDROOT
BRANCH   1  15
HETATM   15  O2  UNL     1      21.538   4.014  49.884  1.00  0.00    -0.349 OA
BRANCH  15  16
HETATM   16  C5  UNL     1      20.700   5.173  49.908  1.00  0.00     0.209 C 
BRANCH  16  17
HETATM   17  C4  UNL     1      20.730   5.904  48.608  1.00  0.00     0.178 C 
HETATM   18  C1  UNL     1      19.626   6.947  48.578  1.00  0.00     0.250 C 
HETATM   19  C2  UNL     1      20.116   7.896  49.654  1.00  0.00     0.064 C 
HETATM   20  C3  UNL     1      21.590   7.654  49.665  1.00  0.00     0.170 C 
HETATM   21  O1  UNL     1      21.867   6.741  48.649  1.00  0.00    -0.381 OA
BRANCH  18  22
HETATM   22  N1  UNL     1      18.342   6.359  48.909  1.00  0.00     0.085 N 
HETATM   23  H1  UNL     1      18.268   5.350  48.619  1.00  0.00     0.313 HD
HETATM   24  H2  UNL     1      18.306   6.311  49.968  1.00  0.00     0.313 HD
ENDBRANCH  18  22
ENDBRANCH  16  17
ENDBRANCH  15  16
ENDBRANCH   1  15
BRANCH   5  25
HETATM   25  C9  UNL     1      25.543   1.250  53.029  1.00  0.00     0.053 A 
HETATM   26  C10 UNL     1      25.646   0.080  52.274  1.00  0.00     0.034 A 
HETATM   27  C11 UNL     1      26.817  -0.646  52.211  1.00  0.00     0.046 A 
HETATM   28  C12 UNL     1      27.886  -0.163  52.931  1.00  0.00     0.138 A 
HETATM   29  F1  UNL     1      29.084  -0.794  52.943  1.00  0.00    -0.204 F 
HETATM   30  C13 UNL     1      27.748   0.994  53.665  1.00  0.00     0.074 A 
HETATM   31 CL1  UNL     1      29.130   1.599  54.582  1.00  0.00    -0.081 Cl
HETATM   32  C14 UNL     1      26.601   1.736  53.747  1.00  0.00     0.058 A 
ENDBRANCH   5  25
TORSDOF 5
ENDMDL
MODEL 9
REMARK VINA RESULT:      -7.1      3.896      6.788
REMARK  5 active torsions:
REMARK  status: ('A' for Active; 'I' for Inactive)
REMARK    1  A    between atoms: N1_1  and  C1_2 
REMARK    2  A    between atoms: C4_6  and  C5_7 
REMARK    3  A    between atoms: C5_7  and  O2_8 
REMARK    4  A    between atoms: O2_8  and  C6_9 
REMARK    5  A    between atoms: N3_13  and  C9_14 
ROOT
HETATM    1  C6  UNL     1      23.383   4.690  49.192  1.00  0.00     0.086 C 
HETATM    2  C7  UNL     1      23.874   4.814  50.445  1.00  0.00    -0.027 C 
HETATM    3  C8  UNL     1      23.784   5.335  51.833  1.00  0.00     0.148 C 
HETATM    4  N2  UNL     1      23.788   4.303  52.865  1.00  0.00    -0.229 NA
HETATM    5  N3  UNL     1      23.489   2.987  52.480  1.00  0.00    -0.278 N 
HETATM    6  C15 UNL     1      23.843   2.920  51.139  1.00  0.00     0.065 C 
HETATM    7  C16 UNL     1      23.262   2.455  50.063  1.00  0.00     0.106 C 
HETATM    8  O3  UNL     1      22.539   1.247  50.228  1.00  0.00    -0.348 OA
HETATM    9  C17 UNL     1      21.399   1.114  49.309  1.00  0.00     0.201 C 
HETATM   10  C18 UNL     1      21.950   1.588  47.995  1.00  0.00     0.196 C 
HETATM   11  O4  UNL     1      22.228   2.949  48.018  1.00  0.00    -0.370 OA
HETATM   12  C19 UNL     1      23.385   3.228  48.745  1.00  0.00     0.236 C 
HETATM   13  C20 UNL     1      25.056   3.797  50.688  1.00  0.00     0.099 C 
HETATM   14  H13 UNL     1      23.177   4.560  53.661  1.00  0.00     0.147 HD
ENDROOT
BRANCH   1  15
HETATM   15  O2  UNL     1      23.129   6.084  49.003  1.00  0.00    -0.349 OA
BRANCH  15  16
HETATM   16  C5  UNL     1      22.012   6.444  48.184  1.00  0.00     0.209 C 
BRANCH  16  17
HETATM   17  C4  UNL     1      20.716   6.069  48.821  1.00  0.00     0.178 C 
HETATM   18  C1  UNL     1      20.220   7.212  49.690  1.00  0.00     0.250 C 
HETATM   19  C2  UNL     1      19.930   8.256  48.630  1.00  0.00     0.064 C 
HETATM   20  C3  UNL     1      19.682   7.431  47.409  1.00  0.00     0.170 C 
HETATM   21  O1  UNL     1      19.747   6.093  47.794  1.00  0.00    -0.381 OA
BRANCH  18  22
HETATM   22  N1  UNL     1      21.244   7.646  50.620  1.00  0.00     0.085 N 
HETATM   23  H1  UNL     1      21.268   7.067  51.499  1.00  0.00     0.313 HD
HETATM   24  H2  UNL     1      22.172   7.423  50.158  1.00  0.00     0.313 HD
ENDBRANCH  18  22
ENDBRANCH  16  17
ENDBRANCH  15  16
ENDBRANCH   1  15
BRANCH   5  25
HETATM   25  C9  UNL     1      22.936   1.738  52.830  1.00  0.00     0.053 A 
HETATM   26  C10 UNL     1      23.933   0.780  53.021  1.00  0.00     0.034 A 
HETATM   27  C11 UNL     1      23.634  -0.531  53.329  1.00  0.00     0.046 A 
HETATM   28  C12 UNL     1      22.301  -0.854  53.440  1.00  0.00     0.138 A 
HETATM   29  F1  UNL     1      21.891  -2.110  53.739  1.00  0.00    -0.204 F 
HETATM   30  C13 UNL     1      21.344   0.118  53.245  1.00  0.00     0.074 A 
HETATM   31 CL1  UNL     1      19.639  -0.315  53.393  1.00  0.00    -0.081 Cl
HETATM   32  C14 UNL     1      21.609   1.425  52.940  1.00  0.00     0.058 A 
ENDBRANCH   5  25
TORSDOF 5
ENDMDL
