MODEL 1
REMARK VINA RESULT:      -7.8      0.000      0.000
REMARK  9 active torsions:
REMARK  status: ('A' for Active; 'I' for Inactive)
REMARK    1  A    between atoms: C2_2  and  C3_4 
REMARK    2  A    between atoms: C4_6  and  C5_7 
REMARK    3  A    between atoms: C5_7  and  N1_8 
REMARK    4  A    between atoms: N1_8  and  C6_9 
REMARK    5  A    between atoms: C6_9  and  N2_10 
REMARK    6  A    between atoms: N2_10  and  C7_11 
REMARK    7  A    between atoms: C7_11  and  N3_12 
REMARK    8  A    between atoms: C14_20  and  C15_21 
REMARK    9  A    between atoms: C15_21  and  N4_22 
ROOT
HETATM    1  C6  UNL     1      23.502   2.616  52.105  1.00  0.00     0.138 C 
HETATM    2  C8  UNL     1      23.206   1.416  52.633  1.00  0.00    -0.022 C 
HETATM    3  C9  UNL     1      21.787   1.014  52.436  1.00  0.00     0.065 C 
HETATM    4  C10 UNL     1      21.114   0.590  53.687  1.00  0.00    -0.024 C 
HETATM    5  C11 UNL     1      21.270  -0.324  54.667  1.00  0.00    -0.005 C 
HETATM    6  C12 UNL     1      22.333  -1.353  54.816  1.00  0.00     0.194 C 
HETATM    7  O1  UNL     1      23.607  -0.796  54.779  1.00  0.00    -0.387 OA
HETATM    8  C13 UNL     1      24.094  -0.657  53.499  1.00  0.00     0.178 C 
HETATM    9  C14 UNL     1      24.378   0.812  53.273  1.00  0.00     0.071 C 
ENDROOT
BRANCH   1  10
HETATM   10  N1  UNL     1      24.458   3.647  51.851  1.00  0.00    -0.370 N 
HETATM   11  H8  UNL     1      24.618   4.421  52.564  1.00  0.00     0.161 HD
BRANCH  10  12
HETATM   12  C5  UNL     1      25.131   3.497  50.569  1.00  0.00     0.150 C 
BRANCH  12  13
HETATM   13  C4  UNL     1      25.062   4.725  49.760  1.00  0.00     0.015 C 
HETATM   14  C3  UNL     1      26.039   5.364  49.129  1.00  0.00     0.043 C 
HETATM   15 CL1  UNL     1      25.680   6.815  48.232  1.00  0.00    -0.086 Cl
BRANCH  14  16
HETATM   16  C2  UNL     1      27.462   4.948  49.111  1.00  0.00     0.210 C 
HETATM   17  C1  UNL     1      28.260   5.898  48.242  1.00  0.00     0.051 C 
HETATM   18  F1  UNL     1      27.535   3.704  48.513  1.00  0.00    -0.244 F 
ENDBRANCH  14  16
ENDBRANCH  12  13
ENDBRANCH  10  12
ENDBRANCH   1  10
BRANCH   1  19
HETATM   19  N2  UNL     1      22.443   3.329  51.445  1.00  0.00    -0.170 NA
BRANCH  19  20
HETATM   20  C7  UNL     1      22.159   4.539  51.775  1.00  0.00     0.095 C 
BRANCH  20  21
HETATM   21  N3  UNL     1      22.094   5.806  51.984  1.00  0.00    -0.241 NA
HETATM   22  H9  UNL     1      21.217   6.309  51.687  1.00  0.00     0.199 HD
ENDBRANCH  20  21
ENDBRANCH  19  20
ENDBRANCH   1  19
BRANCH   9  23
HETATM   23  C15 UNL     1      25.651   0.883  52.480  1.00  0.00     0.283 C 
BRANCH  23  24
HETATM   24  N4  UNL     1      26.729   0.972  53.444  1.00  0.00     0.093 N 
HETATM   25  C16 UNL     1      27.731  -0.051  53.241  1.00  0.00     0.298 C 
HETATM   26  C17 UNL     1      28.660   0.010  54.461  1.00  0.00     0.198 C 
HETATM   27  O2  UNL     1      29.008   1.298  54.787  1.00  0.00    -0.388 OA
HETATM   28  C18 UNL     1      28.800   2.191  53.735  1.00  0.00     0.198 C 
HETATM   29  C19 UNL     1      27.292   2.297  53.473  1.00  0.00     0.298 C 
ENDBRANCH  23  24
ENDBRANCH   9  23
TORSDOF 9
ENDMDL
MODEL 2
REMARK VINA RESULT:      -7.6      3.568      5.850
REMARK  9 active torsions:
REMARK  status: ('A' for Active; 'I' for Inactive)
REMARK    1  A    between atoms: C2_2  and  C3_4 
REMARK    2  A    between atoms: C4_6  and  C5_7 
REMARK    3  A    between atoms: C5_7  and  N1_8 
REMARK    4  A    between atoms: N1_8  and  C6_9 
REMARK    5  A    between atoms: C6_9  and  N2_10 
REMARK    6  A    between atoms: N2_10  and  C7_11 
REMARK    7  A    between atoms: C7_11  and  N3_12 
REMARK    8  A    between atoms: C14_20  and  C15_21 
REMARK    9  A    between atoms: C15_21  and  N4_22 
ROOT
HETATM    1  C6  UNL     1      23.736   0.346  53.487  1.00  0.00     0.138 C 
HETATM    2  C8  UNL     1      22.580   0.876  53.049  1.00  0.00    -0.022 C 
HETATM    3  C9  UNL     1      21.378   0.100  53.456  1.00  0.00     0.065 C 
HETATM    4  C10 UNL     1      20.474  -0.223  52.327  1.00  0.00    -0.024 C 
HETATM    5  C11 UNL     1      19.774   0.418  51.368  1.00  0.00    -0.005 C 
HETATM    6  C12 UNL     1      19.677   1.879  51.109  1.00  0.00     0.194 C 
HETATM    7  O1  UNL     1      20.930   2.464  50.948  1.00  0.00    -0.387 OA
HETATM    8  C13 UNL     1      21.503   2.839  52.141  1.00  0.00     0.178 C 
HETATM    9  C14 UNL     1      22.816   2.097  52.273  1.00  0.00     0.071 C 
ENDROOT
BRANCH   1  10
HETATM   10  N1  UNL     1      25.162   0.398  53.567  1.00  0.00    -0.370 N 
HETATM   11  H8  UNL     1      25.640   0.673  54.476  1.00  0.00     0.161 HD
BRANCH  10  12
HETATM   12  C5  UNL     1      25.816   0.045  52.315  1.00  0.00     0.150 C 
BRANCH  12  13
HETATM   13  C4  UNL     1      26.675  -1.142  52.455  1.00  0.00     0.015 C 
HETATM   14  C3  UNL     1      27.865  -1.247  53.032  1.00  0.00     0.043 C 
HETATM   15 CL1  UNL     1      28.677  -2.790  53.058  1.00  0.00    -0.086 Cl
BRANCH  14  16
HETATM   16  C2  UNL     1      28.602  -0.136  53.681  1.00  0.00     0.210 C 
HETATM   17  C1  UNL     1      30.092  -0.400  53.606  1.00  0.00     0.051 C 
HETATM   18  F1  UNL     1      28.266  -0.128  55.022  1.00  0.00    -0.244 F 
ENDBRANCH  14  16
ENDBRANCH  12  13
ENDBRANCH  10  12
ENDBRANCH   1  10
BRANCH   1  19
HETATM   19  N2  UNL     1      23.658  -0.862  54.262  1.00  0.00    -0.170 NA
BRANCH  19  20
HETATM   20  C7  UNL     1      24.369  -1.009  55.323  1.00  0.00     0.095 C 
BRANCH  20  21
HETATM   21  N3  UNL     1      25.245  -1.273  56.227  1.00  0.00    -0.241 NA
HETATM   22  H9  UNL     1      24.995  -1.063  57.229  1.00  0.00     0.199 HD
ENDBRANCH  20  21
ENDBRANCH  19  20
ENDBRANCH   1  19
BRANCH   9  23
HETATM   23  C15 UNL     1      23.793   3.064  52.877  1.00  0.00     0.283 C 
BRANCH  23  24
HETATM   24  N4  UNL     1      24.500   3.677  51.771  1.00  0.00     0.093 N 
HETATM   25  C16 UNL     1      24.537   2.825  50.604  1.00  0.00     0.298 C 
HETATM   26  C17 UNL     1      25.511   3.485  49.620  1.00  0.00     0.198 C 
HETATM   27  O2  UNL     1      25.304   4.839  49.511  1.00  0.00    -0.388 OA
HETATM   28  C18 UNL     1      24.044   5.226  49.967  1.00  0.00     0.198 C 
HETATM   29  C19 UNL     1      23.976   4.987  51.481  1.00  0.00     0.298 C 
ENDBRANCH  23  24
ENDBRANCH   9  23
TORSDOF 9
ENDMDL
MODEL 3
REMARK VINA RESULT:      -7.3      2.499      5.066
REMARK  9 active torsions:
REMARK  status: ('A' for Active; 'I' for Inactive)
REMARK    1  A    between atoms: C2_2  and  C3_4 
REMARK    2  A    between atoms: C4_6  and  C5_7 
REMARK    3  A    between atoms: C5_7  and  N1_8 
REMARK    4  A    between atoms: N1_8  and  C6_9 
REMARK    5  A    between atoms: C6_9  and  N2_10 
REMARK    6  A    between atoms: N2_10  and  C7_11 
REMARK    7  A    between atoms: C7_11  and  N3_12 
REMARK    8  A    between atoms: C14_20  and  C15_21 
REMARK    9  A    between atoms: C15_21  and  N4_22 
ROOT
HETATM    1  C6  UNL     1      25.623   2.225  52.270  1.00  0.00     0.138 C 
HETATM    2  C8  UNL     1      24.447   1.709  52.670  1.00  0.00    -0.022 C 
HETATM    3  C9  UNL     1      24.589   0.550  53.592  1.00  0.00     0.065 C 
HETATM    4  C10 UNL     1      23.803  -0.635  53.176  1.00  0.00    -0.024 C 
HETATM    5  C11 UNL     1      22.522  -0.964  52.909  1.00  0.00    -0.005 C 
HETATM    6  C12 UNL     1      21.312  -0.103  52.960  1.00  0.00     0.194 C 
HETATM    7  O1  UNL     1      21.452   1.041  52.179  1.00  0.00    -0.387 OA
HETATM    8  C13 UNL     1      22.066   2.075  52.848  1.00  0.00     0.178 C 
HETATM    9  C14 UNL     1      23.320   2.438  52.081  1.00  0.00     0.071 C 
ENDROOT
BRANCH   1  10
HETATM   10  N1  UNL     1      26.348   3.191  51.506  1.00  0.00    -0.370 N 
HETATM   11  H8  UNL     1      26.945   3.924  51.993  1.00  0.00     0.161 HD
BRANCH  10  12
HETATM   12  C5  UNL     1      26.163   3.036  50.070  1.00  0.00     0.150 C 
BRANCH  12  13
HETATM   13  C4  UNL     1      27.017   3.955  49.301  1.00  0.00     0.015 C 
HETATM   14  C3  UNL     1      26.805   5.228  48.990  1.00  0.00     0.043 C 
HETATM   15 CL1  UNL     1      27.995   6.096  48.055  1.00  0.00    -0.086 Cl
BRANCH  14  16
HETATM   16  C2  UNL     1      25.609   6.015  49.373  1.00  0.00     0.210 C 
HETATM   17  C1  UNL     1      25.193   6.904  48.219  1.00  0.00     0.051 C 
HETATM   18  F1  UNL     1      25.964   6.852  50.414  1.00  0.00    -0.244 F 
ENDBRANCH  14  16
ENDBRANCH  12  13
ENDBRANCH  10  12
ENDBRANCH   1  10
BRANCH   1  19
HETATM   19  N2  UNL     1      26.820   1.605  52.768  1.00  0.00    -0.170 NA
BRANCH  19  20
HETATM   20  C7  UNL     1      27.863   2.309  53.035  1.00  0.00     0.095 C 
BRANCH  20  21
HETATM   21  N3  UNL     1      28.998   2.911  53.086  1.00  0.00    -0.241 NA
HETATM   22  H9  UNL     1      29.690   2.594  53.815  1.00  0.00     0.199 HD
ENDBRANCH  20  21
ENDBRANCH  19  20
ENDBRANCH   1  19
BRANCH   9  23
HETATM   23  C15 UNL     1      23.428   3.934  52.126  1.00  0.00     0.283 C 
BRANCH  23  24
HETATM   24  N4  UNL     1      22.405   4.445  51.236  1.00  0.00     0.093 N 
HETATM   25  C16 UNL     1      22.384   5.890  51.197  1.00  0.00     0.298 C 
HETATM   26  C17 UNL     1      21.116   6.281  50.428  1.00  0.00     0.198 C 
HETATM   27  O2  UNL     1      20.946   5.533  49.289  1.00  0.00    -0.388 OA
HETATM   28  C18 UNL     1      22.124   4.910  48.877  1.00  0.00     0.198 C 
HETATM   29  C19 UNL     1      22.515   3.860  49.926  1.00  0.00     0.298 C 
ENDBRANCH  23  24
ENDBRANCH   9  23
TORSDOF 9
ENDMDL
MODEL 4
REMARK VINA RESULT:      -7.3      1.945      2.285
REMARK  9 active torsions:
REMARK  status: ('A' for Active; 'I' for Inactive)
REMARK    1  A    between atoms: C2_2  and  C3_4 
REMARK    2  A    between atoms: C4_6  and  C5_7 
REMARK    3  A    between atoms: C5_7  and  N1_8 
REMARK    4  A    between atoms: N1_8  and  C6_9 
REMARK    5  A    between atoms: C6_9  and  N2_10 
REMARK    6  A    between atoms: N2_10  and  C7_11 
REMARK    7  A    between atoms: C7_11  and  N3_12 
REMARK    8  A    between atoms: C14_20  and  C15_21 
REMARK    9  A    between atoms: C15_21  and  N4_22 
ROOT
HETATM    1  C6  UNL     1      23.310   1.653  51.453  1.00  0.00     0.138 C 
HETATM    2  C8  UNL     1      23.217   0.635  52.326  1.00  0.00    -0.022 C 
HETATM    3  C9  UNL     1      21.929  -0.104  52.244  1.00  0.00     0.065 C 
HETATM    4  C10 UNL     1      21.254  -0.262  53.555  1.00  0.00    -0.024 C 
HETATM    5  C11 UNL     1      21.509  -0.780  54.774  1.00  0.00    -0.005 C 
HETATM    6  C12 UNL     1      22.740  -1.460  55.256  1.00  0.00     0.194 C 
HETATM    7  O1  UNL     1      23.876  -0.680  55.064  1.00  0.00    -0.387 OA
HETATM    8  C13 UNL     1      24.428  -0.835  53.813  1.00  0.00     0.178 C 
HETATM    9  C14 UNL     1      24.431   0.522  53.141  1.00  0.00     0.071 C 
ENDROOT
BRANCH   1  10
HETATM   10  N1  UNL     1      24.058   2.738  50.903  1.00  0.00    -0.370 N 
HETATM   11  H8  UNL     1      24.428   2.688  49.907  1.00  0.00     0.161 HD
BRANCH  10  12
HETATM   12  C5  UNL     1      24.229   3.843  51.836  1.00  0.00     0.150 C 
BRANCH  12  13
HETATM   13  C4  UNL     1      23.169   4.854  51.697  1.00  0.00     0.015 C 
HETATM   14  C3  UNL     1      23.128   5.916  50.902  1.00  0.00     0.043 C 
HETATM   15 CL1  UNL     1      21.735   6.964  50.936  1.00  0.00    -0.086 Cl
BRANCH  14  16
HETATM   16  C2  UNL     1      24.193   6.315  49.952  1.00  0.00     0.210 C 
HETATM   17  C1  UNL     1      24.053   5.525  48.667  1.00  0.00     0.051 C 
HETATM   18  F1  UNL     1      25.411   5.965  50.505  1.00  0.00    -0.244 F 
ENDBRANCH  14  16
ENDBRANCH  12  13
ENDBRANCH  10  12
ENDBRANCH   1  10
BRANCH   1  19
HETATM   19  N2  UNL     1      22.187   1.885  50.587  1.00  0.00    -0.170 NA
BRANCH  19  20
HETATM   20  C7  UNL     1      22.341   1.940  49.311  1.00  0.00     0.095 C 
BRANCH  20  21
HETATM   21  N3  UNL     1      22.532   2.244  48.076  1.00  0.00    -0.241 NA
HETATM   22  H9  UNL     1      23.235   1.677  47.534  1.00  0.00     0.199 HD
ENDBRANCH  20  21
ENDBRANCH  19  20
ENDBRANCH   1  19
BRANCH   9  23
HETATM   23  C15 UNL     1      25.724   0.621  52.386  1.00  0.00     0.283 C 
BRANCH  23  24
HETATM   24  N4  UNL     1      26.759   0.851  53.374  1.00  0.00     0.093 N 
HETATM   25  C16 UNL     1      27.873  -0.058  53.222  1.00  0.00     0.298 C 
HETATM   26  C17 UNL     1      28.755   0.133  54.463  1.00  0.00     0.198 C 
HETATM   27  O2  UNL     1      28.949   1.459  54.765  1.00  0.00    -0.388 OA
HETATM   28  C18 UNL     1      28.673   2.300  53.686  1.00  0.00     0.198 C 
HETATM   29  C19 UNL     1      27.170   2.230  53.384  1.00  0.00     0.298 C 
ENDBRANCH  23  24
ENDBRANCH   9  23
TORSDOF 9
ENDMDL
MODEL 5
REMARK VINA RESULT:      -7.2      6.109     10.220
REMARK  9 active torsions:
REMARK  status: ('A' for Active; 'I' for Inactive)
REMARK    1  A    between atoms: C2_2  and  C3_4 
REMARK    2  A    between atoms: C4_6  and  C5_7 
REMARK    3  A    between atoms: C5_7  and  N1_8 
REMARK    4  A    between atoms: N1_8  and  C6_9 
REMARK    5  A    between atoms: C6_9  and  N2_10 
REMARK    6  A    between atoms: N2_10  and  C7_11 
REMARK    7  A    between atoms: C7_11  and  N3_12 
REMARK    8  A    between atoms: C14_20  and  C15_21 
REMARK    9  A    between atoms: C15_21  and  N4_22 
ROOT
HETATM    1  C6  UNL     1      29.820   8.520  48.639  1.00  0.00     0.138 C 
HETATM    2  C8  UNL     1      30.995   9.008  48.205  1.00  0.00    -0.022 C 
HETATM    3  C9  UNL     1      30.973  10.474  47.951  1.00  0.00     0.065 C 
HETATM    4  C10 UNL     1      31.487  10.850  46.613  1.00  0.00    -0.024 C 
HETATM    5  C11 UNL     1      32.609  10.707  45.877  1.00  0.00    -0.005 C 
HETATM    6  C12 UNL     1      33.878  10.023  46.240  1.00  0.00     0.194 C 
HETATM    7  O1  UNL     1      33.664   8.708  46.641  1.00  0.00    -0.387 OA
HETATM    8  C13 UNL     1      33.365   8.597  47.980  1.00  0.00     0.178 C 
HETATM    9  C14 UNL     1      32.002   7.949  48.094  1.00  0.00     0.071 C 
ENDROOT
BRANCH   1  10
HETATM   10  N1  UNL     1      29.032   7.409  49.069  1.00  0.00    -0.370 N 
HETATM   11  H8  UNL     1      28.868   7.233  50.105  1.00  0.00     0.161 HD
BRANCH  10  12
HETATM   12  C5  UNL     1      28.523   6.610  47.963  1.00  0.00     0.150 C 
BRANCH  12  13
HETATM   13  C4  UNL     1      28.078   5.277  48.401  1.00  0.00     0.015 C 
HETATM   14  C3  UNL     1      26.941   4.929  48.989  1.00  0.00     0.043 C 
HETATM   15 CL1  UNL     1      26.663   3.260  49.408  1.00  0.00    -0.086 Cl
BRANCH  14  16
HETATM   16  C2  UNL     1      25.839   5.858  49.339  1.00  0.00     0.210 C 
HETATM   17  C1  UNL     1      24.772   5.114  50.114  1.00  0.00     0.051 C 
HETATM   18  F1  UNL     1      25.253   6.287  48.163  1.00  0.00    -0.244 F 
ENDBRANCH  14  16
ENDBRANCH  12  13
ENDBRANCH  10  12
ENDBRANCH   1  10
BRANCH   1  19
HETATM   19  N2  UNL     1      28.734   9.449  48.793  1.00  0.00    -0.170 NA
BRANCH  19  20
HETATM   20  C7  UNL     1      28.053   9.490  49.883  1.00  0.00     0.095 C 
BRANCH  20  21
HETATM   21  N3  UNL     1      27.591   9.458  51.082  1.00  0.00    -0.241 NA
HETATM   22  H9  UNL     1      26.625   9.064  51.226  1.00  0.00     0.199 HD
ENDBRANCH  20  21
ENDBRANCH  19  20
ENDBRANCH   1  19
BRANCH   9  23
HETATM   23  C15 UNL     1      32.075   7.007  49.261  1.00  0.00     0.283 C 
BRANCH  23  24
HETATM   24  N4  UNL     1      32.398   5.704  48.715  1.00  0.00     0.093 N 
HETATM   25  C16 UNL     1      31.817   5.497  47.408  1.00  0.00     0.298 C 
HETATM   26  C17 UNL     1      32.028   4.015  47.073  1.00  0.00     0.198 C 
HETATM   27  O2  UNL     1      33.302   3.592  47.364  1.00  0.00    -0.388 OA
HETATM   28  C18 UNL     1      34.202   4.650  47.492  1.00  0.00     0.198 C 
HETATM   29  C19 UNL     1      33.819   5.472  48.730  1.00  0.00     0.298 C 
ENDBRANCH  23  24
ENDBRANCH   9  23
TORSDOF 9
ENDMDL
MODEL 6
REMARK VINA RESULT:      -7.2      3.820      7.471
REMARK  9 active torsions:
REMARK  status: ('A' for Active; 'I' for Inactive)
REMARK    1  A    between atoms: C2_2  and  C3_4 
REMARK    2  A    between atoms: C4_6  and  C5_7 
REMARK    3  A    between atoms: C5_7  and  N1_8 
REMARK    4  A    between atoms: N1_8  and  C6_9 
REMARK    5  A    between atoms: C6_9  and  N2_10 
REMARK    6  A    between atoms: N2_10  and  C7_11 
REMARK    7  A    between atoms: C7_11  and  N3_12 
REMARK    8  A    between atoms: C14_20  and  C15_21 
REMARK    9  A    between atoms: C15_21  and  N4_22 
ROOT
HETATM    1  C6  UNL     1      25.763   2.394  51.647  1.00  0.00     0.138 C 
HETATM    2  C8  UNL     1      25.341   3.088  50.575  1.00  0.00    -0.022 C 
HETATM    3  C9  UNL     1      26.447   3.573  49.707  1.00  0.00     0.065 C 
HETATM    4  C10 UNL     1      26.365   5.021  49.400  1.00  0.00    -0.024 C 
HETATM    5  C11 UNL     1      25.502   5.896  48.842  1.00  0.00    -0.005 C 
HETATM    6  C12 UNL     1      24.154   5.635  48.273  1.00  0.00     0.194 C 
HETATM    7  O1  UNL     1      23.319   4.993  49.182  1.00  0.00    -0.387 OA
HETATM    8  C13 UNL     1      23.456   3.624  49.161  1.00  0.00     0.178 C 
HETATM    9  C14 UNL     1      23.878   3.184  50.547  1.00  0.00     0.071 C 
ENDROOT
BRANCH   1  10
HETATM   10  N1  UNL     1      25.462   1.665  52.838  1.00  0.00    -0.370 N 
HETATM   11  H8  UNL     1      25.313   2.175  53.759  1.00  0.00     0.161 HD
BRANCH  10  12
HETATM   12  C5  UNL     1      25.395   0.226  52.623  1.00  0.00     0.150 C 
BRANCH  12  13
HETATM   13  C4  UNL     1      24.969  -0.495  53.833  1.00  0.00     0.015 C 
HETATM   14  C3  UNL     1      23.741  -0.696  54.295  1.00  0.00     0.043 C 
HETATM   15 CL1  UNL     1      23.512  -1.596  55.771  1.00  0.00    -0.086 Cl
BRANCH  14  16
HETATM   16  C2  UNL     1      22.495  -0.212  53.654  1.00  0.00     0.210 C 
HETATM   17  C1  UNL     1      21.336  -0.356  54.618  1.00  0.00     0.051 C 
HETATM   18  F1  UNL     1      22.223  -1.034  52.576  1.00  0.00    -0.244 F 
ENDBRANCH  14  16
ENDBRANCH  12  13
ENDBRANCH  10  12
ENDBRANCH   1  10
BRANCH   1  19
HETATM   19  N2  UNL     1      27.181   2.222  51.807  1.00  0.00    -0.170 NA
BRANCH  19  20
HETATM   20  C7  UNL     1      27.759   2.523  52.915  1.00  0.00     0.095 C 
BRANCH  20  21
HETATM   21  N3  UNL     1      28.435   2.588  54.007  1.00  0.00    -0.241 NA
HETATM   22  H9  UNL     1      28.326   1.802  54.699  1.00  0.00     0.199 HD
ENDBRANCH  20  21
ENDBRANCH  19  20
ENDBRANCH   1  19
BRANCH   9  23
HETATM   23  C15 UNL     1      23.145   1.906  50.830  1.00  0.00     0.283 C 
BRANCH  23  24
HETATM   24  N4  UNL     1      21.732   2.220  50.760  1.00  0.00     0.093 N 
HETATM   25  C16 UNL     1      20.936   1.083  50.356  1.00  0.00     0.298 C 
HETATM   26  C17 UNL     1      19.525   1.619  50.087  1.00  0.00     0.198 C 
HETATM   27  O2  UNL     1      19.097   2.477  51.071  1.00  0.00    -0.388 OA
HETATM   28  C18 UNL     1      19.829   2.344  52.251  1.00  0.00     0.198 C 
HETATM   29  C19 UNL     1      21.268   2.807  51.990  1.00  0.00     0.298 C 
ENDBRANCH  23  24
ENDBRANCH   9  23
TORSDOF 9
ENDMDL
MODEL 7
REMARK VINA RESULT:      -7.2      3.164      5.584
REMARK  9 active torsions:
REMARK  status: ('A' for Active; 'I' for Inactive)
REMARK    1  A    between atoms: C2_2  and  C3_4 
REMARK    2  A    between atoms: C4_6  and  C5_7 
REMARK    3  A    between atoms: C5_7  and  N1_8 
REMARK    4  A    between atoms: N1_8  and  C6_9 
REMARK    5  A    between atoms: C6_9  and  N2_10 
REMARK    6  A    between atoms: N2_10  and  C7_11 
REMARK    7  A    between atoms: C7_11  and  N3_12 
REMARK    8  A    between atoms: C14_20  and  C15_21 
REMARK    9  A    between atoms: C15_21  and  N4_22 
ROOT
HETATM    1  C6  UNL     1      23.813   0.466  52.979  1.00  0.00     0.138 C 
HETATM    2  C8  UNL     1      25.147   0.619  52.902  1.00  0.00    -0.022 C 
HETATM    3  C9  UNL     1      25.910  -0.586  53.327  1.00  0.00     0.065 C 
HETATM    4  C10 UNL     1      26.961  -0.296  54.331  1.00  0.00    -0.024 C 
HETATM    5  C11 UNL     1      28.055   0.483  54.463  1.00  0.00    -0.005 C 
HETATM    6  C12 UNL     1      28.638   1.439  53.486  1.00  0.00     0.194 C 
HETATM    7  O1  UNL     1      27.705   2.378  53.055  1.00  0.00    -0.387 OA
HETATM    8  C13 UNL     1      26.954   1.937  51.989  1.00  0.00     0.178 C 
HETATM    9  C14 UNL     1      25.501   1.955  52.413  1.00  0.00     0.071 C 
ENDROOT
BRANCH   1  10
HETATM   10  N1  UNL     1      22.501   1.002  52.807  1.00  0.00    -0.370 N 
HETATM   11  H8  UNL     1      22.047   1.575  53.579  1.00  0.00     0.161 HD
BRANCH  10  12
HETATM   12  C5  UNL     1      21.917   0.674  51.514  1.00  0.00     0.150 C 
BRANCH  12  13
HETATM   13  C4  UNL     1      21.154   1.799  50.949  1.00  0.00     0.015 C 
HETATM   14  C3  UNL     1      21.247   2.349  49.745  1.00  0.00     0.043 C 
HETATM   15 CL1  UNL     1      20.211   3.688  49.328  1.00  0.00    -0.086 Cl
BRANCH  14  16
HETATM   16  C2  UNL     1      22.182   1.920  48.678  1.00  0.00     0.210 C 
HETATM   17  C1  UNL     1      22.157   2.925  47.544  1.00  0.00     0.051 C 
HETATM   18  F1  UNL     1      21.721   0.724  48.162  1.00  0.00    -0.244 F 
ENDBRANCH  14  16
ENDBRANCH  12  13
ENDBRANCH  10  12
ENDBRANCH   1  10
BRANCH   1  19
HETATM   19  N2  UNL     1      23.319  -0.799  53.449  1.00  0.00    -0.170 NA
BRANCH  19  20
HETATM   20  C7  UNL     1      22.432  -0.854  54.378  1.00  0.00     0.095 C 
BRANCH  20  21
HETATM   21  N3  UNL     1      21.386  -0.823  55.125  1.00  0.00    -0.241 NA
HETATM   22  H9  UNL     1      20.454  -0.661  54.660  1.00  0.00     0.199 HD
ENDBRANCH  20  21
ENDBRANCH  19  20
ENDBRANCH   1  19
BRANCH   9  23
HETATM   23  C15 UNL     1      24.717   2.432  51.225  1.00  0.00     0.283 C 
BRANCH  23  24
HETATM   24  N4  UNL     1      24.713   3.880  51.292  1.00  0.00     0.093 N 
HETATM   25  C16 UNL     1      24.802   4.489  49.984  1.00  0.00     0.298 C 
HETATM   26  C17 UNL     1      25.036   5.986  50.223  1.00  0.00     0.198 C 
HETATM   27  O2  UNL     1      24.209   6.495  51.194  1.00  0.00    -0.388 OA
HETATM   28  C18 UNL     1      23.102   5.681  51.434  1.00  0.00     0.198 C 
HETATM   29  C19 UNL     1      23.588   4.362  52.050  1.00  0.00     0.298 C 
ENDBRANCH  23  24
ENDBRANCH   9  23
TORSDOF 9
ENDMDL
MODEL 8
REMARK VINA RESULT:      -6.7      5.159      8.609
REMARK  9 active torsions:
REMARK  status: ('A' for Active; 'I' for Inactive)
REMARK    1  A    between atoms: C2_2  and  C3_4 
REMARK    2  A    between atoms: C4_6  and  C5_7 
REMARK    3  A    between atoms: C5_7  and  N1_8 
REMARK    4  A    between atoms: N1_8  and  C6_9 
REMARK    5  A    between atoms: C6_9  and  N2_10 
REMARK    6  A    between atoms: N2_10  and  C7_11 
REMARK    7  A    between atoms: C7_11  and  N3_12 
REMARK    8  A    between atoms: C14_20  and  C15_21 
REMARK    9  A    between atoms: C15_21  and  N4_22 
ROOT
HETATM    1  C6  UNL     1      26.439   6.902  48.648  1.00  0.00     0.138 C 
HETATM    2  C8  UNL     1      26.778   7.675  47.601  1.00  0.00    -0.022 C 
HETATM    3  C9  UNL     1      25.657   8.512  47.093  1.00  0.00     0.065 C 
HETATM    4  C10 UNL     1      25.448   8.393  45.630  1.00  0.00    -0.024 C 
HETATM    5  C11 UNL     1      26.140   8.569  44.485  1.00  0.00    -0.005 C 
HETATM    6  C12 UNL     1      27.550   9.008  44.311  1.00  0.00     0.194 C 
HETATM    7  O1  UNL     1      28.437   8.211  45.028  1.00  0.00    -0.387 OA
HETATM    8  C13 UNL     1      28.598   8.627  46.330  1.00  0.00     0.178 C 
HETATM    9  C14 UNL     1      28.184   7.485  47.232  1.00  0.00     0.071 C 
ENDROOT
BRANCH   1  10
HETATM   10  N1  UNL     1      26.804   5.931  49.630  1.00  0.00    -0.370 N 
HETATM   11  H8  UNL     1      26.982   6.224  50.637  1.00  0.00     0.161 HD
BRANCH  10  12
HETATM   12  C5  UNL     1      26.892   4.582  49.091  1.00  0.00     0.150 C 
BRANCH  12  13
HETATM   13  C4  UNL     1      26.318   3.582  50.006  1.00  0.00     0.015 C 
HETATM   14  C3  UNL     1      25.062   3.166  50.105  1.00  0.00     0.043 C 
HETATM   15 CL1  UNL     1      24.646   1.956  51.290  1.00  0.00    -0.086 Cl
BRANCH  14  16
HETATM   16  C2  UNL     1      23.932   3.650  49.276  1.00  0.00     0.210 C 
HETATM   17  C1  UNL     1      22.768   4.027  50.170  1.00  0.00     0.051 C 
HETATM   18  F1  UNL     1      23.504   2.601  48.484  1.00  0.00    -0.244 F 
ENDBRANCH  14  16
ENDBRANCH  12  13
ENDBRANCH  10  12
ENDBRANCH   1  10
BRANCH   1  19
HETATM   19  N2  UNL     1      25.084   6.983  49.119  1.00  0.00    -0.170 NA
BRANCH  19  20
HETATM   20  C7  UNL     1      24.830   7.115  50.373  1.00  0.00     0.095 C 
BRANCH  20  21
HETATM   21  N3  UNL     1      24.644   7.000  51.640  1.00  0.00    -0.241 NA
HETATM   22  H9  UNL     1      23.702   6.663  51.969  1.00  0.00     0.199 HD
ENDBRANCH  20  21
ENDBRANCH  19  20
ENDBRANCH   1  19
BRANCH   9  23
HETATM   23  C15 UNL     1      29.153   7.474  48.378  1.00  0.00     0.283 C 
BRANCH  23  24
HETATM   24  N4  UNL     1      30.406   6.975  47.849  1.00  0.00     0.093 N 
HETATM   25  C16 UNL     1      31.552   7.551  48.518  1.00  0.00     0.298 C 
HETATM   26  C17 UNL     1      32.781   7.131  47.703  1.00  0.00     0.198 C 
HETATM   27  O2  UNL     1      32.749   5.802  47.358  1.00  0.00    -0.388 OA
HETATM   28  C18 UNL     1      31.865   5.066  48.148  1.00  0.00     0.198 C 
HETATM   29  C19 UNL     1      30.435   5.535  47.850  1.00  0.00     0.298 C 
ENDBRANCH  23  24
ENDBRANCH   9  23
TORSDOF 9
ENDMDL
MODEL 9
REMARK VINA RESULT:      -6.4      6.885     11.223
REMARK  9 active torsions:
REMARK  status: ('A' for Active; 'I' for Inactive)
REMARK    1  A    between atoms: C2_2  and  C3_4 
REMARK    2  A    between atoms: C4_6  and  C5_7 
REMARK    3  A    between atoms: C5_7  and  N1_8 
REMARK    4  A    between atoms: N1_8  and  C6_9 
REMARK    5  A    between atoms: C6_9  and  N2_10 
REMARK    6  A    between atoms: N2_10  and  C7_11 
REMARK    7  A    between atoms: C7_11  and  N3_12 
REMARK    8  A    between atoms: C14_20  and  C15_21 
REMARK    9  A    between atoms: C15_21  and  N4_22 
ROOT
HETATM    1  C6  UNL     1      30.653   7.527  48.144  1.00  0.00     0.138 C 
HETATM    2  C8  UNL     1      31.223   8.516  47.432  1.00  0.00    -0.022 C 
HETATM    3  C9  UNL     1      32.605   8.203  46.979  1.00  0.00     0.065 C 
HETATM    4  C10 UNL     1      33.589   9.260  47.312  1.00  0.00    -0.024 C 
HETATM    5  C11 UNL     1      33.781  10.577  47.091  1.00  0.00    -0.005 C 
HETATM    6  C12 UNL     1      32.931  11.524  46.324  1.00  0.00     0.194 C 
HETATM    7  O1  UNL     1      31.615  11.528  46.776  1.00  0.00    -0.387 OA
HETATM    8  C13 UNL     1      30.843  10.552  46.188  1.00  0.00     0.178 C 
HETATM    9  C14 UNL     1      30.315   9.659  47.291  1.00  0.00     0.071 C 
ENDROOT
BRANCH   1  10
HETATM   10  N1  UNL     1      29.532   7.021  48.870  1.00  0.00    -0.370 N 
HETATM   11  H8  UNL     1      29.480   7.131  49.926  1.00  0.00     0.161 HD
BRANCH  10  12
HETATM   12  C5  UNL     1      28.544   6.378  48.015  1.00  0.00     0.150 C 
BRANCH  12  13
HETATM   13  C4  UNL     1      28.055   5.113  48.588  1.00  0.00     0.015 C 
HETATM   14  C3  UNL     1      26.824   4.786  48.958  1.00  0.00     0.043 C 
HETATM   15 CL1  UNL     1      26.515   3.200  49.616  1.00  0.00    -0.086 Cl
BRANCH  14  16
HETATM   16  C2  UNL     1      25.638   5.671  48.866  1.00  0.00     0.210 C 
HETATM   17  C1  UNL     1      25.477   6.444  50.158  1.00  0.00     0.051 C 
HETATM   18  F1  UNL     1      24.518   4.871  48.736  1.00  0.00    -0.244 F 
ENDBRANCH  14  16
ENDBRANCH  12  13
ENDBRANCH  10  12
ENDBRANCH   1  10
BRANCH   1  19
HETATM   19  N2  UNL     1      31.432   6.340  48.366  1.00  0.00    -0.170 NA
BRANCH  19  20
HETATM   20  C7  UNL     1      31.621   5.890  49.556  1.00  0.00     0.095 C 
BRANCH  20  21
HETATM   21  N3  UNL     1      31.557   5.399  50.743  1.00  0.00    -0.241 NA
HETATM   22  H9  UNL     1      30.904   4.588  50.903  1.00  0.00     0.199 HD
ENDBRANCH  20  21
ENDBRANCH  19  20
ENDBRANCH   1  19
BRANCH   9  23
HETATM   23  C15 UNL     1      28.902   9.315  46.920  1.00  0.00     0.283 C 
BRANCH  23  24
HETATM   24  N4  UNL     1      28.054  10.258  47.622  1.00  0.00     0.093 N 
HETATM   25  C16 UNL     1      27.535  11.285  46.746  1.00  0.00     0.298 C 
HETATM   26  C17 UNL     1      26.875  12.330  47.654  1.00  0.00     0.198 C 
HETATM   27  O2  UNL     1      26.092  11.757  48.626  1.00  0.00    -0.388 OA
HETATM   28  C18 UNL     1      25.745  10.440  48.325  1.00  0.00     0.198 C 
HETATM   29  C19 UNL     1      27.015   9.579  48.352  1.00  0.00     0.298 C 
ENDBRANCH  23  24
ENDBRANCH   9  23
TORSDOF 9
ENDMDL
