MODEL 1
REMARK VINA RESULT:      -7.8      0.000      0.000
REMARK  4 active torsions:
REMARK  status: ('A' for Active; 'I' for Inactive)
REMARK    1  A    between atoms: O1_2  and  C2_3 
REMARK    2  A    between atoms: C5_6  and  N1_7 
REMARK    3  A    between atoms: N1_7  and  C6_8 
REMARK    4  A    between atoms: C16_20  and  O2_21 
ROOT
HETATM    1  C2  UNL     1      26.601   1.494  53.926  1.00  0.00     0.101 A 
HETATM    2  C3  UNL     1      25.524   2.085  53.437  1.00  0.00     0.051 A 
HETATM    3  C4  UNL     1      24.461   1.184  53.076  1.00  0.00     0.002 A 
HETATM    4  C5  UNL     1      23.267   1.637  52.642  1.00  0.00     0.136 C 
HETATM    5  N2  UNL     1      22.251   0.651  52.329  1.00  0.00    -0.229 NA
HETATM    6  C12 UNL     1      22.168  -0.328  53.174  1.00  0.00     0.085 C 
HETATM    7  C13 UNL     1      23.246  -0.686  53.860  1.00  0.00     0.021 C 
HETATM    8  C14 UNL     1      24.482  -0.324  53.129  1.00  0.00     0.073 A 
HETATM    9  C15 UNL     1      25.735  -0.784  53.707  1.00  0.00     0.026 A 
HETATM   10  C16 UNL     1      26.723   0.049  54.076  1.00  0.00     0.098 A 
ENDROOT
BRANCH   4  11
HETATM   11  N1  UNL     1      23.099   3.046  52.551  1.00  0.00    -0.341 N 
HETATM   12  H5  UNL     1      22.741   3.592  53.378  1.00  0.00     0.167 HD
BRANCH  11  13
HETATM   13  C6  UNL     1      23.409   3.759  51.341  1.00  0.00     0.035 A 
HETATM   14  C7  UNL     1      23.543   3.147  50.091  1.00  0.00     0.029 A 
HETATM   15  C8  UNL     1      23.843   3.963  49.015  1.00  0.00     0.004 A 
HETATM   16  C9  UNL     1      24.015   5.331  49.116  1.00  0.00     0.019 A 
HETATM   17  C10 UNL     1      23.887   5.950  50.334  1.00  0.00     0.013 A 
HETATM   18 BR1  UNL     1      24.115   7.828  50.524  1.00  0.00    -0.051 Br
HETATM   19  C11 UNL     1      23.584   5.135  51.429  1.00  0.00     0.048 A 
ENDBRANCH  11  13
ENDBRANCH   4  11
BRANCH   1  20
HETATM   20  O1  UNL     1      27.622   2.363  54.284  1.00  0.00    -0.353 OA
HETATM   21  C1  UNL     1      28.661   2.580  53.347  1.00  0.00     0.210 C 
ENDBRANCH   1  20
BRANCH  10  22
HETATM   22  O2  UNL     1      27.909  -0.481  54.621  1.00  0.00    -0.353 OA
HETATM   23  C17 UNL     1      28.915  -0.959  53.741  1.00  0.00     0.210 C 
ENDBRANCH  10  22
TORSDOF 4
ENDMDL
MODEL 2
REMARK VINA RESULT:      -7.4      2.866      4.958
REMARK  4 active torsions:
REMARK  status: ('A' for Active; 'I' for Inactive)
REMARK    1  A    between atoms: O1_2  and  C2_3 
REMARK    2  A    between atoms: C5_6  and  N1_7 
REMARK    3  A    between atoms: N1_7  and  C6_8 
REMARK    4  A    between atoms: C16_20  and  O2_21 
ROOT
HETATM    1  C2  UNL     1      25.781  -0.051  53.550  1.00  0.00     0.101 A 
HETATM    2  C3  UNL     1      24.592  -0.023  52.972  1.00  0.00     0.051 A 
HETATM    3  C4  UNL     1      24.039   1.294  52.806  1.00  0.00     0.002 A 
HETATM    4  C5  UNL     1      22.873   1.497  52.158  1.00  0.00     0.136 C 
HETATM    5  N2  UNL     1      22.413   2.864  52.020  1.00  0.00    -0.229 NA
HETATM    6  C12 UNL     1      23.338   3.719  51.718  1.00  0.00     0.085 C 
HETATM    7  C13 UNL     1      24.590   3.478  52.088  1.00  0.00     0.021 C 
HETATM    8  C14 UNL     1      24.628   2.600  53.280  1.00  0.00     0.073 A 
HETATM    9  C15 UNL     1      25.937   2.369  53.873  1.00  0.00     0.026 A 
HETATM   10  C16 UNL     1      26.476   1.146  54.005  1.00  0.00     0.098 A 
ENDROOT
BRANCH   4  11
HETATM   11  N1  UNL     1      22.207   0.350  51.645  1.00  0.00    -0.341 N 
HETATM   12  H5  UNL     1      22.693  -0.283  50.956  1.00  0.00     0.167 HD
BRANCH  11  13
HETATM   13  C6  UNL     1      20.864   0.024  52.046  1.00  0.00     0.035 A 
HETATM   14  C7  UNL     1      20.535  -0.509  53.295  1.00  0.00     0.029 A 
HETATM   15  C8  UNL     1      19.198  -0.772  53.539  1.00  0.00     0.004 A 
HETATM   16  C9  UNL     1      18.192  -0.536  52.622  1.00  0.00     0.019 A 
HETATM   17  C10 UNL     1      18.496  -0.013  51.390  1.00  0.00     0.013 A 
HETATM   18 BR1  UNL     1      17.147   0.328  50.094  1.00  0.00    -0.051 Br
HETATM   19  C11 UNL     1      19.843   0.257  51.132  1.00  0.00     0.048 A 
ENDBRANCH  11  13
ENDBRANCH   4  11
BRANCH   1  20
HETATM   20  O1  UNL     1      26.319  -1.321  53.701  1.00  0.00    -0.353 OA
HETATM   21  C1  UNL     1      26.995  -1.885  52.592  1.00  0.00     0.210 C 
ENDBRANCH   1  20
BRANCH  10  22
HETATM   22  O2  UNL     1      27.747   1.010  54.599  1.00  0.00    -0.353 OA
HETATM   23  C17 UNL     1      28.857   1.662  54.002  1.00  0.00     0.210 C 
ENDBRANCH  10  22
TORSDOF 4
ENDMDL
MODEL 3
REMARK VINA RESULT:      -7.4      1.843      2.232
REMARK  4 active torsions:
REMARK  status: ('A' for Active; 'I' for Inactive)
REMARK    1  A    between atoms: O1_2  and  C2_3 
REMARK    2  A    between atoms: C5_6  and  N1_7 
REMARK    3  A    between atoms: N1_7  and  C6_8 
REMARK    4  A    between atoms: C16_20  and  O2_21 
ROOT
HETATM    1  C2  UNL     1      25.560   1.229  53.534  1.00  0.00     0.101 A 
HETATM    2  C3  UNL     1      24.353   1.456  53.044  1.00  0.00     0.051 A 
HETATM    3  C4  UNL     1      23.390   0.426  53.326  1.00  0.00     0.002 A 
HETATM    4  C5  UNL     1      22.096   0.549  52.968  1.00  0.00     0.136 C 
HETATM    5  N2  UNL     1      21.198  -0.532  53.321  1.00  0.00    -0.229 NA
HETATM    6  C12 UNL     1      21.371  -1.013  54.512  1.00  0.00     0.085 C 
HETATM    7  C13 UNL     1      22.573  -0.944  55.071  1.00  0.00     0.021 C 
HETATM    8  C14 UNL     1      23.632  -0.883  54.038  1.00  0.00     0.073 A 
HETATM    9  C15 UNL     1      25.006  -0.943  54.515  1.00  0.00     0.026 A 
HETATM   10  C16 UNL     1      25.906   0.028  54.284  1.00  0.00     0.098 A 
ENDROOT
BRANCH   4  11
HETATM   11  N1  UNL     1      21.718   1.743  52.294  1.00  0.00    -0.341 N 
HETATM   12  H5  UNL     1      21.374   2.575  52.840  1.00  0.00     0.167 HD
BRANCH  11  13
HETATM   13  C6  UNL     1      21.794   1.848  50.861  1.00  0.00     0.035 A 
HETATM   14  C7  UNL     1      21.412   0.827  49.986  1.00  0.00     0.029 A 
HETATM   15  C8  UNL     1      21.541   1.073  48.631  1.00  0.00     0.004 A 
HETATM   16  C9  UNL     1      22.020   2.260  48.110  1.00  0.00     0.019 A 
HETATM   17  C10 UNL     1      22.400   3.274  48.953  1.00  0.00     0.013 A 
HETATM   18 BR1  UNL     1      23.067   4.925  48.286  1.00  0.00    -0.051 Br
HETATM   19  C11 UNL     1      22.275   3.037  50.325  1.00  0.00     0.048 A 
ENDBRANCH  11  13
ENDBRANCH   4  11
BRANCH   1  20
HETATM   20  O1  UNL     1      26.487   2.228  53.271  1.00  0.00    -0.353 OA
HETATM   21  C1  UNL     1      27.010   2.311  51.958  1.00  0.00     0.210 C 
ENDBRANCH   1  20
BRANCH  10  22
HETATM   22  O2  UNL     1      27.218  -0.114  54.775  1.00  0.00    -0.353 OA
HETATM   23  C17 UNL     1      28.221  -0.633  53.915  1.00  0.00     0.210 C 
ENDBRANCH  10  22
TORSDOF 4
ENDMDL
MODEL 4
REMARK VINA RESULT:      -7.4      2.863      4.207
REMARK  4 active torsions:
REMARK  status: ('A' for Active; 'I' for Inactive)
REMARK    1  A    between atoms: O1_2  and  C2_3 
REMARK    2  A    between atoms: C5_6  and  N1_7 
REMARK    3  A    between atoms: N1_7  and  C6_8 
REMARK    4  A    between atoms: C16_20  and  O2_21 
ROOT
HETATM    1  C2  UNL     1      25.964  -0.202  54.090  1.00  0.00     0.101 A 
HETATM    2  C3  UNL     1      24.963   0.575  53.713  1.00  0.00     0.051 A 
HETATM    3  C4  UNL     1      25.348   1.677  52.872  1.00  0.00     0.002 A 
HETATM    4  C5  UNL     1      24.433   2.511  52.336  1.00  0.00     0.136 C 
HETATM    5  N2  UNL     1      24.918   3.575  51.479  1.00  0.00    -0.229 NA
HETATM    6  C12 UNL     1      25.856   3.224  50.658  1.00  0.00     0.085 C 
HETATM    7  C13 UNL     1      26.661   2.220  50.982  1.00  0.00     0.021 C 
HETATM    8  C14 UNL     1      26.745   2.065  52.452  1.00  0.00     0.073 A 
HETATM    9  C15 UNL     1      27.702   1.087  52.947  1.00  0.00     0.026 A 
HETATM   10  C16 UNL     1      27.350   0.037  53.708  1.00  0.00     0.098 A 
ENDROOT
BRANCH   4  11
HETATM   11  N1  UNL     1      23.067   2.259  52.638  1.00  0.00    -0.341 N 
HETATM   12  H5  UNL     1      22.686   2.474  53.597  1.00  0.00     0.167 HD
BRANCH  11  13
HETATM   13  C6  UNL     1      22.173   1.708  51.654  1.00  0.00     0.035 A 
HETATM   14  C7  UNL     1      22.446   1.686  50.283  1.00  0.00     0.029 A 
HETATM   15  C8  UNL     1      21.490   1.122  49.456  1.00  0.00     0.004 A 
HETATM   16  C9  UNL     1      20.300   0.589  49.914  1.00  0.00     0.019 A 
HETATM   17  C10 UNL     1      20.015   0.602  51.257  1.00  0.00     0.013 A 
HETATM   18 BR1  UNL     1      18.391  -0.118  51.935  1.00  0.00    -0.051 Br
HETATM   19  C11 UNL     1      20.973   1.169  52.102  1.00  0.00     0.048 A 
ENDBRANCH  11  13
ENDBRANCH   4  11
BRANCH   1  20
HETATM   20  O1  UNL     1      25.593  -1.272  54.893  1.00  0.00    -0.353 OA
HETATM   21  C1  UNL     1      24.294  -1.253  55.455  1.00  0.00     0.210 C 
ENDBRANCH   1  20
BRANCH  10  22
HETATM   22  O2  UNL     1      28.342  -0.859  54.152  1.00  0.00    -0.353 OA
HETATM   23  C17 UNL     1      29.682  -0.670  53.722  1.00  0.00     0.210 C 
ENDBRANCH  10  22
TORSDOF 4
ENDMDL
MODEL 5
REMARK VINA RESULT:      -7.4      2.958      4.330
REMARK  4 active torsions:
REMARK  status: ('A' for Active; 'I' for Inactive)
REMARK    1  A    between atoms: O1_2  and  C2_3 
REMARK    2  A    between atoms: C5_6  and  N1_7 
REMARK    3  A    between atoms: N1_7  and  C6_8 
REMARK    4  A    between atoms: C16_20  and  O2_21 
ROOT
HETATM    1  C2  UNL     1      22.371   0.527  52.138  1.00  0.00     0.101 A 
HETATM    2  C3  UNL     1      23.077   1.535  51.653  1.00  0.00     0.051 A 
HETATM    3  C4  UNL     1      24.452   1.557  52.074  1.00  0.00     0.002 A 
HETATM    4  C5  UNL     1      25.323   2.472  51.599  1.00  0.00     0.136 C 
HETATM    5  N2  UNL     1      26.694   2.395  52.064  1.00  0.00    -0.229 NA
HETATM    6  C12 UNL     1      27.176   1.195  52.133  1.00  0.00     0.085 C 
HETATM    7  C13 UNL     1      26.352   0.175  52.339  1.00  0.00     0.021 C 
HETATM    8  C14 UNL     1      25.128   0.620  53.044  1.00  0.00     0.073 A 
HETATM    9  C15 UNL     1      24.201  -0.424  53.454  1.00  0.00     0.026 A 
HETATM   10  C16 UNL     1      22.923  -0.473  53.043  1.00  0.00     0.098 A 
ENDROOT
BRANCH   4  11
HETATM   11  N1  UNL     1      24.826   3.419  50.662  1.00  0.00    -0.341 N 
HETATM   12  H5  UNL     1      23.793   3.475  50.461  1.00  0.00     0.167 HD
BRANCH  11  13
HETATM   13  C6  UNL     1      25.709   4.319  49.969  1.00  0.00     0.035 A 
HETATM   14  C7  UNL     1      26.836   3.904  49.254  1.00  0.00     0.029 A 
HETATM   15  C8  UNL     1      27.591   4.885  48.637  1.00  0.00     0.004 A 
HETATM   16  C9  UNL     1      27.288   6.233  48.693  1.00  0.00     0.019 A 
HETATM   17  C10 UNL     1      26.186   6.660  49.390  1.00  0.00     0.013 A 
HETATM   18 BR1  UNL     1      25.728   8.502  49.498  1.00  0.00    -0.051 Br
HETATM   19  C11 UNL     1      25.415   5.677  50.018  1.00  0.00     0.048 A 
ENDBRANCH  11  13
ENDBRANCH   4  11
BRANCH   1  20
HETATM   20  O1  UNL     1      21.047   0.499  51.724  1.00  0.00    -0.353 OA
HETATM   21  C1  UNL     1      20.777   0.778  50.362  1.00  0.00     0.210 C 
ENDBRANCH   1  20
BRANCH  10  22
HETATM   22  O2  UNL     1      22.090  -1.515  53.495  1.00  0.00    -0.353 OA
HETATM   23  C17 UNL     1      21.450  -1.386  54.755  1.00  0.00     0.210 C 
ENDBRANCH  10  22
TORSDOF 4
ENDMDL
MODEL 6
REMARK VINA RESULT:      -7.2      2.187      3.017
REMARK  4 active torsions:
REMARK  status: ('A' for Active; 'I' for Inactive)
REMARK    1  A    between atoms: O1_2  and  C2_3 
REMARK    2  A    between atoms: C5_6  and  N1_7 
REMARK    3  A    between atoms: N1_7  and  C6_8 
REMARK    4  A    between atoms: C16_20  and  O2_21 
ROOT
HETATM    1  C2  UNL     1      26.759   0.347  53.045  1.00  0.00     0.101 A 
HETATM    2  C3  UNL     1      26.740   1.149  51.994  1.00  0.00     0.051 A 
HETATM    3  C4  UNL     1      25.433   1.637  51.641  1.00  0.00     0.002 A 
HETATM    4  C5  UNL     1      25.257   2.531  50.646  1.00  0.00     0.136 C 
HETATM    5  N2  UNL     1      23.905   2.983  50.383  1.00  0.00    -0.229 NA
HETATM    6  C12 UNL     1      23.201   3.228  51.443  1.00  0.00     0.085 C 
HETATM    7  C13 UNL     1      23.473   2.579  52.568  1.00  0.00     0.021 C 
HETATM    8  C14 UNL     1      24.116   1.276  52.282  1.00  0.00     0.073 A 
HETATM    9  C15 UNL     1      24.343   0.402  53.424  1.00  0.00     0.026 A 
HETATM   10  C16 UNL     1      25.561  -0.036  53.782  1.00  0.00     0.098 A 
ENDROOT
BRANCH   4  11
HETATM   11  N1  UNL     1      26.419   2.973  49.955  1.00  0.00    -0.341 N 
HETATM   12  H5  UNL     1      27.199   2.297  49.741  1.00  0.00     0.167 HD
BRANCH  11  13
HETATM   13  C6  UNL     1      26.562   4.341  49.531  1.00  0.00     0.035 A 
HETATM   14  C7  UNL     1      27.563   4.784  48.662  1.00  0.00     0.029 A 
HETATM   15  C8  UNL     1      27.575   6.130  48.343  1.00  0.00     0.004 A 
HETATM   16  C9  UNL     1      26.658   7.041  48.833  1.00  0.00     0.019 A 
HETATM   17  C10 UNL     1      25.667   6.624  49.686  1.00  0.00     0.013 A 
HETATM   18 BR1  UNL     1      24.383   7.838  50.388  1.00  0.00    -0.051 Br
HETATM   19  C11 UNL     1      25.646   5.266  50.016  1.00  0.00     0.048 A 
ENDBRANCH  11  13
ENDBRANCH   4  11
BRANCH   1  20
HETATM   20  O1  UNL     1      28.021  -0.117  53.393  1.00  0.00    -0.353 OA
HETATM   21  C1  UNL     1      28.673   0.508  54.483  1.00  0.00     0.210 C 
ENDBRANCH   1  20
BRANCH  10  22
HETATM   22  O2  UNL     1      25.691  -0.888  54.896  1.00  0.00    -0.353 OA
HETATM   23  C17 UNL     1      24.533  -1.220  55.646  1.00  0.00     0.210 C 
ENDBRANCH  10  22
TORSDOF 4
ENDMDL
MODEL 7
REMARK VINA RESULT:      -7.2      3.663      6.457
REMARK  4 active torsions:
REMARK  status: ('A' for Active; 'I' for Inactive)
REMARK    1  A    between atoms: O1_2  and  C2_3 
REMARK    2  A    between atoms: C5_6  and  N1_7 
REMARK    3  A    between atoms: N1_7  and  C6_8 
REMARK    4  A    between atoms: C16_20  and  O2_21 
ROOT
HETATM    1  C2  UNL     1      22.279   0.752  52.705  1.00  0.00     0.101 A 
HETATM    2  C3  UNL     1      23.497   1.211  52.937  1.00  0.00     0.051 A 
HETATM    3  C4  UNL     1      24.104   1.882  51.819  1.00  0.00     0.002 A 
HETATM    4  C5  UNL     1      25.310   2.479  51.923  1.00  0.00     0.136 C 
HETATM    5  N2  UNL     1      25.826   3.153  50.747  1.00  0.00    -0.229 NA
HETATM    6  C12 UNL     1      24.949   3.845  50.091  1.00  0.00     0.085 C 
HETATM    7  C13 UNL     1      23.672   3.488  50.139  1.00  0.00     0.021 C 
HETATM    8  C14 UNL     1      23.539   2.042  50.429  1.00  0.00     0.073 A 
HETATM    9  C15 UNL     1      22.193   1.491  50.374  1.00  0.00     0.026 A 
HETATM   10  C16 UNL     1      21.603   0.889  51.420  1.00  0.00     0.098 A 
ENDROOT
BRANCH   4  11
HETATM   11  N1  UNL     1      25.960   2.418  53.185  1.00  0.00    -0.341 N 
HETATM   12  H5  UNL     1      25.562   2.933  54.014  1.00  0.00     0.167 HD
BRANCH  11  13
HETATM   13  C6  UNL     1      27.169   1.659  53.367  1.00  0.00     0.035 A 
HETATM   14  C7  UNL     1      28.382   2.219  53.778  1.00  0.00     0.029 A 
HETATM   15  C8  UNL     1      29.462   1.364  53.910  1.00  0.00     0.004 A 
HETATM   16  C9  UNL     1      29.398   0.006  53.660  1.00  0.00     0.019 A 
HETATM   17  C10 UNL     1      28.215  -0.562  53.256  1.00  0.00     0.013 A 
HETATM   18 BR1  UNL     1      28.077  -2.424  52.898  1.00  0.00    -0.051 Br
HETATM   19  C11 UNL     1      27.118   0.293  53.119  1.00  0.00     0.048 A 
ENDBRANCH  11  13
ENDBRANCH   4  11
BRANCH   1  20
HETATM   20  O1  UNL     1      21.687   0.113  53.786  1.00  0.00    -0.353 OA
HETATM   21  C1  UNL     1      22.056  -1.230  54.040  1.00  0.00     0.210 C 
ENDBRANCH   1  20
BRANCH  10  22
HETATM   22  O2  UNL     1      20.300   0.375  51.279  1.00  0.00    -0.353 OA
HETATM   23  C17 UNL     1      19.216   1.280  51.138  1.00  0.00     0.210 C 
ENDBRANCH  10  22
TORSDOF 4
ENDMDL
MODEL 8
REMARK VINA RESULT:      -7.1      3.476      6.031
REMARK  4 active torsions:
REMARK  status: ('A' for Active; 'I' for Inactive)
REMARK    1  A    between atoms: O1_2  and  C2_3 
REMARK    2  A    between atoms: C5_6  and  N1_7 
REMARK    3  A    between atoms: N1_7  and  C6_8 
REMARK    4  A    between atoms: C16_20  and  O2_21 
ROOT
HETATM    1  C2  UNL     1      24.558   4.615  50.405  1.00  0.00     0.101 A 
HETATM    2  C3  UNL     1      24.009   3.717  51.205  1.00  0.00     0.051 A 
HETATM    3  C4  UNL     1      24.819   2.552  51.439  1.00  0.00     0.002 A 
HETATM    4  C5  UNL     1      24.437   1.584  52.298  1.00  0.00     0.136 C 
HETATM    5  N2  UNL     1      25.335   0.462  52.486  1.00  0.00    -0.229 NA
HETATM    6  C12 UNL     1      26.588   0.780  52.574  1.00  0.00     0.085 C 
HETATM    7  C13 UNL     1      27.023   1.879  51.971  1.00  0.00     0.021 C 
HETATM    8  C14 UNL     1      26.157   2.227  50.821  1.00  0.00     0.073 A 
HETATM    9  C15 UNL     1      26.601   3.335  49.988  1.00  0.00     0.026 A 
HETATM   10  C16 UNL     1      25.867   4.442  49.787  1.00  0.00     0.098 A 
ENDROOT
BRANCH   4  11
HETATM   11  N1  UNL     1      23.194   1.762  52.966  1.00  0.00    -0.341 N 
HETATM   12  H5  UNL     1      22.831   2.731  53.164  1.00  0.00     0.167 HD
BRANCH  11  13
HETATM   13  C6  UNL     1      22.404   0.635  53.386  1.00  0.00     0.035 A 
HETATM   14  C7  UNL     1      22.878  -0.374  54.230  1.00  0.00     0.029 A 
HETATM   15  C8  UNL     1      22.002  -1.396  54.549  1.00  0.00     0.004 A 
HETATM   16  C9  UNL     1      20.703  -1.465  54.082  1.00  0.00     0.019 A 
HETATM   17  C10 UNL     1      20.219  -0.483  53.253  1.00  0.00     0.013 A 
HETATM   18 BR1  UNL     1      18.441  -0.533  52.583  1.00  0.00    -0.051 Br
HETATM   19  C11 UNL     1      21.096   0.555  52.923  1.00  0.00     0.048 A 
ENDBRANCH  11  13
ENDBRANCH   4  11
BRANCH   1  20
HETATM   20  O1  UNL     1      23.782   5.745  50.187  1.00  0.00    -0.353 OA
HETATM   21  C1  UNL     1      23.818   6.767  51.166  1.00  0.00     0.210 C 
ENDBRANCH   1  20
BRANCH  10  22
HETATM   22  O2  UNL     1      26.369   5.465  48.958  1.00  0.00    -0.353 OA
HETATM   23  C17 UNL     1      27.706   5.376  48.491  1.00  0.00     0.210 C 
ENDBRANCH  10  22
TORSDOF 4
ENDMDL
MODEL 9
REMARK VINA RESULT:      -7.0      3.706      7.033
REMARK  4 active torsions:
REMARK  status: ('A' for Active; 'I' for Inactive)
REMARK    1  A    between atoms: O1_2  and  C2_3 
REMARK    2  A    between atoms: C5_6  and  N1_7 
REMARK    3  A    between atoms: N1_7  and  C6_8 
REMARK    4  A    between atoms: C16_20  and  O2_21 
ROOT
HETATM    1  C2  UNL     1      22.462   4.620  51.013  1.00  0.00     0.101 A 
HETATM    2  C3  UNL     1      23.553   4.015  51.454  1.00  0.00     0.051 A 
HETATM    3  C4  UNL     1      24.630   3.959  50.502  1.00  0.00     0.002 A 
HETATM    4  C5  UNL     1      25.836   3.451  50.828  1.00  0.00     0.136 C 
HETATM    5  N2  UNL     1      26.866   3.463  49.808  1.00  0.00    -0.229 NA
HETATM    6  C12 UNL     1      26.924   4.554  49.111  1.00  0.00     0.085 C 
HETATM    7  C13 UNL     1      25.826   5.280  48.948  1.00  0.00     0.021 C 
HETATM    8  C14 UNL     1      24.614   4.438  49.072  1.00  0.00     0.073 A 
HETATM    9  C15 UNL     1      23.343   5.085  48.778  1.00  0.00     0.026 A 
HETATM   10  C16 UNL     1      22.341   5.170  49.669  1.00  0.00     0.098 A 
ENDROOT
BRANCH   4  11
HETATM   11  N1  UNL     1      26.002   2.968  52.156  1.00  0.00    -0.341 N 
HETATM   12  H5  UNL     1      26.180   3.640  52.947  1.00  0.00     0.167 HD
BRANCH  11  13
HETATM   13  C6  UNL     1      25.931   1.562  52.454  1.00  0.00     0.035 A 
HETATM   14  C7  UNL     1      26.960   0.657  52.178  1.00  0.00     0.029 A 
HETATM   15  C8  UNL     1      26.749  -0.666  52.522  1.00  0.00     0.004 A 
HETATM   16  C9  UNL     1      25.589  -1.127  53.116  1.00  0.00     0.019 A 
HETATM   17  C10 UNL     1      24.568  -0.253  53.394  1.00  0.00     0.013 A 
HETATM   18 BR1  UNL     1      22.952  -0.839  54.208  1.00  0.00    -0.051 Br
HETATM   19  C11 UNL     1      24.770   1.086  53.051  1.00  0.00     0.048 A 
ENDBRANCH  11  13
ENDBRANCH   4  11
BRANCH   1  20
HETATM   20  O1  UNL     1      21.426   4.684  51.934  1.00  0.00    -0.353 OA
HETATM   21  C1  UNL     1      20.749   3.481  52.249  1.00  0.00     0.210 C 
ENDBRANCH   1  20
BRANCH  10  22
HETATM   22  O2  UNL     1      21.140   5.807  49.300  1.00  0.00    -0.353 OA
HETATM   23  C17 UNL     1      21.125   7.219  49.159  1.00  0.00     0.210 C 
ENDBRANCH  10  22
TORSDOF 4
ENDMDL
