MODEL 1
REMARK VINA RESULT:      -8.2      0.000      0.000
REMARK  1 active torsions:
REMARK  status: ('A' for Active; 'I' for Inactive)
REMARK    1  A    between atoms: N1_1  and  S1_2 
ROOT
HETATM    1  S1  UNL     1      24.949   3.472  50.981  1.00  0.00    -0.094 SA
HETATM    2  C1  UNL     1      23.809   4.151  49.972  1.00  0.00     0.028 C 
HETATM    3  C2  UNL     1      22.620   4.117  50.482  1.00  0.00     0.039 C 
HETATM    4  C3  UNL     1      22.154   3.673  51.794  1.00  0.00     0.010 C 
HETATM    5 BR1  UNL     1      23.299   4.853  52.845  1.00  0.00    -0.051 Br
HETATM    6  C4  UNL     1      21.290   2.836  52.382  1.00  0.00     0.019 C 
HETATM    7  C5  UNL     1      20.251   1.826  52.579  1.00  0.00     0.203 C 
HETATM    8  O1  UNL     1      20.653   0.691  53.305  1.00  0.00    -0.357 OA
HETATM    9  C6  UNL     1      19.918  -0.418  53.515  1.00  0.00     0.170 C 
HETATM   10  C7  UNL     1      20.536  -1.497  53.985  1.00  0.00     0.130 C 
HETATM   11  N2  UNL     1      21.637  -1.397  54.655  1.00  0.00    -0.175 NA
HETATM   12  N3  UNL     1      22.436  -0.277  54.296  1.00  0.00    -0.309 N 
HETATM   13  C8  UNL     1      23.368   0.371  53.515  1.00  0.00     0.180 C 
HETATM   14  C9  UNL     1      24.780   0.212  53.385  1.00  0.00    -0.032 A 
HETATM   15  C10 UNL     1      25.681  -0.466  54.134  1.00  0.00     0.009 A 
HETATM   16  C11 UNL     1      27.036  -0.501  53.904  1.00  0.00     0.001 A 
HETATM   17  C12 UNL     1      27.478   0.223  52.820  1.00  0.00     0.001 A 
HETATM   18  C13 UNL     1      26.586   0.924  52.037  1.00  0.00     0.008 A 
HETATM   19  C14 UNL     1      25.227   0.961  52.262  1.00  0.00    -0.040 A 
HETATM   20  C15 UNL     1      24.414   1.741  51.298  1.00  0.00     0.128 C 
HETATM   21  H8  UNL     1      21.972   0.178  55.146  1.00  0.00     0.182 HD
ENDROOT
BRANCH   1  22
HETATM   22  N1  UNL     1      26.589   3.787  50.340  1.00  0.00    -0.379 N 
HETATM   23  H1  UNL     1      26.828   3.234  49.504  1.00  0.00     0.163 HD
HETATM   24  H2  UNL     1      26.865   4.790  50.308  1.00  0.00     0.163 HD
ENDBRANCH   1  22
TORSDOF 1
ENDMDL
MODEL 2
REMARK VINA RESULT:      -7.7      2.528      5.277
REMARK  1 active torsions:
REMARK  status: ('A' for Active; 'I' for Inactive)
REMARK    1  A    between atoms: N1_1  and  S1_2 
ROOT
HETATM    1  S1  UNL     1      21.783   1.124  52.714  1.00  0.00    -0.094 SA
HETATM    2  C1  UNL     1      20.530   2.222  52.643  1.00  0.00     0.028 C 
HETATM    3  C2  UNL     1      20.577   2.950  51.575  1.00  0.00     0.039 C 
HETATM    4  C3  UNL     1      21.472   2.900  50.420  1.00  0.00     0.010 C 
HETATM    5 BR1  UNL     1      21.117   1.041  49.947  1.00  0.00    -0.051 Br
HETATM    6  C4  UNL     1      22.314   3.653  49.701  1.00  0.00     0.019 C 
HETATM    7  C5  UNL     1      23.100   4.792  49.230  1.00  0.00     0.203 C 
HETATM    8  O1  UNL     1      24.491   4.592  49.218  1.00  0.00    -0.357 OA
HETATM    9  C6  UNL     1      25.425   5.523  48.939  1.00  0.00     0.170 C 
HETATM   10  C7  UNL     1      26.692   5.244  49.233  1.00  0.00     0.130 C 
HETATM   11  N2  UNL     1      27.102   4.022  49.326  1.00  0.00    -0.175 NA
HETATM   12  N3  UNL     1      26.104   3.104  49.753  1.00  0.00    -0.309 N 
HETATM   13  C8  UNL     1      25.352   2.460  50.712  1.00  0.00     0.180 C 
HETATM   14  C9  UNL     1      25.686   1.458  51.670  1.00  0.00    -0.032 A 
HETATM   15  C10 UNL     1      26.778   0.668  51.802  1.00  0.00     0.009 A 
HETATM   16  C11 UNL     1      26.948  -0.294  52.771  1.00  0.00     0.001 A 
HETATM   17  C12 UNL     1      25.906  -0.439  53.659  1.00  0.00     0.001 A 
HETATM   18  C13 UNL     1      24.780   0.350  53.552  1.00  0.00     0.008 A 
HETATM   19  C14 UNL     1      24.606   1.316  52.584  1.00  0.00    -0.040 A 
HETATM   20  C15 UNL     1      23.344   2.093  52.640  1.00  0.00     0.128 C 
HETATM   21  H8  UNL     1      26.005   2.906  48.706  1.00  0.00     0.182 HD
ENDROOT
BRANCH   1  22
HETATM   22  N1  UNL     1      21.512  -0.016  54.065  1.00  0.00    -0.379 N 
HETATM   23  H1  UNL     1      20.813  -0.746  53.867  1.00  0.00     0.163 HD
HETATM   24  H2  UNL     1      22.374  -0.340  54.549  1.00  0.00     0.163 HD
ENDBRANCH   1  22
TORSDOF 1
ENDMDL
MODEL 3
REMARK VINA RESULT:      -7.6      1.849      2.409
REMARK  1 active torsions:
REMARK  status: ('A' for Active; 'I' for Inactive)
REMARK    1  A    between atoms: N1_1  and  S1_2 
ROOT
HETATM    1  S1  UNL     1      24.907   2.715  51.921  1.00  0.00    -0.094 SA
HETATM    2  C1  UNL     1      24.785   3.540  50.478  1.00  0.00     0.028 C 
HETATM    3  C2  UNL     1      23.569   3.906  50.224  1.00  0.00     0.039 C 
HETATM    4  C3  UNL     1      22.349   3.790  51.020  1.00  0.00     0.010 C 
HETATM    5 BR1  UNL     1      23.019   4.737  52.589  1.00  0.00    -0.051 Br
HETATM    6  C4  UNL     1      21.099   3.313  50.976  1.00  0.00     0.019 C 
HETATM    7  C5  UNL     1      19.876   2.667  50.503  1.00  0.00     0.203 C 
HETATM    8  O1  UNL     1      19.442   1.574  51.274  1.00  0.00    -0.357 OA
HETATM    9  C6  UNL     1      18.417   0.750  50.978  1.00  0.00     0.170 C 
HETATM   10  C7  UNL     1      18.310  -0.384  51.664  1.00  0.00     0.130 C 
HETATM   11  N2  UNL     1      18.827  -0.503  52.843  1.00  0.00    -0.175 NA
HETATM   12  N3  UNL     1      19.987   0.293  53.052  1.00  0.00    -0.309 N 
HETATM   13  C8  UNL     1      21.339   0.545  52.966  1.00  0.00     0.180 C 
HETATM   14  C9  UNL     1      22.459  -0.015  53.650  1.00  0.00    -0.032 A 
HETATM   15  C10 UNL     1      22.540  -0.808  54.744  1.00  0.00     0.009 A 
HETATM   16  C11 UNL     1      23.709  -1.248  55.319  1.00  0.00     0.001 A 
HETATM   17  C12 UNL     1      24.870  -0.829  54.710  1.00  0.00     0.001 A 
HETATM   18  C13 UNL     1      24.822  -0.020  53.595  1.00  0.00     0.008 A 
HETATM   19  C14 UNL     1      23.653   0.422  53.014  1.00  0.00    -0.040 A 
HETATM   20  C15 UNL     1      23.790   1.259  51.797  1.00  0.00     0.128 C 
HETATM   21  H8  UNL     1      19.296   0.969  53.512  1.00  0.00     0.182 HD
ENDROOT
BRANCH   1  22
HETATM   22  N1  UNL     1      26.631   2.474  52.335  1.00  0.00    -0.379 N 
HETATM   23  H1  UNL     1      27.062   3.272  52.822  1.00  0.00     0.163 HD
HETATM   24  H2  UNL     1      26.866   1.535  52.716  1.00  0.00     0.163 HD
ENDBRANCH   1  22
TORSDOF 1
ENDMDL
MODEL 4
REMARK VINA RESULT:      -7.2      2.513      3.273
REMARK  1 active torsions:
REMARK  status: ('A' for Active; 'I' for Inactive)
REMARK    1  A    between atoms: N1_1  and  S1_2 
ROOT
HETATM    1  S1  UNL     1      22.986   2.084  51.144  1.00  0.00    -0.094 SA
HETATM    2  C1  UNL     1      22.490   2.603  49.639  1.00  0.00     0.028 C 
HETATM    3  C2  UNL     1      21.207   2.756  49.572  1.00  0.00     0.039 C 
HETATM    4  C3  UNL     1      20.173   2.636  50.598  1.00  0.00     0.010 C 
HETATM    5 BR1  UNL     1      20.939   3.938  51.833  1.00  0.00    -0.051 Br
HETATM    6  C4  UNL     1      19.026   2.004  50.875  1.00  0.00     0.019 C 
HETATM    7  C5  UNL     1      17.860   1.130  50.758  1.00  0.00     0.203 C 
HETATM    8  O1  UNL     1      17.744   0.154  51.764  1.00  0.00    -0.357 OA
HETATM    9  C6  UNL     1      16.829  -0.834  51.810  1.00  0.00     0.170 C 
HETATM   10  C7  UNL     1      17.022  -1.825  52.676  1.00  0.00     0.130 C 
HETATM   11  N2  UNL     1      17.743  -1.654  53.735  1.00  0.00    -0.175 NA
HETATM   12  N3  UNL     1      18.779  -0.692  53.585  1.00  0.00    -0.309 N 
HETATM   13  C8  UNL     1      20.039  -0.289  53.198  1.00  0.00     0.180 C 
HETATM   14  C9  UNL     1      21.333  -0.563  53.732  1.00  0.00    -0.032 A 
HETATM   15  C10 UNL     1      21.723  -1.121  54.901  1.00  0.00     0.009 A 
HETATM   16  C11 UNL     1      23.028  -1.292  55.302  1.00  0.00     0.001 A 
HETATM   17  C12 UNL     1      23.987  -0.849  54.420  1.00  0.00     0.001 A 
HETATM   18  C13 UNL     1      23.623  -0.277  53.219  1.00  0.00     0.008 A 
HETATM   19  C14 UNL     1      22.317  -0.105  52.814  1.00  0.00    -0.040 A 
HETATM   20  C15 UNL     1      22.111   0.501  51.475  1.00  0.00     0.128 C 
HETATM   21  H8  UNL     1      18.077  -0.035  54.055  1.00  0.00     0.182 HD
ENDROOT
BRANCH   1  22
HETATM   22  N1  UNL     1      24.770   2.147  51.248  1.00  0.00    -0.379 N 
HETATM   23  H1  UNL     1      25.252   1.867  50.382  1.00  0.00     0.163 HD
HETATM   24  H2  UNL     1      25.155   2.988  51.724  1.00  0.00     0.163 HD
ENDBRANCH   1  22
TORSDOF 1
ENDMDL
MODEL 5
REMARK VINA RESULT:      -7.2      2.890      5.496
REMARK  1 active torsions:
REMARK  status: ('A' for Active; 'I' for Inactive)
REMARK    1  A    between atoms: N1_1  and  S1_2 
ROOT
HETATM    1  S1  UNL     1      20.992   2.495  49.796  1.00  0.00    -0.094 SA
HETATM    2  C1  UNL     1      20.355   0.975  50.048  1.00  0.00     0.028 C 
HETATM    3  C2  UNL     1      20.848   0.405  51.099  1.00  0.00     0.039 C 
HETATM    4  C3  UNL     1      21.777   0.903  52.112  1.00  0.00     0.010 C 
HETATM    5 BR1  UNL     1      20.721   2.461  52.629  1.00  0.00    -0.051 Br
HETATM    6  C4  UNL     1      22.946   0.627  52.703  1.00  0.00     0.019 C 
HETATM    7  C5  UNL     1      24.199  -0.038  53.057  1.00  0.00     0.203 C 
HETATM    8  O1  UNL     1      25.358   0.736  52.867  1.00  0.00    -0.357 OA
HETATM    9  C6  UNL     1      26.628   0.310  53.009  1.00  0.00     0.170 C 
HETATM   10  C7  UNL     1      27.602   1.081  52.535  1.00  0.00     0.130 C 
HETATM   11  N2  UNL     1      27.432   2.353  52.382  1.00  0.00    -0.175 NA
HETATM   12  N3  UNL     1      26.090   2.731  52.103  1.00  0.00    -0.309 N 
HETATM   13  C8  UNL     1      25.017   2.932  51.262  1.00  0.00     0.180 C 
HETATM   14  C9  UNL     1      24.759   3.918  50.264  1.00  0.00    -0.032 A 
HETATM   15  C10 UNL     1      25.378   5.087  49.974  1.00  0.00     0.009 A 
HETATM   16  C11 UNL     1      24.991   5.967  48.991  1.00  0.00     0.001 A 
HETATM   17  C12 UNL     1      23.882   5.599  48.262  1.00  0.00     0.001 A 
HETATM   18  C13 UNL     1      23.229   4.415  48.532  1.00  0.00     0.008 A 
HETATM   19  C14 UNL     1      23.615   3.530  49.516  1.00  0.00    -0.040 A 
HETATM   20  C15 UNL     1      22.814   2.288  49.644  1.00  0.00     0.128 C 
HETATM   21  H8  UNL     1      26.052   2.934  53.153  1.00  0.00     0.182 HD
ENDROOT
BRANCH   1  22
HETATM   22  N1  UNL     1      20.085   3.323  48.496  1.00  0.00    -0.379 N 
HETATM   23  H1  UNL     1      20.060   2.807  47.605  1.00  0.00     0.163 HD
HETATM   24  H2  UNL     1      19.185   3.753  48.791  1.00  0.00     0.163 HD
ENDBRANCH   1  22
TORSDOF 1
ENDMDL
MODEL 6
REMARK VINA RESULT:      -7.0      2.461      3.286
REMARK  1 active torsions:
REMARK  status: ('A' for Active; 'I' for Inactive)
REMARK    1  A    between atoms: N1_1  and  S1_2 
ROOT
HETATM    1  S1  UNL     1      25.743   5.311  49.581  1.00  0.00    -0.094 SA
HETATM    2  C1  UNL     1      25.089   6.285  48.397  1.00  0.00     0.028 C 
HETATM    3  C2  UNL     1      23.896   6.686  48.696  1.00  0.00     0.039 C 
HETATM    4  C3  UNL     1      23.097   6.497  49.905  1.00  0.00     0.010 C 
HETATM    5 BR1  UNL     1      24.392   7.268  51.145  1.00  0.00    -0.051 Br
HETATM    6  C4  UNL     1      21.914   6.038  50.331  1.00  0.00     0.019 C 
HETATM    7  C5  UNL     1      20.573   5.455  50.339  1.00  0.00     0.203 C 
HETATM    8  O1  UNL     1      20.434   4.291  51.116  1.00  0.00    -0.357 OA
HETATM    9  C6  UNL     1      19.337   3.512  51.188  1.00  0.00     0.170 C 
HETATM   10  C7  UNL     1      19.458   2.313  51.750  1.00  0.00     0.130 C 
HETATM   11  N2  UNL     1      20.402   2.066  52.599  1.00  0.00    -0.175 NA
HETATM   12  N3  UNL     1      21.586   2.825  52.390  1.00  0.00    -0.309 N 
HETATM   13  C8  UNL     1      22.798   3.074  51.785  1.00  0.00     0.180 C 
HETATM   14  C9  UNL     1      24.069   2.436  51.897  1.00  0.00    -0.032 A 
HETATM   15  C10 UNL     1      24.545   1.531  52.784  1.00  0.00     0.009 A 
HETATM   16  C11 UNL     1      25.823   1.023  52.790  1.00  0.00     0.001 A 
HETATM   17  C12 UNL     1      26.658   1.494  51.803  1.00  0.00     0.001 A 
HETATM   18  C13 UNL     1      26.204   2.416  50.883  1.00  0.00     0.008 A 
HETATM   19  C14 UNL     1      24.924   2.927  50.873  1.00  0.00    -0.040 A 
HETATM   20  C15 UNL     1      24.599   3.886  49.789  1.00  0.00     0.128 C 
HETATM   21  H8  UNL     1      21.175   3.455  53.152  1.00  0.00     0.182 HD
ENDROOT
BRANCH   1  22
HETATM   22  N1  UNL     1      27.472   5.013  49.233  1.00  0.00    -0.379 N 
HETATM   23  H1  UNL     1      27.704   5.006  48.229  1.00  0.00     0.163 HD
HETATM   24  H2  UNL     1      28.141   5.525  49.844  1.00  0.00     0.163 HD
ENDBRANCH   1  22
TORSDOF 1
ENDMDL
MODEL 7
REMARK VINA RESULT:      -6.9      2.745      5.444
REMARK  1 active torsions:
REMARK  status: ('A' for Active; 'I' for Inactive)
REMARK    1  A    between atoms: N1_1  and  S1_2 
ROOT
HETATM    1  S1  UNL     1      25.548  -0.082  53.787  1.00  0.00    -0.094 SA
HETATM    2  C1  UNL     1      26.973  -0.236  52.936  1.00  0.00     0.028 C 
HETATM    3  C2  UNL     1      27.178   0.763  52.139  1.00  0.00     0.039 C 
HETATM    4  C3  UNL     1      26.428   2.001  51.944  1.00  0.00     0.010 C 
HETATM    5 BR1  UNL     1      26.504   2.599  53.800  1.00  0.00    -0.051 Br
HETATM    6  C4  UNL     1      25.820   2.732  51.001  1.00  0.00     0.019 C 
HETATM    7  C5  UNL     1      25.305   3.177  49.707  1.00  0.00     0.203 C 
HETATM    8  O1  UNL     1      23.910   3.347  49.647  1.00  0.00    -0.357 OA
HETATM    9  C6  UNL     1      23.193   3.635  48.543  1.00  0.00     0.170 C 
HETATM   10  C7  UNL     1      21.872   3.496  48.603  1.00  0.00     0.130 C 
HETATM   11  N2  UNL     1      21.245   3.553  49.733  1.00  0.00    -0.175 NA
HETATM   12  N3  UNL     1      22.011   3.111  50.846  1.00  0.00    -0.309 N 
HETATM   13  C8  UNL     1      22.523   2.142  51.682  1.00  0.00     0.180 C 
HETATM   14  C9  UNL     1      21.910   1.315  52.670  1.00  0.00    -0.032 A 
HETATM   15  C10 UNL     1      20.690   1.365  53.252  1.00  0.00     0.009 A 
HETATM   16  C11 UNL     1      20.243   0.508  54.231  1.00  0.00     0.001 A 
HETATM   17  C12 UNL     1      21.134  -0.464  54.627  1.00  0.00     0.001 A 
HETATM   18  C13 UNL     1      22.385  -0.542  54.053  1.00  0.00     0.008 A 
HETATM   19  C14 UNL     1      22.836   0.314  53.071  1.00  0.00    -0.040 A 
HETATM   20  C15 UNL     1      24.200   0.062  52.545  1.00  0.00     0.128 C 
HETATM   21  H8  UNL     1      22.194   4.156  50.986  1.00  0.00     0.182 HD
ENDROOT
BRANCH   1  22
HETATM   22  N1  UNL     1      25.457  -1.347  55.048  1.00  0.00    -0.379 N 
HETATM   23  H1  UNL     1      24.527  -1.780  55.143  1.00  0.00     0.163 HD
HETATM   24  H2  UNL     1      26.263  -2.005  55.073  1.00  0.00     0.163 HD
ENDBRANCH   1  22
TORSDOF 1
ENDMDL
MODEL 8
REMARK VINA RESULT:      -6.7      2.679      4.607
REMARK  1 active torsions:
REMARK  status: ('A' for Active; 'I' for Inactive)
REMARK    1  A    between atoms: N1_1  and  S1_2 
ROOT
HETATM    1  S1  UNL     1      25.352   0.380  52.621  1.00  0.00    -0.094 SA
HETATM    2  C1  UNL     1      26.382   1.093  51.521  1.00  0.00     0.028 C 
HETATM    3  C2  UNL     1      26.083   2.333  51.302  1.00  0.00     0.039 C 
HETATM    4  C3  UNL     1      25.075   3.197  51.912  1.00  0.00     0.010 C 
HETATM    5 BR1  UNL     1      25.679   2.971  53.754  1.00  0.00    -0.051 Br
HETATM    6  C4  UNL     1      24.037   3.987  51.612  1.00  0.00     0.019 C 
HETATM    7  C5  UNL     1      23.018   4.712  50.854  1.00  0.00     0.203 C 
HETATM    8  O1  UNL     1      21.689   4.395  51.189  1.00  0.00    -0.357 OA
HETATM    9  C6  UNL     1      20.585   4.839  50.557  1.00  0.00     0.170 C 
HETATM   10  C7  UNL     1      19.429   4.238  50.823  1.00  0.00     0.130 C 
HETATM   11  N2  UNL     1      19.245   3.608  51.937  1.00  0.00    -0.175 NA
HETATM   12  N3  UNL     1      20.429   3.046  52.490  1.00  0.00    -0.309 N 
HETATM   13  C8  UNL     1      21.390   2.065  52.603  1.00  0.00     0.180 C 
HETATM   14  C9  UNL     1      21.350   0.751  53.156  1.00  0.00    -0.032 A 
HETATM   15  C10 UNL     1      20.433   0.130  53.934  1.00  0.00     0.009 A 
HETATM   16  C11 UNL     1      20.547  -1.148  54.429  1.00  0.00     0.001 A 
HETATM   17  C12 UNL     1      21.699  -1.820  54.088  1.00  0.00     0.001 A 
HETATM   18  C13 UNL     1      22.654  -1.216  53.297  1.00  0.00     0.008 A 
HETATM   19  C14 UNL     1      22.542   0.064  52.798  1.00  0.00    -0.040 A 
HETATM   20  C15 UNL     1      23.652   0.540  51.937  1.00  0.00     0.128 C 
HETATM   21  H8  UNL     1      20.431   3.935  53.086  1.00  0.00     0.182 HD
ENDROOT
BRANCH   1  22
HETATM   22  N1  UNL     1      25.974  -1.234  53.074  1.00  0.00    -0.379 N 
HETATM   23  H1  UNL     1      26.926  -1.223  53.469  1.00  0.00     0.163 HD
HETATM   24  H2  UNL     1      25.293  -1.849  53.564  1.00  0.00     0.163 HD
ENDBRANCH   1  22
TORSDOF 1
ENDMDL
MODEL 9
REMARK VINA RESULT:      -6.6     11.382     13.624
REMARK  1 active torsions:
REMARK  status: ('A' for Active; 'I' for Inactive)
REMARK    1  A    between atoms: N1_1  and  S1_2 
ROOT
HETATM    1  S1  UNL     1      31.787   6.751  48.936  1.00  0.00    -0.094 SA
HETATM    2  C1  UNL     1      31.318   8.289  49.378  1.00  0.00     0.028 C 
HETATM    3  C2  UNL     1      31.060   9.036  48.354  1.00  0.00     0.039 C 
HETATM    4  C3  UNL     1      31.030   8.726  46.926  1.00  0.00     0.010 C 
HETATM    5 BR1  UNL     1      29.727   7.278  47.043  1.00  0.00    -0.051 Br
HETATM    6  C4  UNL     1      31.544   9.107  45.750  1.00  0.00     0.019 C 
HETATM    7  C5  UNL     1      32.321   9.828  44.743  1.00  0.00     0.203 C 
HETATM    8  O1  UNL     1      33.222   9.038  44.007  1.00  0.00    -0.357 OA
HETATM    9  C6  UNL     1      34.124   9.488  43.112  1.00  0.00     0.170 C 
HETATM   10  C7  UNL     1      35.074   8.651  42.708  1.00  0.00     0.130 C 
HETATM   11  N2  UNL     1      34.903   7.370  42.765  1.00  0.00    -0.175 NA
HETATM   12  N3  UNL     1      34.044   6.944  43.814  1.00  0.00    -0.309 N 
HETATM   13  C8  UNL     1      33.774   6.594  45.120  1.00  0.00     0.180 C 
HETATM   14  C9  UNL     1      34.126   5.448  45.892  1.00  0.00    -0.032 A 
HETATM   15  C10 UNL     1      34.645   4.249  45.536  1.00  0.00     0.009 A 
HETATM   16  C11 UNL     1      34.903   3.209  46.399  1.00  0.00     0.001 A 
HETATM   17  C12 UNL     1      34.597   3.440  47.721  1.00  0.00     0.001 A 
HETATM   18  C13 UNL     1      34.067   4.650  48.116  1.00  0.00     0.008 A 
HETATM   19  C14 UNL     1      33.808   5.695  47.256  1.00  0.00    -0.040 A 
HETATM   20  C15 UNL     1      33.267   6.936  47.861  1.00  0.00     0.128 C 
HETATM   21  H8  UNL     1      33.303   6.927  43.042  1.00  0.00     0.182 HD
ENDROOT
BRANCH   1  22
HETATM   22  N1  UNL     1      31.871   5.705  50.384  1.00  0.00    -0.379 N 
HETATM   23  H1  UNL     1      30.999   5.193  50.584  1.00  0.00     0.163 HD
HETATM   24  H2  UNL     1      32.747   5.152  50.479  1.00  0.00     0.163 HD
ENDBRANCH   1  22
TORSDOF 1
ENDMDL
