MODEL 1
REMARK VINA RESULT:      -6.8      0.000      0.000
REMARK  9 active torsions:
REMARK  status: ('A' for Active; 'I' for Inactive)
REMARK    1  A    between atoms: C2_2  and  O1_3 
REMARK    2  A    between atoms: C2_2  and  C4_5 
REMARK    3  A    between atoms: C4_5  and  O2_6 
REMARK    4  A    between atoms: C4_5  and  C6_8 
REMARK    5  A    between atoms: C9_13  and  N3_14 
REMARK    6  A    between atoms: N3_14  and  C10_15 
REMARK    7  A    between atoms: C10_15  and  C11_16 
REMARK    8  A    between atoms: C10_15  and  C13_18 
REMARK       I    between atoms: C13_18  and  N4_20 
REMARK    9  A    between atoms: N4_20  and  C14_21 
ROOT
HETATM    1  N3  UNL     1      26.389   1.707  51.368  1.00  0.00    -0.361 N 
HETATM    2  H12 UNL     1      25.843   1.030  50.835  1.00  0.00     0.162 HD
ENDROOT
BRANCH   1   3
HETATM    3  C9  UNL     1      27.267   1.624  52.463  1.00  0.00     0.136 A 
HETATM    4  C6  UNL     1      27.124   0.487  53.213  1.00  0.00     0.036 A 
HETATM    5  C7  UNL     1      27.979   0.378  54.320  1.00  0.00     0.131 A 
HETATM    6  N1  UNL     1      28.889   1.351  54.618  1.00  0.00    -0.253 NA
HETATM    7  C8  UNL     1      28.975   2.451  53.832  1.00  0.00     0.234 A 
HETATM    8  N2  UNL     1      28.161   2.554  52.776  1.00  0.00    -0.224 NA
BRANCH   4   9
HETATM    9  C4  UNL     1      26.259  -0.700  53.151  1.00  0.00     0.188 C 
BRANCH   9  10
HETATM   10  C2  UNL     1      24.984  -0.482  53.911  1.00  0.00     0.072 C 
HETATM   11  C1  UNL     1      24.725  -0.933  55.126  1.00  0.00     0.119 C 
BRANCH  10  12
HETATM   12  O1  UNL     1      24.070   0.279  53.156  1.00  0.00    -0.387 OA
HETATM   13  C3  UNL     1      22.774  -0.277  52.996  1.00  0.00     0.202 C 
ENDBRANCH  10  12
ENDBRANCH   9  10
BRANCH   9  14
HETATM   14  O2  UNL     1      26.798  -1.883  53.557  1.00  0.00    -0.383 OA
HETATM   15  C5  UNL     1      27.260  -2.558  52.406  1.00  0.00     0.202 C 
ENDBRANCH   9  14
ENDBRANCH   4   9
ENDBRANCH   1   3
BRANCH   1  16
HETATM   16  C10 UNL     1      26.154   3.014  50.807  1.00  0.00     0.175 C 
BRANCH  16  17
HETATM   17  C11 UNL     1      26.670   3.167  49.412  1.00  0.00     0.030 C 
HETATM   18  C12 UNL     1      27.033   4.602  49.086  1.00  0.00     0.007 C 
ENDBRANCH  16  17
BRANCH  16  19
HETATM   19  C13 UNL     1      24.766   3.506  50.966  1.00  0.00     0.244 C 
HETATM   20  O3  UNL     1      24.348   4.693  51.191  1.00  0.00    -0.271 OA
HETATM   21  N4  UNL     1      23.711   2.564  50.863  1.00  0.00    -0.325 N 
HETATM   22  H19 UNL     1      23.892   1.555  50.680  1.00  0.00     0.169 HD
BRANCH  21  23
HETATM   23  C14 UNL     1      22.348   2.943  51.003  1.00  0.00     0.041 A 
HETATM   24  C15 UNL     1      21.693   3.026  52.207  1.00  0.00     0.037 A 
HETATM   25  C16 UNL     1      20.372   3.403  52.216  1.00  0.00     0.052 A 
HETATM   26  S1  UNL     1      19.919   3.682  50.497  1.00  0.00    -0.111 SA
HETATM   27  C17 UNL     1      21.653   3.241  49.859  1.00  0.00     0.079 A 
ENDBRANCH  21  23
ENDBRANCH  16  19
ENDBRANCH   1  16
TORSDOF 9
ENDMDL
MODEL 2
REMARK VINA RESULT:      -6.7      2.654      5.591
REMARK  9 active torsions:
REMARK  status: ('A' for Active; 'I' for Inactive)
REMARK    1  A    between atoms: C2_2  and  O1_3 
REMARK    2  A    between atoms: C2_2  and  C4_5 
REMARK    3  A    between atoms: C4_5  and  O2_6 
REMARK    4  A    between atoms: C4_5  and  C6_8 
REMARK    5  A    between atoms: C9_13  and  N3_14 
REMARK    6  A    between atoms: N3_14  and  C10_15 
REMARK    7  A    between atoms: C10_15  and  C11_16 
REMARK    8  A    between atoms: C10_15  and  C13_18 
REMARK       I    between atoms: C13_18  and  N4_20 
REMARK    9  A    between atoms: N4_20  and  C14_21 
ROOT
HETATM    1  N3  UNL     1      24.382   0.513  52.274  1.00  0.00    -0.361 N 
HETATM    2  H12 UNL     1      24.539   0.419  51.270  1.00  0.00     0.162 HD
ENDROOT
BRANCH   1   3
HETATM    3  C9  UNL     1      23.327   0.177  53.142  1.00  0.00     0.136 A 
HETATM    4  C6  UNL     1      22.201   0.940  52.979  1.00  0.00     0.036 A 
HETATM    5  C7  UNL     1      21.133   0.636  53.839  1.00  0.00     0.131 A 
HETATM    6  N1  UNL     1      21.227  -0.357  54.770  1.00  0.00    -0.253 NA
HETATM    7  C8  UNL     1      22.372  -1.071  54.875  1.00  0.00     0.234 A 
HETATM    8  N2  UNL     1      23.390  -0.783  54.056  1.00  0.00    -0.224 NA
BRANCH   4   9
HETATM    9  C4  UNL     1      21.812   2.049  52.096  1.00  0.00     0.188 C 
BRANCH   9  10
HETATM   10  C2  UNL     1      21.646   1.580  50.681  1.00  0.00     0.072 C 
HETATM   11  C1  UNL     1      20.566   1.005  50.181  1.00  0.00     0.119 C 
BRANCH  10  12
HETATM   12  O1  UNL     1      22.809   1.831  49.926  1.00  0.00    -0.387 OA
HETATM   13  C3  UNL     1      22.609   2.385  48.634  1.00  0.00     0.202 C 
ENDBRANCH  10  12
ENDBRANCH   9  10
BRANCH   9  14
HETATM   14  O2  UNL     1      22.616   3.147  52.088  1.00  0.00    -0.383 OA
HETATM   15  C5  UNL     1      21.784   4.283  52.204  1.00  0.00     0.202 C 
ENDBRANCH   9  14
ENDBRANCH   4   9
ENDBRANCH   1   3
BRANCH   1  16
HETATM   16  C10 UNL     1      25.545   1.132  52.856  1.00  0.00     0.175 C 
BRANCH  16  17
HETATM   17  C11 UNL     1      26.556   0.150  53.358  1.00  0.00     0.030 C 
HETATM   18  C12 UNL     1      26.792  -0.983  52.380  1.00  0.00     0.007 C 
ENDBRANCH  16  17
BRANCH  16  19
HETATM   19  C13 UNL     1      26.144   2.205  52.029  1.00  0.00     0.244 C 
HETATM   20  O3  UNL     1      27.350   2.629  52.003  1.00  0.00    -0.271 OA
HETATM   21  N4  UNL     1      25.301   2.894  51.121  1.00  0.00    -0.325 N 
HETATM   22  H19 UNL     1      24.290   2.661  51.026  1.00  0.00     0.169 HD
BRANCH  21  23
HETATM   23  C14 UNL     1      25.786   3.938  50.288  1.00  0.00     0.041 A 
HETATM   24  C15 UNL     1      26.854   3.807  49.433  1.00  0.00     0.037 A 
HETATM   25  C16 UNL     1      27.231   4.889  48.676  1.00  0.00     0.052 A 
HETATM   26  S1  UNL     1      26.098   6.220  49.104  1.00  0.00    -0.111 SA
HETATM   27  C17 UNL     1      25.143   5.148  50.347  1.00  0.00     0.079 A 
ENDBRANCH  21  23
ENDBRANCH  16  19
ENDBRANCH   1  16
TORSDOF 9
ENDMDL
MODEL 3
REMARK VINA RESULT:      -6.5      3.419      6.835
REMARK  9 active torsions:
REMARK  status: ('A' for Active; 'I' for Inactive)
REMARK    1  A    between atoms: C2_2  and  O1_3 
REMARK    2  A    between atoms: C2_2  and  C4_5 
REMARK    3  A    between atoms: C4_5  and  O2_6 
REMARK    4  A    between atoms: C4_5  and  C6_8 
REMARK    5  A    between atoms: C9_13  and  N3_14 
REMARK    6  A    between atoms: N3_14  and  C10_15 
REMARK    7  A    between atoms: C10_15  and  C11_16 
REMARK    8  A    between atoms: C10_15  and  C13_18 
REMARK       I    between atoms: C13_18  and  N4_20 
REMARK    9  A    between atoms: N4_20  and  C14_21 
ROOT
HETATM    1  N3  UNL     1      23.488   0.795  52.200  1.00  0.00    -0.361 N 
HETATM    2  H12 UNL     1      23.645   0.149  51.425  1.00  0.00     0.162 HD
ENDROOT
BRANCH   1   3
HETATM    3  C9  UNL     1      23.236   2.174  52.298  1.00  0.00     0.136 A 
HETATM    4  C6  UNL     1      22.093   2.584  51.665  1.00  0.00     0.036 A 
HETATM    5  C7  UNL     1      21.819   3.959  51.736  1.00  0.00     0.131 A 
HETATM    6  N1  UNL     1      22.648   4.819  52.396  1.00  0.00    -0.253 NA
HETATM    7  C8  UNL     1      23.764   4.344  52.999  1.00  0.00     0.234 A 
HETATM    8  N2  UNL     1      24.025   3.034  52.933  1.00  0.00    -0.224 NA
BRANCH   4   9
HETATM    9  C4  UNL     1      21.034   1.918  50.892  1.00  0.00     0.188 C 
BRANCH   9  10
HETATM   10  C2  UNL     1      19.870   1.559  51.767  1.00  0.00     0.072 C 
HETATM   11  C1  UNL     1      19.488   0.332  52.076  1.00  0.00     0.119 C 
BRANCH  10  12
HETATM   12  O1  UNL     1      19.211   2.715  52.231  1.00  0.00    -0.387 OA
HETATM   13  C3  UNL     1      18.060   3.116  51.503  1.00  0.00     0.202 C 
ENDBRANCH  10  12
ENDBRANCH   9  10
BRANCH   9  14
HETATM   14  O2  UNL     1      21.387   0.813  50.180  1.00  0.00    -0.383 OA
HETATM   15  C5  UNL     1      21.434   1.181  48.818  1.00  0.00     0.202 C 
ENDBRANCH   9  14
ENDBRANCH   4   9
ENDBRANCH   1   3
BRANCH   1  16
HETATM   16  C10 UNL     1      23.553   0.045  53.430  1.00  0.00     0.175 C 
BRANCH  16  17
HETATM   17  C11 UNL     1      22.489  -0.998  53.549  1.00  0.00     0.030 C 
HETATM   18  C12 UNL     1      21.699  -0.870  54.836  1.00  0.00     0.007 C 
ENDBRANCH  16  17
BRANCH  16  19
HETATM   19  C13 UNL     1      24.903  -0.466  53.762  1.00  0.00     0.244 C 
HETATM   20  O3  UNL     1      25.323  -0.997  54.847  1.00  0.00    -0.271 OA
HETATM   21  N4  UNL     1      25.912  -0.375  52.770  1.00  0.00    -0.325 N 
HETATM   22  H19 UNL     1      25.723   0.033  51.831  1.00  0.00     0.169 HD
BRANCH  21  23
HETATM   23  C14 UNL     1      27.236  -0.838  52.999  1.00  0.00     0.041 A 
HETATM   24  C15 UNL     1      27.634  -2.142  52.831  1.00  0.00     0.037 A 
HETATM   25  C16 UNL     1      28.944  -2.471  53.084  1.00  0.00     0.052 A 
HETATM   26  S1  UNL     1      29.754  -0.946  53.592  1.00  0.00    -0.111 SA
HETATM   27  C17 UNL     1      28.166   0.081  53.413  1.00  0.00     0.079 A 
ENDBRANCH  21  23
ENDBRANCH  16  19
ENDBRANCH   1  16
TORSDOF 9
ENDMDL
MODEL 4
REMARK VINA RESULT:      -6.3      2.877      7.039
REMARK  9 active torsions:
REMARK  status: ('A' for Active; 'I' for Inactive)
REMARK    1  A    between atoms: C2_2  and  O1_3 
REMARK    2  A    between atoms: C2_2  and  C4_5 
REMARK    3  A    between atoms: C4_5  and  O2_6 
REMARK    4  A    between atoms: C4_5  and  C6_8 
REMARK    5  A    between atoms: C9_13  and  N3_14 
REMARK    6  A    between atoms: N3_14  and  C10_15 
REMARK    7  A    between atoms: C10_15  and  C11_16 
REMARK    8  A    between atoms: C10_15  and  C13_18 
REMARK       I    between atoms: C13_18  and  N4_20 
REMARK    9  A    between atoms: N4_20  and  C14_21 
ROOT
HETATM    1  N3  UNL     1      22.960   0.638  52.160  1.00  0.00    -0.361 N 
HETATM    2  H12 UNL     1      23.663   0.336  51.484  1.00  0.00     0.162 HD
ENDROOT
BRANCH   1   3
HETATM    3  C9  UNL     1      21.949   1.615  52.161  1.00  0.00     0.136 A 
HETATM    4  C6  UNL     1      22.406   2.897  52.005  1.00  0.00     0.036 A 
HETATM    5  C7  UNL     1      21.421   3.897  52.012  1.00  0.00     0.131 A 
HETATM    6  N1  UNL     1      20.099   3.596  52.165  1.00  0.00    -0.253 NA
HETATM    7  C8  UNL     1      19.718   2.305  52.314  1.00  0.00     0.234 A 
HETATM    8  N2  UNL     1      20.656   1.351  52.307  1.00  0.00    -0.224 NA
BRANCH   4   9
HETATM    9  C4  UNL     1      23.726   3.519  51.830  1.00  0.00     0.188 C 
BRANCH   9  10
HETATM   10  C2  UNL     1      24.003   3.802  50.383  1.00  0.00     0.072 C 
HETATM   11  C1  UNL     1      23.665   3.027  49.367  1.00  0.00     0.119 C 
BRANCH  10  12
HETATM   12  O1  UNL     1      24.685   5.026  50.229  1.00  0.00    -0.387 OA
HETATM   13  C3  UNL     1      25.874   4.987  49.453  1.00  0.00     0.202 C 
ENDBRANCH  10  12
ENDBRANCH   9  10
BRANCH   9  14
HETATM   14  O2  UNL     1      24.798   2.856  52.345  1.00  0.00    -0.383 OA
HETATM   15  C5  UNL     1      24.902   3.210  53.708  1.00  0.00     0.202 C 
ENDBRANCH   9  14
ENDBRANCH   4   9
ENDBRANCH   1   3
BRANCH   1  16
HETATM   16  C10 UNL     1      23.103  -0.167  53.347  1.00  0.00     0.175 C 
BRANCH  16  17
HETATM   17  C11 UNL     1      22.285  -1.419  53.320  1.00  0.00     0.030 C 
HETATM   18  C12 UNL     1      21.369  -1.534  54.521  1.00  0.00     0.007 C 
ENDBRANCH  16  17
BRANCH  16  19
HETATM   19  C13 UNL     1      24.505  -0.401  53.761  1.00  0.00     0.244 C 
HETATM   20  O3  UNL     1      24.956  -0.886  54.855  1.00  0.00    -0.271 OA
HETATM   21  N4  UNL     1      25.534  -0.054  52.850  1.00  0.00    -0.325 N 
HETATM   22  H19 UNL     1      25.326   0.352  51.914  1.00  0.00     0.169 HD
BRANCH  21  23
HETATM   23  C14 UNL     1      26.909  -0.242  53.161  1.00  0.00     0.041 A 
HETATM   24  C15 UNL     1      27.702   0.715  53.746  1.00  0.00     0.037 A 
HETATM   25  C16 UNL     1      29.020   0.417  53.998  1.00  0.00     0.052 A 
HETATM   26  S1  UNL     1      29.271  -1.270  53.424  1.00  0.00    -0.111 SA
HETATM   27  C17 UNL     1      27.468  -1.455  52.853  1.00  0.00     0.079 A 
ENDBRANCH  21  23
ENDBRANCH  16  19
ENDBRANCH   1  16
TORSDOF 9
ENDMDL
MODEL 5
REMARK VINA RESULT:      -6.3      2.529      3.539
REMARK  9 active torsions:
REMARK  status: ('A' for Active; 'I' for Inactive)
REMARK    1  A    between atoms: C2_2  and  O1_3 
REMARK    2  A    between atoms: C2_2  and  C4_5 
REMARK    3  A    between atoms: C4_5  and  O2_6 
REMARK    4  A    between atoms: C4_5  and  C6_8 
REMARK    5  A    between atoms: C9_13  and  N3_14 
REMARK    6  A    between atoms: N3_14  and  C10_15 
REMARK    7  A    between atoms: C10_15  and  C11_16 
REMARK    8  A    between atoms: C10_15  and  C13_18 
REMARK       I    between atoms: C13_18  and  N4_20 
REMARK    9  A    between atoms: N4_20  and  C14_21 
ROOT
HETATM    1  N3  UNL     1      25.833   2.900  50.353  1.00  0.00    -0.361 N 
HETATM    2  H12 UNL     1      25.355   2.368  49.624  1.00  0.00     0.162 HD
ENDROOT
BRANCH   1   3
HETATM    3  C9  UNL     1      26.291   2.604  51.649  1.00  0.00     0.136 A 
HETATM    4  C6  UNL     1      25.297   2.493  52.585  1.00  0.00     0.036 A 
HETATM    5  C7  UNL     1      25.723   2.208  53.892  1.00  0.00     0.131 A 
HETATM    6  N1  UNL     1      27.045   2.054  54.194  1.00  0.00    -0.253 NA
HETATM    7  C8  UNL     1      27.975   2.179  53.217  1.00  0.00     0.234 A 
HETATM    8  N2  UNL     1      27.570   2.450  51.972  1.00  0.00    -0.224 NA
BRANCH   4   9
HETATM    9  C4  UNL     1      23.831   2.605  52.568  1.00  0.00     0.188 C 
BRANCH   9  10
HETATM   10  C2  UNL     1      23.202   1.386  51.960  1.00  0.00     0.072 C 
HETATM   11  C1  UNL     1      22.833   0.300  52.618  1.00  0.00     0.119 C 
BRANCH  10  12
HETATM   12  O1  UNL     1      23.047   1.538  50.568  1.00  0.00    -0.387 OA
HETATM   13  C3  UNL     1      21.800   1.126  50.028  1.00  0.00     0.202 C 
ENDBRANCH  10  12
ENDBRANCH   9  10
BRANCH   9  14
HETATM   14  O2  UNL     1      23.300   3.703  51.962  1.00  0.00    -0.383 OA
HETATM   15  C5  UNL     1      23.441   4.789  52.853  1.00  0.00     0.202 C 
ENDBRANCH   9  14
ENDBRANCH   4   9
ENDBRANCH   1   3
BRANCH   1  16
HETATM   16  C10 UNL     1      26.049   4.239  49.865  1.00  0.00     0.175 C 
BRANCH  16  17
HETATM   17  C11 UNL     1      27.188   4.344  48.900  1.00  0.00     0.030 C 
HETATM   18  C12 UNL     1      27.517   5.783  48.555  1.00  0.00     0.007 C 
ENDBRANCH  16  17
BRANCH  16  19
HETATM   19  C13 UNL     1      24.824   4.921  49.389  1.00  0.00     0.244 C 
HETATM   20  O3  UNL     1      24.552   6.170  49.361  1.00  0.00    -0.271 OA
HETATM   21  N4  UNL     1      23.770   4.119  48.883  1.00  0.00    -0.325 N 
HETATM   22  H19 UNL     1      23.842   3.081  48.838  1.00  0.00     0.169 HD
BRANCH  21  23
HETATM   23  C14 UNL     1      22.557   4.685  48.405  1.00  0.00     0.041 A 
HETATM   24  C15 UNL     1      22.363   5.110  47.114  1.00  0.00     0.037 A 
HETATM   25  C16 UNL     1      21.144   5.642  46.769  1.00  0.00     0.052 A 
HETATM   26  S1  UNL     1      20.136   5.593  48.259  1.00  0.00    -0.111 SA
HETATM   27  C17 UNL     1      21.522   4.810  49.296  1.00  0.00     0.079 A 
ENDBRANCH  21  23
ENDBRANCH  16  19
ENDBRANCH   1  16
TORSDOF 9
ENDMDL
MODEL 6
REMARK VINA RESULT:      -6.2      2.860      4.383
REMARK  9 active torsions:
REMARK  status: ('A' for Active; 'I' for Inactive)
REMARK    1  A    between atoms: C2_2  and  O1_3 
REMARK    2  A    between atoms: C2_2  and  C4_5 
REMARK    3  A    between atoms: C4_5  and  O2_6 
REMARK    4  A    between atoms: C4_5  and  C6_8 
REMARK    5  A    between atoms: C9_13  and  N3_14 
REMARK    6  A    between atoms: N3_14  and  C10_15 
REMARK    7  A    between atoms: C10_15  and  C11_16 
REMARK    8  A    between atoms: C10_15  and  C13_18 
REMARK       I    between atoms: C13_18  and  N4_20 
REMARK    9  A    between atoms: N4_20  and  C14_21 
ROOT
HETATM    1  N3  UNL     1      23.429   0.759  52.209  1.00  0.00    -0.361 N 
HETATM    2  H12 UNL     1      24.053   0.654  51.408  1.00  0.00     0.162 HD
ENDROOT
BRANCH   1   3
HETATM    3  C9  UNL     1      23.191   0.013  53.377  1.00  0.00     0.136 A 
HETATM    4  C6  UNL     1      24.322  -0.478  53.972  1.00  0.00     0.036 A 
HETATM    5  C7  UNL     1      24.117  -1.237  55.135  1.00  0.00     0.131 A 
HETATM    6  N1  UNL     1      22.865  -1.461  55.628  1.00  0.00    -0.253 NA
HETATM    7  C8  UNL     1      21.789  -0.944  54.988  1.00  0.00     0.234 A 
HETATM    8  N2  UNL     1      21.984  -0.221  53.880  1.00  0.00    -0.224 NA
BRANCH   4   9
HETATM    9  C4  UNL     1      25.763  -0.413  53.684  1.00  0.00     0.188 C 
BRANCH   9  10
HETATM   10  C2  UNL     1      26.374   0.830  54.262  1.00  0.00     0.072 C 
HETATM   11  C1  UNL     1      26.096   2.068  53.894  1.00  0.00     0.119 C 
BRANCH  10  12
HETATM   12  O1  UNL     1      27.306   0.513  55.270  1.00  0.00    -0.387 OA
HETATM   13  C3  UNL     1      28.644   0.306  54.844  1.00  0.00     0.202 C 
ENDBRANCH  10  12
ENDBRANCH   9  10
BRANCH   9  14
HETATM   14  O2  UNL     1      26.140  -0.504  52.380  1.00  0.00    -0.383 OA
HETATM   15  C5  UNL     1      26.849  -1.716  52.226  1.00  0.00     0.202 C 
ENDBRANCH   9  14
ENDBRANCH   4   9
ENDBRANCH   1   3
BRANCH   1  16
HETATM   16  C10 UNL     1      22.660   1.964  52.025  1.00  0.00     0.175 C 
BRANCH  16  17
HETATM   17  C11 UNL     1      23.464   3.112  51.503  1.00  0.00     0.030 C 
HETATM   18  C12 UNL     1      23.398   4.322  52.412  1.00  0.00     0.007 C 
ENDBRANCH  16  17
BRANCH  16  19
HETATM   19  C13 UNL     1      21.388   1.770  51.293  1.00  0.00     0.244 C 
HETATM   20  O3  UNL     1      21.176   1.739  50.032  1.00  0.00    -0.271 OA
HETATM   21  N4  UNL     1      20.204   1.591  52.052  1.00  0.00    -0.325 N 
HETATM   22  H19 UNL     1      20.214   1.591  53.093  1.00  0.00     0.169 HD
BRANCH  21  23
HETATM   23  C14 UNL     1      18.937   1.400  51.436  1.00  0.00     0.041 A 
HETATM   24  C15 UNL     1      18.481   0.189  50.975  1.00  0.00     0.037 A 
HETATM   25  C16 UNL     1      17.237   0.127  50.397  1.00  0.00     0.052 A 
HETATM   26  S1  UNL     1      16.577   1.800  50.448  1.00  0.00    -0.111 SA
HETATM   27  C17 UNL     1      18.126   2.497  51.299  1.00  0.00     0.079 A 
ENDBRANCH  21  23
ENDBRANCH  16  19
ENDBRANCH   1  16
TORSDOF 9
ENDMDL
MODEL 7
REMARK VINA RESULT:      -6.1      3.219      5.222
REMARK  9 active torsions:
REMARK  status: ('A' for Active; 'I' for Inactive)
REMARK    1  A    between atoms: C2_2  and  O1_3 
REMARK    2  A    between atoms: C2_2  and  C4_5 
REMARK    3  A    between atoms: C4_5  and  O2_6 
REMARK    4  A    between atoms: C4_5  and  C6_8 
REMARK    5  A    between atoms: C9_13  and  N3_14 
REMARK    6  A    between atoms: N3_14  and  C10_15 
REMARK    7  A    between atoms: C10_15  and  C11_16 
REMARK    8  A    between atoms: C10_15  and  C13_18 
REMARK       I    between atoms: C13_18  and  N4_20 
REMARK    9  A    between atoms: N4_20  and  C14_21 
ROOT
HETATM    1  N3  UNL     1      23.674   0.952  52.068  1.00  0.00    -0.361 N 
HETATM    2  H12 UNL     1      23.703   0.803  51.058  1.00  0.00     0.162 HD
ENDROOT
BRANCH   1   3
HETATM    3  C9  UNL     1      23.082   0.275  53.148  1.00  0.00     0.136 A 
HETATM    4  C6  UNL     1      21.745   0.529  53.306  1.00  0.00     0.036 A 
HETATM    5  C7  UNL     1      21.127  -0.125  54.383  1.00  0.00     0.131 A 
HETATM    6  N1  UNL     1      21.825  -0.956  55.210  1.00  0.00    -0.253 NA
HETATM    7  C8  UNL     1      23.146  -1.161  54.995  1.00  0.00     0.234 A 
HETATM    8  N2  UNL     1      23.736  -0.539  53.968  1.00  0.00    -0.224 NA
BRANCH   4   9
HETATM    9  C4  UNL     1      20.751   1.353  52.604  1.00  0.00     0.188 C 
BRANCH   9  10
HETATM   10  C2  UNL     1      20.245   0.661  51.374  1.00  0.00     0.072 C 
HETATM   11  C1  UNL     1      19.034   0.155  51.216  1.00  0.00     0.119 C 
BRANCH  10  12
HETATM   12  O1  UNL     1      21.240   0.609  50.377  1.00  0.00    -0.387 OA
HETATM   13  C3  UNL     1      20.904   1.189  49.126  1.00  0.00     0.202 C 
ENDBRANCH  10  12
ENDBRANCH   9  10
BRANCH   9  14
HETATM   14  O2  UNL     1      21.125   2.616  52.257  1.00  0.00    -0.383 OA
HETATM   15  C5  UNL     1      19.950   3.389  52.136  1.00  0.00     0.202 C 
ENDBRANCH   9  14
ENDBRANCH   4   9
ENDBRANCH   1   3
BRANCH   1  16
HETATM   16  C10 UNL     1      24.436   2.139  52.368  1.00  0.00     0.175 C 
BRANCH  16  17
HETATM   17  C11 UNL     1      25.911   1.901  52.430  1.00  0.00     0.030 C 
HETATM   18  C12 UNL     1      26.446   1.973  53.846  1.00  0.00     0.007 C 
ENDBRANCH  16  17
BRANCH  16  19
HETATM   19  C13 UNL     1      24.075   3.319  51.550  1.00  0.00     0.244 C 
HETATM   20  O3  UNL     1      23.947   3.416  50.281  1.00  0.00    -0.271 OA
HETATM   21  N4  UNL     1      23.826   4.543  52.221  1.00  0.00    -0.325 N 
HETATM   22  H19 UNL     1      23.889   4.624  53.257  1.00  0.00     0.169 HD
BRANCH  21  23
HETATM   23  C14 UNL     1      23.475   5.728  51.519  1.00  0.00     0.041 A 
HETATM   24  C15 UNL     1      22.186   6.077  51.195  1.00  0.00     0.037 A 
HETATM   25  C16 UNL     1      21.970   7.250  50.514  1.00  0.00     0.052 A 
HETATM   26  S1  UNL     1      23.592   7.987  50.258  1.00  0.00    -0.111 SA
HETATM   27  C17 UNL     1      24.492   6.569  51.145  1.00  0.00     0.079 A 
ENDBRANCH  21  23
ENDBRANCH  16  19
ENDBRANCH   1  16
TORSDOF 9
ENDMDL
MODEL 8
REMARK VINA RESULT:      -6.0      3.544      6.955
REMARK  9 active torsions:
REMARK  status: ('A' for Active; 'I' for Inactive)
REMARK    1  A    between atoms: C2_2  and  O1_3 
REMARK    2  A    between atoms: C2_2  and  C4_5 
REMARK    3  A    between atoms: C4_5  and  O2_6 
REMARK    4  A    between atoms: C4_5  and  C6_8 
REMARK    5  A    between atoms: C9_13  and  N3_14 
REMARK    6  A    between atoms: N3_14  and  C10_15 
REMARK    7  A    between atoms: C10_15  and  C11_16 
REMARK    8  A    between atoms: C10_15  and  C13_18 
REMARK       I    between atoms: C13_18  and  N4_20 
REMARK    9  A    between atoms: N4_20  and  C14_21 
ROOT
HETATM    1  N3  UNL     1      22.686   1.380  53.120  1.00  0.00    -0.361 N 
HETATM    2  H12 UNL     1      22.789   2.360  53.389  1.00  0.00     0.162 HD
ENDROOT
BRANCH   1   3
HETATM    3  C9  UNL     1      21.754   0.370  53.414  1.00  0.00     0.136 A 
HETATM    4  C6  UNL     1      20.524   0.555  52.842  1.00  0.00     0.036 A 
HETATM    5  C7  UNL     1      19.567  -0.432  53.126  1.00  0.00     0.131 A 
HETATM    6  N1  UNL     1      19.859  -1.501  53.922  1.00  0.00    -0.253 NA
HETATM    7  C8  UNL     1      21.098  -1.620  54.457  1.00  0.00     0.234 A 
HETATM    8  N2  UNL     1      22.010  -0.680  54.186  1.00  0.00    -0.224 NA
BRANCH   4   9
HETATM    9  C4  UNL     1      19.924   1.574  51.969  1.00  0.00     0.188 C 
BRANCH   9  10
HETATM   10  C2  UNL     1      19.723   1.046  50.579  1.00  0.00     0.072 C 
HETATM   11  C1  UNL     1      18.558   0.899  49.971  1.00  0.00     0.119 C 
BRANCH  10  12
HETATM   12  O1  UNL     1      20.955   0.716  49.981  1.00  0.00    -0.387 OA
HETATM   13  C3  UNL     1      21.235   1.340  48.736  1.00  0.00     0.202 C 
ENDBRANCH  10  12
ENDBRANCH   9  10
BRANCH   9  14
HETATM   14  O2  UNL     1      20.566   2.771  51.879  1.00  0.00    -0.383 OA
HETATM   15  C5  UNL     1      19.588   3.762  51.644  1.00  0.00     0.202 C 
ENDBRANCH   9  14
ENDBRANCH   4   9
ENDBRANCH   1   3
BRANCH   1  16
HETATM   16  C10 UNL     1      23.777   1.039  52.242  1.00  0.00     0.175 C 
BRANCH  16  17
HETATM   17  C11 UNL     1      24.009   2.044  51.159  1.00  0.00     0.030 C 
HETATM   18  C12 UNL     1      23.976   3.467  51.678  1.00  0.00     0.007 C 
ENDBRANCH  16  17
BRANCH  16  19
HETATM   19  C13 UNL     1      25.022   0.645  52.941  1.00  0.00     0.244 C 
HETATM   20  O3  UNL     1      25.190   0.288  54.157  1.00  0.00    -0.271 OA
HETATM   21  N4  UNL     1      26.231   0.650  52.199  1.00  0.00    -0.325 N 
HETATM   22  H19 UNL     1      26.257   0.918  51.193  1.00  0.00     0.169 HD
BRANCH  21  23
HETATM   23  C14 UNL     1      27.475   0.289  52.785  1.00  0.00     0.041 A 
HETATM   24  C15 UNL     1      28.375   1.192  53.296  1.00  0.00     0.037 A 
HETATM   25  C16 UNL     1      29.547   0.723  53.838  1.00  0.00     0.052 A 
HETATM   26  S1  UNL     1      29.491  -1.069  53.677  1.00  0.00    -0.111 SA
HETATM   27  C17 UNL     1      27.786  -1.045  52.839  1.00  0.00     0.079 A 
ENDBRANCH  21  23
ENDBRANCH  16  19
ENDBRANCH   1  16
TORSDOF 9
ENDMDL
MODEL 9
REMARK VINA RESULT:      -5.8      2.911      6.213
REMARK  9 active torsions:
REMARK  status: ('A' for Active; 'I' for Inactive)
REMARK    1  A    between atoms: C2_2  and  O1_3 
REMARK    2  A    between atoms: C2_2  and  C4_5 
REMARK    3  A    between atoms: C4_5  and  O2_6 
REMARK    4  A    between atoms: C4_5  and  C6_8 
REMARK    5  A    between atoms: C9_13  and  N3_14 
REMARK    6  A    between atoms: N3_14  and  C10_15 
REMARK    7  A    between atoms: C10_15  and  C11_16 
REMARK    8  A    between atoms: C10_15  and  C13_18 
REMARK       I    between atoms: C13_18  and  N4_20 
REMARK    9  A    between atoms: N4_20  and  C14_21 
ROOT
HETATM    1  N3  UNL     1      22.889   1.351  51.784  1.00  0.00    -0.361 N 
HETATM    2  H12 UNL     1      23.452   1.758  52.533  1.00  0.00     0.162 HD
ENDROOT
BRANCH   1   3
HETATM    3  C9  UNL     1      22.660   1.677  50.436  1.00  0.00     0.136 A 
HETATM    4  C6  UNL     1      23.368   2.761  49.990  1.00  0.00     0.036 A 
HETATM    5  C7  UNL     1      23.152   3.118  48.650  1.00  0.00     0.131 A 
HETATM    6  N1  UNL     1      22.290   2.420  47.855  1.00  0.00    -0.253 NA
HETATM    7  C8  UNL     1      21.622   1.357  48.363  1.00  0.00     0.234 A 
HETATM    8  N2  UNL     1      21.827   1.016  49.640  1.00  0.00    -0.224 NA
BRANCH   4   9
HETATM    9  C4  UNL     1      24.337   3.691  50.589  1.00  0.00     0.188 C 
BRANCH   9  10
HETATM   10  C2  UNL     1      25.740   3.183  50.436  1.00  0.00     0.072 C 
HETATM   11  C1  UNL     1      26.659   3.688  49.630  1.00  0.00     0.119 C 
BRANCH  10  12
HETATM   12  O1  UNL     1      25.970   2.073  51.273  1.00  0.00    -0.387 OA
HETATM   13  C3  UNL     1      27.106   2.153  52.120  1.00  0.00     0.202 C 
ENDBRANCH  10  12
ENDBRANCH   9  10
BRANCH   9  14
HETATM   14  O2  UNL     1      24.148   4.028  51.894  1.00  0.00    -0.383 OA
HETATM   15  C5  UNL     1      23.493   5.279  51.920  1.00  0.00     0.202 C 
ENDBRANCH   9  14
ENDBRANCH   4   9
ENDBRANCH   1   3
BRANCH   1  16
HETATM   16  C10 UNL     1      22.215   0.190  52.309  1.00  0.00     0.175 C 
BRANCH  16  17
HETATM   17  C11 UNL     1      22.951  -0.470  53.431  1.00  0.00     0.030 C 
HETATM   18  C12 UNL     1      24.448  -0.257  53.342  1.00  0.00     0.007 C 
ENDBRANCH  16  17
BRANCH  16  19
HETATM   19  C13 UNL     1      20.779   0.400  52.603  1.00  0.00     0.244 C 
HETATM   20  O3  UNL     1      20.235   0.993  53.597  1.00  0.00    -0.271 OA
HETATM   21  N4  UNL     1      19.830  -0.113  51.684  1.00  0.00    -0.325 N 
HETATM   22  H19 UNL     1      20.119  -0.621  50.822  1.00  0.00     0.169 HD
BRANCH  21  23
HETATM   23  C14 UNL     1      18.430   0.039  51.884  1.00  0.00     0.041 A 
HETATM   24  C15 UNL     1      17.654  -0.848  52.589  1.00  0.00     0.037 A 
HETATM   25  C16 UNL     1      16.310  -0.595  52.715  1.00  0.00     0.052 A 
HETATM   26  S1  UNL     1      16.005   0.944  51.835  1.00  0.00    -0.111 SA
HETATM   27  C17 UNL     1      17.827   1.141  51.334  1.00  0.00     0.079 A 
ENDBRANCH  21  23
ENDBRANCH  16  19
ENDBRANCH   1  16
TORSDOF 9
ENDMDL
