MODEL 1
REMARK VINA RESULT:      -7.9      0.000      0.000
REMARK  4 active torsions:
REMARK  status: ('A' for Active; 'I' for Inactive)
REMARK    1  A    between atoms: O1_2  and  C2_3 
REMARK    2  A    between atoms: N1_9  and  C8_10 
REMARK    3  A    between atoms: C12_14  and  O2_15 
REMARK    4  A    between atoms: C14_17  and  O3_18 
ROOT
HETATM    1  C2  UNL     1      21.257   0.681  53.206  1.00  0.00     0.070 A 
HETATM    2  C3  UNL     1      20.392   1.712  52.826  1.00  0.00     0.039 A 
HETATM    3  C4  UNL     1      20.886   2.908  52.305  1.00  0.00     0.037 A 
HETATM    4  C5  UNL     1      22.261   3.106  52.149  1.00  0.00     0.087 A 
HETATM    5  C6  UNL     1      23.075   2.065  52.534  1.00  0.00     0.088 A 
HETATM    6  C7  UNL     1      22.609   0.887  53.048  1.00  0.00     0.070 A 
HETATM    7  N1  UNL     1      24.481   2.153  52.432  1.00  0.00    -0.253 N 
HETATM    8  N2  UNL     1      24.933   3.397  51.906  1.00  0.00    -0.287 N 
HETATM    9  C17 UNL     1      24.096   4.472  51.508  1.00  0.00     0.224 A 
HETATM   10  N3  UNL     1      22.813   4.310  51.633  1.00  0.00    -0.240 NA
HETATM   11  H18 UNL     1      25.976   3.562  51.790  1.00  0.00     0.188 HD
ENDROOT
BRANCH   7  12
HETATM   12  C8  UNL     1      25.487   1.197  52.726  1.00  0.00     0.060 A 
HETATM   13  C9  UNL     1      25.662  -0.114  52.340  1.00  0.00     0.041 A 
HETATM   14  C10 UNL     1      26.732  -0.850  52.799  1.00  0.00    -0.024 A 
HETATM   15  C11 UNL     1      26.806  -2.252  52.309  1.00  0.00     0.051 C 
HETATM   16  C12 UNL     1      27.684  -0.339  53.658  1.00  0.00     0.107 A 
HETATM   17  C14 UNL     1      27.529   0.973  54.058  1.00  0.00     0.104 A 
HETATM   18  C16 UNL     1      26.459   1.711  53.598  1.00  0.00     0.071 A 
BRANCH  16  19
HETATM   19  O2  UNL     1      28.699  -1.178  54.039  1.00  0.00    -0.353 OA
HETATM   20  C13 UNL     1      29.972  -1.229  53.460  1.00  0.00     0.210 C 
ENDBRANCH  16  19
BRANCH  17  21
HETATM   21  O3  UNL     1      28.500   1.457  54.918  1.00  0.00    -0.353 OA
HETATM   22  C15 UNL     1      29.629   2.194  54.553  1.00  0.00     0.210 C 
ENDBRANCH  17  21
ENDBRANCH   7  12
BRANCH   1  23
HETATM   23  O1  UNL     1      20.748  -0.493  53.719  1.00  0.00    -0.356 OA
HETATM   24  C1  UNL     1      21.506  -1.388  54.509  1.00  0.00     0.210 C 
ENDBRANCH   1  23
TORSDOF 4
ENDMDL
MODEL 2
REMARK VINA RESULT:      -7.5      3.209      6.157
REMARK  4 active torsions:
REMARK  status: ('A' for Active; 'I' for Inactive)
REMARK    1  A    between atoms: O1_2  and  C2_3 
REMARK    2  A    between atoms: N1_9  and  C8_10 
REMARK    3  A    between atoms: C12_14  and  O2_15 
REMARK    4  A    between atoms: C14_17  and  O3_18 
ROOT
HETATM    1  C2  UNL     1      26.318   0.809  54.218  1.00  0.00     0.070 A 
HETATM    2  C3  UNL     1      25.618  -0.296  54.714  1.00  0.00     0.039 A 
HETATM    3  C4  UNL     1      24.374  -0.650  54.193  1.00  0.00     0.037 A 
HETATM    4  C5  UNL     1      23.794   0.091  53.159  1.00  0.00     0.087 A 
HETATM    5  C6  UNL     1      24.517   1.169  52.701  1.00  0.00     0.088 A 
HETATM    6  C7  UNL     1      25.737   1.532  53.200  1.00  0.00     0.070 A 
HETATM    7  N1  UNL     1      24.029   1.997  51.666  1.00  0.00    -0.253 N 
HETATM    8  N2  UNL     1      22.752   1.599  51.178  1.00  0.00    -0.287 N 
HETATM    9  C17 UNL     1      22.003   0.488  51.650  1.00  0.00     0.224 A 
HETATM   10  N3  UNL     1      22.524  -0.224  52.603  1.00  0.00    -0.240 NA
HETATM   11  H18 UNL     1      22.298   2.159  50.399  1.00  0.00     0.188 HD
ENDROOT
BRANCH   7  12
HETATM   12  C8  UNL     1      24.622   3.114  51.024  1.00  0.00     0.060 A 
HETATM   13  C9  UNL     1      25.720   3.235  50.199  1.00  0.00     0.041 A 
HETATM   14  C10 UNL     1      26.113   4.466  49.721  1.00  0.00    -0.024 A 
HETATM   15  C11 UNL     1      27.312   4.460  48.842  1.00  0.00     0.051 C 
HETATM   16  C12 UNL     1      25.451   5.638  50.025  1.00  0.00     0.107 A 
HETATM   17  C14 UNL     1      24.348   5.540  50.849  1.00  0.00     0.104 A 
HETATM   18  C16 UNL     1      23.953   4.309  51.328  1.00  0.00     0.071 A 
BRANCH  16  19
HETATM   19  O2  UNL     1      25.946   6.795  49.482  1.00  0.00    -0.353 OA
HETATM   20  C13 UNL     1      25.459   7.427  48.332  1.00  0.00     0.210 C 
ENDBRANCH  16  19
BRANCH  17  21
HETATM   21  O3  UNL     1      23.705   6.733  51.135  1.00  0.00    -0.353 OA
HETATM   22  C15 UNL     1      22.418   7.091  50.727  1.00  0.00     0.210 C 
ENDBRANCH  17  21
ENDBRANCH   7  12
BRANCH   1  23
HETATM   23  O1  UNL     1      27.546   1.142  54.747  1.00  0.00    -0.356 OA
HETATM   24  C1  UNL     1      28.661   0.271  54.732  1.00  0.00     0.210 C 
ENDBRANCH   1  23
TORSDOF 4
ENDMDL
MODEL 3
REMARK VINA RESULT:      -7.1      3.224      5.334
REMARK  4 active torsions:
REMARK  status: ('A' for Active; 'I' for Inactive)
REMARK    1  A    between atoms: O1_2  and  C2_3 
REMARK    2  A    between atoms: N1_9  and  C8_10 
REMARK    3  A    between atoms: C12_14  and  O2_15 
REMARK    4  A    between atoms: C14_17  and  O3_18 
ROOT
HETATM    1  C2  UNL     1      21.689  -0.246  52.967  1.00  0.00     0.070 A 
HETATM    2  C3  UNL     1      21.776  -1.245  53.941  1.00  0.00     0.039 A 
HETATM    3  C4  UNL     1      22.955  -1.449  54.659  1.00  0.00     0.037 A 
HETATM    4  C5  UNL     1      24.082  -0.658  54.420  1.00  0.00     0.087 A 
HETATM    5  C6  UNL     1      23.953   0.314  53.454  1.00  0.00     0.088 A 
HETATM    6  C7  UNL     1      22.806   0.528  52.740  1.00  0.00     0.070 A 
HETATM    7  N1  UNL     1      25.027   1.169  53.120  1.00  0.00    -0.253 N 
HETATM    8  N2  UNL     1      26.209   0.911  53.872  1.00  0.00    -0.287 N 
HETATM    9  C17 UNL     1      26.345  -0.091  54.869  1.00  0.00     0.224 A 
HETATM   10  N3  UNL     1      25.309  -0.833  55.117  1.00  0.00    -0.240 NA
HETATM   11  H18 UNL     1      27.074   1.500  53.694  1.00  0.00     0.188 HD
ENDROOT
BRANCH   7  12
HETATM   12  C8  UNL     1      25.094   2.247  52.202  1.00  0.00     0.060 A 
HETATM   13  C9  UNL     1      25.932   2.510  51.139  1.00  0.00     0.041 A 
HETATM   14  C10 UNL     1      25.803   3.670  50.407  1.00  0.00    -0.024 A 
HETATM   15  C11 UNL     1      26.768   3.834  49.288  1.00  0.00     0.051 C 
HETATM   16  C12 UNL     1      24.847   4.629  50.678  1.00  0.00     0.107 A 
HETATM   17  C14 UNL     1      23.997   4.386  51.738  1.00  0.00     0.104 A 
HETATM   18  C16 UNL     1      24.125   3.225  52.471  1.00  0.00     0.071 A 
BRANCH  16  19
HETATM   19  O2  UNL     1      24.827   5.737  49.872  1.00  0.00    -0.353 OA
HETATM   20  C13 UNL     1      25.380   6.983  50.188  1.00  0.00     0.210 C 
ENDBRANCH  16  19
BRANCH  17  21
HETATM   21  O3  UNL     1      23.049   5.365  51.984  1.00  0.00    -0.353 OA
HETATM   22  C15 UNL     1      21.756   5.408  51.459  1.00  0.00     0.210 C 
ENDBRANCH  17  21
ENDBRANCH   7  12
BRANCH   1  23
HETATM   23  O1  UNL     1      20.515  -0.062  52.270  1.00  0.00    -0.356 OA
HETATM   24  C1  UNL     1      19.238  -0.341  52.810  1.00  0.00     0.210 C 
ENDBRANCH   1  23
TORSDOF 4
ENDMDL
MODEL 4
REMARK VINA RESULT:      -7.0      3.038      5.420
REMARK  4 active torsions:
REMARK  status: ('A' for Active; 'I' for Inactive)
REMARK    1  A    between atoms: O1_2  and  C2_3 
REMARK    2  A    between atoms: N1_9  and  C8_10 
REMARK    3  A    between atoms: C12_14  and  O2_15 
REMARK    4  A    between atoms: C14_17  and  O3_18 
ROOT
HETATM    1  C2  UNL     1      21.518  -0.159  54.035  1.00  0.00     0.070 A 
HETATM    2  C3  UNL     1      22.036  -1.024  55.004  1.00  0.00     0.039 A 
HETATM    3  C4  UNL     1      23.407  -1.266  55.092  1.00  0.00     0.037 A 
HETATM    4  C5  UNL     1      24.299  -0.648  54.211  1.00  0.00     0.087 A 
HETATM    5  C6  UNL     1      23.748   0.196  53.274  1.00  0.00     0.088 A 
HETATM    6  C7  UNL     1      22.407   0.444  53.172  1.00  0.00     0.070 A 
HETATM    7  N1  UNL     1      24.550   0.869  52.326  1.00  0.00    -0.253 N 
HETATM    8  N2  UNL     1      25.938   0.579  52.452  1.00  0.00    -0.287 N 
HETATM    9  C17 UNL     1      26.510  -0.292  53.417  1.00  0.00     0.224 A 
HETATM   10  N3  UNL     1      25.703  -0.871  54.254  1.00  0.00    -0.240 NA
HETATM   11  H18 UNL     1      26.625   1.036  51.784  1.00  0.00     0.188 HD
ENDROOT
BRANCH   7  12
HETATM   12  C8  UNL     1      24.196   1.802  51.318  1.00  0.00     0.060 A 
HETATM   13  C9  UNL     1      23.073   1.935  50.530  1.00  0.00     0.041 A 
HETATM   14  C10 UNL     1      22.986   2.932  49.584  1.00  0.00    -0.024 A 
HETATM   15  C11 UNL     1      21.724   2.966  48.799  1.00  0.00     0.051 C 
HETATM   16  C12 UNL     1      23.994   3.849  49.363  1.00  0.00     0.107 A 
HETATM   17  C14 UNL     1      25.128   3.735  50.142  1.00  0.00     0.104 A 
HETATM   18  C16 UNL     1      25.215   2.738  51.090  1.00  0.00     0.071 A 
BRANCH  16  19
HETATM   19  O2  UNL     1      23.781   4.792  48.391  1.00  0.00    -0.353 OA
HETATM   20  C13 UNL     1      23.412   6.123  48.616  1.00  0.00     0.210 C 
ENDBRANCH  16  19
BRANCH  17  21
HETATM   21  O3  UNL     1      26.120   4.671  49.898  1.00  0.00    -0.353 OA
HETATM   22  C15 UNL     1      27.165   4.541  48.979  1.00  0.00     0.210 C 
ENDBRANCH  17  21
ENDBRANCH   7  12
BRANCH   1  23
HETATM   23  O1  UNL     1      20.160   0.066  53.965  1.00  0.00    -0.356 OA
HETATM   24  C1  UNL     1      19.403  -0.111  52.783  1.00  0.00     0.210 C 
ENDBRANCH   1  23
TORSDOF 4
ENDMDL
MODEL 5
REMARK VINA RESULT:      -6.9      4.887      6.998
REMARK  4 active torsions:
REMARK  status: ('A' for Active; 'I' for Inactive)
REMARK    1  A    between atoms: O1_2  and  C2_3 
REMARK    2  A    between atoms: N1_9  and  C8_10 
REMARK    3  A    between atoms: C12_14  and  O2_15 
REMARK    4  A    between atoms: C14_17  and  O3_18 
ROOT
HETATM    1  C2  UNL     1      26.494   1.944  51.747  1.00  0.00     0.070 A 
HETATM    2  C3  UNL     1      25.303   1.262  52.015  1.00  0.00     0.039 A 
HETATM    3  C4  UNL     1      24.108   1.635  51.398  1.00  0.00     0.037 A 
HETATM    4  C5  UNL     1      24.071   2.703  50.496  1.00  0.00     0.087 A 
HETATM    5  C6  UNL     1      25.266   3.345  50.261  1.00  0.00     0.088 A 
HETATM    6  C7  UNL     1      26.446   2.994  50.857  1.00  0.00     0.070 A 
HETATM    7  N1  UNL     1      25.350   4.442  49.377  1.00  0.00    -0.253 N 
HETATM    8  N2  UNL     1      24.103   4.789  48.785  1.00  0.00    -0.287 N 
HETATM    9  C17 UNL     1      22.869   4.129  49.025  1.00  0.00     0.224 A 
HETATM   10  N3  UNL     1      22.877   3.127  49.852  1.00  0.00    -0.240 NA
HETATM   11  H18 UNL     1      24.061   5.603  48.104  1.00  0.00     0.188 HD
ENDROOT
BRANCH   7  12
HETATM   12  C8  UNL     1      26.471   5.208  48.964  1.00  0.00     0.060 A 
HETATM   13  C9  UNL     1      27.752   4.854  48.597  1.00  0.00     0.041 A 
HETATM   14  C10 UNL     1      28.682   5.813  48.260  1.00  0.00    -0.024 A 
HETATM   15  C11 UNL     1      30.025   5.301  47.884  1.00  0.00     0.051 C 
HETATM   16  C12 UNL     1      28.403   7.165  48.264  1.00  0.00     0.107 A 
HETATM   17  C14 UNL     1      27.127   7.542  48.628  1.00  0.00     0.104 A 
HETATM   18  C16 UNL     1      26.195   6.583  48.965  1.00  0.00     0.071 A 
BRANCH  16  19
HETATM   19  O2  UNL     1      29.419   8.013  47.907  1.00  0.00    -0.353 OA
HETATM   20  C13 UNL     1      30.274   8.677  48.794  1.00  0.00     0.210 C 
ENDBRANCH  16  19
BRANCH  17  21
HETATM   21  O3  UNL     1      26.879   8.905  48.622  1.00  0.00    -0.353 OA
HETATM   22  C15 UNL     1      26.850   9.740  49.741  1.00  0.00     0.210 C 
ENDBRANCH  17  21
ENDBRANCH   7  12
BRANCH   1  23
HETATM   23  O1  UNL     1      27.663   1.560  52.366  1.00  0.00    -0.356 OA
HETATM   24  C1  UNL     1      28.223   2.250  53.467  1.00  0.00     0.210 C 
ENDBRANCH   1  23
TORSDOF 4
ENDMDL
MODEL 6
REMARK VINA RESULT:      -6.9      2.429      6.507
REMARK  4 active torsions:
REMARK  status: ('A' for Active; 'I' for Inactive)
REMARK    1  A    between atoms: O1_2  and  C2_3 
REMARK    2  A    between atoms: N1_9  and  C8_10 
REMARK    3  A    between atoms: C12_14  and  O2_15 
REMARK    4  A    between atoms: C14_17  and  O3_18 
ROOT
HETATM    1  C2  UNL     1      26.086  -0.058  54.215  1.00  0.00     0.070 A 
HETATM    2  C3  UNL     1      27.389   0.439  54.119  1.00  0.00     0.039 A 
HETATM    3  C4  UNL     1      27.727   1.388  53.152  1.00  0.00     0.037 A 
HETATM    4  C5  UNL     1      26.768   1.864  52.253  1.00  0.00     0.087 A 
HETATM    5  C6  UNL     1      25.499   1.349  52.384  1.00  0.00     0.088 A 
HETATM    6  C7  UNL     1      25.150   0.418  53.323  1.00  0.00     0.070 A 
HETATM    7  N1  UNL     1      24.450   1.748  51.526  1.00  0.00    -0.253 N 
HETATM    8  N2  UNL     1      24.850   2.707  50.552  1.00  0.00    -0.287 N 
HETATM    9  C17 UNL     1      26.159   3.240  50.415  1.00  0.00     0.224 A 
HETATM   10  N3  UNL     1      27.066   2.821  51.245  1.00  0.00    -0.240 NA
HETATM   11  H18 UNL     1      24.133   3.070  49.859  1.00  0.00     0.188 HD
ENDROOT
BRANCH   7  12
HETATM   12  C8  UNL     1      23.080   1.381  51.515  1.00  0.00     0.060 A 
HETATM   13  C9  UNL     1      22.244   0.885  52.493  1.00  0.00     0.041 A 
HETATM   14  C10 UNL     1      20.932   0.575  52.211  1.00  0.00    -0.024 A 
HETATM   15  C11 UNL     1      20.138   0.048  53.352  1.00  0.00     0.051 C 
HETATM   16  C12 UNL     1      20.373   0.736  50.960  1.00  0.00     0.107 A 
HETATM   17  C14 UNL     1      21.191   1.232  49.965  1.00  0.00     0.104 A 
HETATM   18  C16 UNL     1      22.504   1.543  50.246  1.00  0.00     0.071 A 
BRANCH  16  19
HETATM   19  O2  UNL     1      19.055   0.389  50.814  1.00  0.00    -0.353 OA
HETATM   20  C13 UNL     1      17.978   1.283  50.775  1.00  0.00     0.210 C 
ENDBRANCH  16  19
BRANCH  17  21
HETATM   21  O3  UNL     1      20.600   1.383  48.721  1.00  0.00    -0.353 OA
HETATM   22  C15 UNL     1      20.464   2.581  48.017  1.00  0.00     0.210 C 
ENDBRANCH  17  21
ENDBRANCH   7  12
BRANCH   1  23
HETATM   23  O1  UNL     1      25.774  -0.995  55.176  1.00  0.00    -0.356 OA
HETATM   24  C1  UNL     1      24.452  -1.253  55.609  1.00  0.00     0.210 C 
ENDBRANCH   1  23
TORSDOF 4
ENDMDL
MODEL 7
REMARK VINA RESULT:      -6.8      2.439      7.385
REMARK  4 active torsions:
REMARK  status: ('A' for Active; 'I' for Inactive)
REMARK    1  A    between atoms: O1_2  and  C2_3 
REMARK    2  A    between atoms: N1_9  and  C8_10 
REMARK    3  A    between atoms: C12_14  and  O2_15 
REMARK    4  A    between atoms: C14_17  and  O3_18 
ROOT
HETATM    1  C2  UNL     1      26.669   1.500  52.183  1.00  0.00     0.070 A 
HETATM    2  C3  UNL     1      27.546   0.703  52.926  1.00  0.00     0.039 A 
HETATM    3  C4  UNL     1      27.066  -0.207  53.869  1.00  0.00     0.037 A 
HETATM    4  C5  UNL     1      25.693  -0.344  54.095  1.00  0.00     0.087 A 
HETATM    5  C6  UNL     1      24.867   0.458  53.342  1.00  0.00     0.088 A 
HETATM    6  C7  UNL     1      25.319   1.356  52.415  1.00  0.00     0.070 A 
HETATM    7  N1  UNL     1      23.463   0.414  53.490  1.00  0.00    -0.253 N 
HETATM    8  N2  UNL     1      23.027  -0.521  54.472  1.00  0.00    -0.287 N 
HETATM    9  C17 UNL     1      23.877  -1.350  55.250  1.00  0.00     0.224 A 
HETATM   10  N3  UNL     1      25.157  -1.249  55.052  1.00  0.00    -0.240 NA
HETATM   11  H18 UNL     1      21.987  -0.629  54.658  1.00  0.00     0.188 HD
ENDROOT
BRANCH   7  12
HETATM   12  C8  UNL     1      22.441   1.111  52.795  1.00  0.00     0.060 A 
HETATM   13  C9  UNL     1      22.301   2.435  52.437  1.00  0.00     0.041 A 
HETATM   14  C10 UNL     1      21.174   2.873  51.777  1.00  0.00    -0.024 A 
HETATM   15  C11 UNL     1      21.145   4.323  51.448  1.00  0.00     0.051 C 
HETATM   16  C12 UNL     1      20.130   2.038  51.435  1.00  0.00     0.107 A 
HETATM   17  C14 UNL     1      20.250   0.708  51.783  1.00  0.00     0.104 A 
HETATM   18  C16 UNL     1      21.377   0.268  52.443  1.00  0.00     0.071 A 
BRANCH  16  19
HETATM   19  O2  UNL     1      19.067   2.602  50.778  1.00  0.00    -0.353 OA
HETATM   20  C13 UNL     1      17.890   3.061  51.381  1.00  0.00     0.210 C 
ENDBRANCH  16  19
BRANCH  17  21
HETATM   21  O3  UNL     1      19.187  -0.105  51.424  1.00  0.00    -0.353 OA
HETATM   22  C15 UNL     1      18.179  -0.564  52.276  1.00  0.00     0.210 C 
ENDBRANCH  17  21
ENDBRANCH   7  12
BRANCH   1  23
HETATM   23  O1  UNL     1      27.163   2.393  51.257  1.00  0.00    -0.356 OA
HETATM   24  C1  UNL     1      26.342   3.122  50.365  1.00  0.00     0.210 C 
ENDBRANCH   1  23
TORSDOF 4
ENDMDL
MODEL 8
REMARK VINA RESULT:      -6.8     16.204     19.348
REMARK  4 active torsions:
REMARK  status: ('A' for Active; 'I' for Inactive)
REMARK    1  A    between atoms: O1_2  and  C2_3 
REMARK    2  A    between atoms: N1_9  and  C8_10 
REMARK    3  A    between atoms: C12_14  and  O2_15 
REMARK    4  A    between atoms: C14_17  and  O3_18 
ROOT
HETATM    1  C2  UNL     1      42.442   8.648  51.442  1.00  0.00     0.070 A 
HETATM    2  C3  UNL     1      41.272   8.709  50.678  1.00  0.00     0.039 A 
HETATM    3  C4  UNL     1      40.070   8.192  51.164  1.00  0.00     0.037 A 
HETATM    4  C5  UNL     1      40.006   7.598  52.428  1.00  0.00     0.087 A 
HETATM    5  C6  UNL     1      41.180   7.560  53.145  1.00  0.00     0.088 A 
HETATM    6  C7  UNL     1      42.367   8.060  52.685  1.00  0.00     0.070 A 
HETATM    7  N1  UNL     1      41.240   6.977  54.430  1.00  0.00    -0.253 N 
HETATM    8  N2  UNL     1      39.991   6.454  54.872  1.00  0.00    -0.287 N 
HETATM    9  C17 UNL     1      38.779   6.492  54.135  1.00  0.00     0.224 A 
HETATM   10  N3  UNL     1      38.809   7.048  52.961  1.00  0.00    -0.240 NA
HETATM   11  H18 UNL     1      39.932   5.994  55.827  1.00  0.00     0.188 HD
ENDROOT
BRANCH   7  12
HETATM   12  C8  UNL     1      42.320   6.872  55.344  1.00  0.00     0.060 A 
HETATM   13  C9  UNL     1      43.131   5.818  55.705  1.00  0.00     0.041 A 
HETATM   14  C10 UNL     1      44.111   5.974  56.661  1.00  0.00    -0.024 A 
HETATM   15  C11 UNL     1      44.916   4.761  56.960  1.00  0.00     0.051 C 
HETATM   16  C12 UNL     1      44.345   7.170  57.309  1.00  0.00     0.107 A 
HETATM   17  C14 UNL     1      43.545   8.239  56.962  1.00  0.00     0.104 A 
HETATM   18  C16 UNL     1      42.565   8.084  56.006  1.00  0.00     0.071 A 
BRANCH  16  19
HETATM   19  O2  UNL     1      45.352   7.190  58.239  1.00  0.00    -0.353 OA
HETATM   20  C13 UNL     1      46.662   7.626  58.009  1.00  0.00     0.210 C 
ENDBRANCH  16  19
BRANCH  17  21
HETATM   21  O3  UNL     1      43.806   9.425  57.629  1.00  0.00    -0.353 OA
HETATM   22  C15 UNL     1      44.448  10.545  57.095  1.00  0.00     0.210 C 
ENDBRANCH  17  21
ENDBRANCH   7  12
BRANCH   1  23
HETATM   23  O1  UNL     1      43.618   9.164  50.943  1.00  0.00    -0.356 OA
HETATM   24  C1  UNL     1      44.819   8.420  50.858  1.00  0.00     0.210 C 
ENDBRANCH   1  23
TORSDOF 4
ENDMDL
MODEL 9
REMARK VINA RESULT:      -6.7      3.213      6.043
REMARK  4 active torsions:
REMARK  status: ('A' for Active; 'I' for Inactive)
REMARK    1  A    between atoms: O1_2  and  C2_3 
REMARK    2  A    between atoms: N1_9  and  C8_10 
REMARK    3  A    between atoms: C12_14  and  O2_15 
REMARK    4  A    between atoms: C14_17  and  O3_18 
ROOT
HETATM    1  C2  UNL     1      23.348  -0.297  53.430  1.00  0.00     0.070 A 
HETATM    2  C3  UNL     1      24.315  -0.819  54.294  1.00  0.00     0.039 A 
HETATM    3  C4  UNL     1      25.607  -0.294  54.327  1.00  0.00     0.037 A 
HETATM    4  C5  UNL     1      25.968   0.770  53.494  1.00  0.00     0.087 A 
HETATM    5  C6  UNL     1      24.985   1.253  52.661  1.00  0.00     0.088 A 
HETATM    6  C7  UNL     1      23.714   0.751  52.614  1.00  0.00     0.070 A 
HETATM    7  N1  UNL     1      25.235   2.320  51.769  1.00  0.00    -0.253 N 
HETATM    8  N2  UNL     1      26.570   2.810  51.834  1.00  0.00    -0.287 N 
HETATM    9  C17 UNL     1      27.586   2.314  52.692  1.00  0.00     0.224 A 
HETATM   10  N3  UNL     1      27.274   1.332  53.483  1.00  0.00    -0.240 NA
HETATM   11  H18 UNL     1      26.858   3.613  51.201  1.00  0.00     0.188 HD
ENDROOT
BRANCH   7  12
HETATM   12  C8  UNL     1      24.366   2.990  50.869  1.00  0.00     0.060 A 
HETATM   13  C9  UNL     1      23.756   2.591  49.699  1.00  0.00     0.041 A 
HETATM   14  C10 UNL     1      22.965   3.462  48.982  1.00  0.00    -0.024 A 
HETATM   15  C11 UNL     1      22.366   2.910  47.738  1.00  0.00     0.051 C 
HETATM   16  C12 UNL     1      22.732   4.764  49.375  1.00  0.00     0.107 A 
HETATM   17  C14 UNL     1      23.333   5.184  50.544  1.00  0.00     0.104 A 
HETATM   18  C16 UNL     1      24.124   4.314  51.263  1.00  0.00     0.071 A 
BRANCH  16  19
HETATM   19  O2  UNL     1      21.925   5.525  48.570  1.00  0.00    -0.353 OA
HETATM   20  C13 UNL     1      22.366   6.457  47.624  1.00  0.00     0.210 C 
ENDBRANCH  16  19
BRANCH  17  21
HETATM   21  O3  UNL     1      23.079   6.495  50.912  1.00  0.00    -0.353 OA
HETATM   22  C15 UNL     1      24.007   7.539  50.927  1.00  0.00     0.210 C 
ENDBRANCH  17  21
ENDBRANCH   7  12
BRANCH   1  23
HETATM   23  O1  UNL     1      22.077  -0.831  53.413  1.00  0.00    -0.356 OA
HETATM   24  C1  UNL     1      21.358  -1.162  54.585  1.00  0.00     0.210 C 
ENDBRANCH   1  23
TORSDOF 4
ENDMDL
