MODEL 1
REMARK VINA RESULT:      -8.9      0.000      0.000
REMARK  3 active torsions:
REMARK  status: ('A' for Active; 'I' for Inactive)
REMARK    1  A    between atoms: C2_2  and  C3_3 
REMARK    2  A    between atoms: C6_6  and  O1_7 
REMARK    3  A    between atoms: C17_20  and  O2_21 
ROOT
HETATM    1  C3  UNL     1      22.903   3.458  50.389  1.00  0.00     0.061 C 
HETATM    2  C4  UNL     1      23.328   3.711  48.993  1.00  0.00     0.042 C 
HETATM    3  C5  UNL     1      24.440   4.459  48.958  1.00  0.00     0.033 C 
HETATM    4  C6  UNL     1      24.864   4.731  50.363  1.00  0.00     0.153 C 
HETATM    5  C7  UNL     1      24.084   3.662  51.158  1.00  0.00     0.079 C 
HETATM    6  C8  UNL     1      24.997   2.526  51.350  1.00  0.00     0.099 C 
HETATM    7  N1  UNL     1      24.783   1.924  52.468  1.00  0.00    -0.263 NA
HETATM    8  C9  UNL     1      25.443   0.819  52.988  1.00  0.00     0.072 C 
HETATM    9  C10 UNL     1      26.779   0.874  53.514  1.00  0.00    -0.007 A 
HETATM   10  C11 UNL     1      27.437   2.106  53.496  1.00  0.00     0.014 A 
HETATM   11  C12 UNL     1      28.719   2.265  53.977  1.00  0.00     0.001 A 
HETATM   12  C13 UNL     1      29.415   1.196  54.503  1.00  0.00     0.000 A 
HETATM   13  C14 UNL     1      28.793  -0.034  54.534  1.00  0.00     0.001 A 
HETATM   14  C15 UNL     1      27.514  -0.146  54.044  1.00  0.00     0.014 A 
HETATM   15  C16 UNL     1      24.793  -0.330  52.990  1.00  0.00     0.081 C 
HETATM   16  S1  UNL     1      23.150  -0.707  52.414  1.00  0.00    -0.093 SA
HETATM   17  C17 UNL     1      21.895   0.382  53.077  1.00  0.00     0.150 C 
HETATM   18  C19 UNL     1      20.578  -0.098  52.568  1.00  0.00     0.028 C 
HETATM   19  C20 UNL     1      20.729   0.229  51.288  1.00  0.00     0.013 C 
HETATM   20  C21 UNL     1      21.604   1.421  51.274  1.00  0.00    -0.009 C 
HETATM   21  C22 UNL     1      21.935   1.754  52.513  1.00  0.00     0.040 C 
HETATM   22  C23 UNL     1      22.127   2.222  50.174  1.00  0.00     0.080 C 
HETATM   23  N2  UNL     1      22.001   1.978  48.891  1.00  0.00    -0.177 NA
HETATM   24  N3  UNL     1      22.666   2.869  48.070  1.00  0.00    -0.281 N 
HETATM   25  H23 UNL     1      22.617   2.834  47.030  1.00  0.00     0.189 HD
ENDROOT
BRANCH  17  26
HETATM   26  O2  UNL     1      21.894   0.397  54.466  1.00  0.00    -0.367 OA
HETATM   27  C18 UNL     1      21.731  -0.890  54.957  1.00  0.00     0.204 C 
ENDBRANCH  17  26
BRANCH   1  28
HETATM   28  C2  UNL     1      21.820   4.525  50.700  1.00  0.00     0.019 C 
HETATM   29  C1  UNL     1      21.936   5.117  52.038  1.00  0.00     0.006 C 
ENDBRANCH   1  28
BRANCH   4  30
HETATM   30  O1  UNL     1      26.246   4.440  50.458  1.00  0.00    -0.391 OA
HETATM   31  H8  UNL     1      26.271   3.446  50.550  1.00  0.00     0.210 HD
ENDBRANCH   4  30
TORSDOF 3
ENDMDL
MODEL 2
REMARK VINA RESULT:      -8.8      1.897      5.666
REMARK  3 active torsions:
REMARK  status: ('A' for Active; 'I' for Inactive)
REMARK    1  A    between atoms: C2_2  and  C3_3 
REMARK    2  A    between atoms: C6_6  and  O1_7 
REMARK    3  A    between atoms: C17_20  and  O2_21 
ROOT
HETATM    1  C3  UNL     1      25.974  -0.100  53.059  1.00  0.00     0.061 C 
HETATM    2  C4  UNL     1      27.029   0.153  54.067  1.00  0.00     0.042 C 
HETATM    3  C5  UNL     1      27.952   1.004  53.594  1.00  0.00     0.033 C 
HETATM    4  C6  UNL     1      27.546   1.414  52.217  1.00  0.00     0.153 C 
HETATM    5  C7  UNL     1      26.054   1.018  52.180  1.00  0.00     0.079 C 
HETATM    6  C8  UNL     1      25.285   2.225  52.515  1.00  0.00     0.099 C 
HETATM    7  N1  UNL     1      24.153   2.256  51.902  1.00  0.00    -0.263 NA
HETATM    8  C9  UNL     1      23.168   3.232  51.969  1.00  0.00     0.072 C 
HETATM    9  C10 UNL     1      23.296   4.526  51.357  1.00  0.00    -0.007 A 
HETATM   10  C11 UNL     1      24.477   4.804  50.663  1.00  0.00     0.014 A 
HETATM   11  C12 UNL     1      24.699   6.015  50.041  1.00  0.00     0.001 A 
HETATM   12  C13 UNL     1      23.749   7.015  50.080  1.00  0.00     0.000 A 
HETATM   13  C14 UNL     1      22.574   6.770  50.758  1.00  0.00     0.001 A 
HETATM   14  C15 UNL     1      22.395   5.550  51.363  1.00  0.00     0.014 A 
HETATM   15  C16 UNL     1      22.065   2.937  52.632  1.00  0.00     0.081 C 
HETATM   16  S1  UNL     1      21.620   1.438  53.485  1.00  0.00    -0.093 SA
HETATM   17  C17 UNL     1      21.807  -0.034  52.484  1.00  0.00     0.150 C 
HETATM   18  C19 UNL     1      21.331  -1.188  53.302  1.00  0.00     0.028 C 
HETATM   19  C20 UNL     1      22.311  -1.212  54.201  1.00  0.00     0.013 C 
HETATM   20  C21 UNL     1      23.516  -0.713  53.503  1.00  0.00    -0.009 C 
HETATM   21  C22 UNL     1      23.220  -0.418  52.245  1.00  0.00     0.040 C 
HETATM   22  C23 UNL     1      24.882  -0.504  53.964  1.00  0.00     0.080 C 
HETATM   23  N2  UNL     1      25.329  -0.630  55.191  1.00  0.00    -0.177 NA
HETATM   24  N3  UNL     1      26.659  -0.295  55.356  1.00  0.00    -0.281 N 
HETATM   25  H23 UNL     1      27.166  -0.393  56.261  1.00  0.00     0.189 HD
ENDROOT
BRANCH  17  26
HETATM   26  O2  UNL     1      21.086   0.042  51.300  1.00  0.00    -0.367 OA
HETATM   27  C18 UNL     1      19.748   0.287  51.570  1.00  0.00     0.204 C 
ENDBRANCH  17  26
BRANCH   1  28
HETATM   28  C2  UNL     1      26.376  -1.421  52.351  1.00  0.00     0.019 C 
HETATM   29  C1  UNL     1      27.597  -2.035  52.886  1.00  0.00     0.006 C 
ENDBRANCH   1  28
BRANCH   4  30
HETATM   30  O1  UNL     1      27.635   2.825  52.147  1.00  0.00    -0.391 OA
HETATM   31  H8  UNL     1      27.861   3.093  53.081  1.00  0.00     0.210 HD
ENDBRANCH   4  30
TORSDOF 3
ENDMDL
MODEL 3
REMARK VINA RESULT:      -8.5      2.023      6.691
REMARK  3 active torsions:
REMARK  status: ('A' for Active; 'I' for Inactive)
REMARK    1  A    between atoms: C2_2  and  C3_3 
REMARK    2  A    between atoms: C6_6  and  O1_7 
REMARK    3  A    between atoms: C17_20  and  O2_21 
ROOT
HETATM    1  C3  UNL     1      25.179   1.325  52.817  1.00  0.00     0.061 C 
HETATM    2  C4  UNL     1      25.925   0.046  52.801  1.00  0.00     0.042 C 
HETATM    3  C5  UNL     1      25.301  -0.884  53.539  1.00  0.00     0.033 C 
HETATM    4  C6  UNL     1      24.046  -0.283  54.081  1.00  0.00     0.153 C 
HETATM    5  C7  UNL     1      23.853   0.953  53.176  1.00  0.00     0.079 C 
HETATM    6  C8  UNL     1      22.925   0.557  52.107  1.00  0.00     0.099 C 
HETATM    7  N1  UNL     1      22.183   1.538  51.730  1.00  0.00    -0.263 NA
HETATM    8  C9  UNL     1      21.197   1.543  50.752  1.00  0.00     0.072 C 
HETATM    9  C10 UNL     1      19.916   0.914  50.920  1.00  0.00    -0.007 A 
HETATM   10  C11 UNL     1      19.662   0.268  52.133  1.00  0.00     0.014 A 
HETATM   11  C12 UNL     1      18.464  -0.365  52.393  1.00  0.00     0.001 A 
HETATM   12  C13 UNL     1      17.456  -0.388  51.453  1.00  0.00     0.000 A 
HETATM   13  C14 UNL     1      17.678   0.240  50.246  1.00  0.00     0.001 A 
HETATM   14  C15 UNL     1      18.885   0.859  50.029  1.00  0.00     0.014 A 
HETATM   15  C16 UNL     1      21.470   2.161  49.618  1.00  0.00     0.081 C 
HETATM   16  S1  UNL     1      22.949   3.021  49.121  1.00  0.00    -0.093 SA
HETATM   17  C17 UNL     1      23.492   4.249  50.305  1.00  0.00     0.150 C 
HETATM   18  C19 UNL     1      24.685   4.928  49.723  1.00  0.00     0.028 C 
HETATM   19  C20 UNL     1      25.547   3.917  49.800  1.00  0.00     0.013 C 
HETATM   20  C21 UNL     1      25.134   3.120  50.975  1.00  0.00    -0.009 C 
HETATM   21  C22 UNL     1      24.070   3.669  51.544  1.00  0.00     0.040 C 
HETATM   22  C23 UNL     1      25.682   1.901  51.555  1.00  0.00     0.080 C 
HETATM   23  N2  UNL     1      26.649   1.161  51.068  1.00  0.00    -0.177 NA
HETATM   24  N3  UNL     1      26.914   0.013  51.791  1.00  0.00    -0.281 N 
HETATM   25  H23 UNL     1      27.687  -0.645  51.556  1.00  0.00     0.189 HD
ENDROOT
BRANCH  17  26
HETATM   26  O2  UNL     1      22.501   5.180  50.586  1.00  0.00    -0.367 OA
HETATM   27  C18 UNL     1      22.209   5.173  51.943  1.00  0.00     0.204 C 
ENDBRANCH  17  26
BRANCH   1  28
HETATM   28  C2  UNL     1      25.853   2.192  53.913  1.00  0.00     0.019 C 
HETATM   29  C1  UNL     1      27.313   2.275  53.792  1.00  0.00     0.006 C 
ENDBRANCH   1  28
BRANCH   4  30
HETATM   30  O1  UNL     1      22.992  -1.193  53.827  1.00  0.00    -0.391 OA
HETATM   31  H8  UNL     1      23.442  -2.084  53.837  1.00  0.00     0.210 HD
ENDBRANCH   4  30
TORSDOF 3
ENDMDL
MODEL 4
REMARK VINA RESULT:      -8.3      8.485     11.686
REMARK  3 active torsions:
REMARK  status: ('A' for Active; 'I' for Inactive)
REMARK    1  A    between atoms: C2_2  and  C3_3 
REMARK    2  A    between atoms: C6_6  and  O1_7 
REMARK    3  A    between atoms: C17_20  and  O2_21 
ROOT
HETATM    1  C3  UNL     1      33.448   6.255  46.741  1.00  0.00     0.061 C 
HETATM    2  C4  UNL     1      33.721   5.392  45.569  1.00  0.00     0.042 C 
HETATM    3  C5  UNL     1      33.287   4.141  45.782  1.00  0.00     0.033 C 
HETATM    4  C6  UNL     1      32.647   4.092  47.129  1.00  0.00     0.153 C 
HETATM    5  C7  UNL     1      32.398   5.585  47.432  1.00  0.00     0.079 C 
HETATM    6  C8  UNL     1      31.010   5.872  47.041  1.00  0.00     0.099 C 
HETATM    7  N1  UNL     1      30.476   6.767  47.797  1.00  0.00    -0.263 NA
HETATM    8  C9  UNL     1      29.192   7.290  47.731  1.00  0.00     0.072 C 
HETATM    9  C10 UNL     1      28.021   6.557  48.129  1.00  0.00    -0.007 A 
HETATM   10  C11 UNL     1      28.197   5.254  48.602  1.00  0.00     0.014 A 
HETATM   11  C12 UNL     1      27.139   4.468  49.009  1.00  0.00     0.001 A 
HETATM   12  C13 UNL     1      25.845   4.944  48.962  1.00  0.00     0.000 A 
HETATM   13  C14 UNL     1      25.640   6.226  48.498  1.00  0.00     0.001 A 
HETATM   14  C15 UNL     1      26.722   6.974  48.104  1.00  0.00     0.014 A 
HETATM   15  C16 UNL     1      29.060   8.523  47.279  1.00  0.00     0.081 C 
HETATM   16  S1  UNL     1      30.306   9.666  46.719  1.00  0.00    -0.093 SA
HETATM   17  C17 UNL     1      31.649   9.883  47.882  1.00  0.00     0.150 C 
HETATM   18  C19 UNL     1      32.566  10.912  47.313  1.00  0.00     0.028 C 
HETATM   19  C20 UNL     1      33.053  10.205  46.297  1.00  0.00     0.013 C 
HETATM   20  C21 UNL     1      33.037   8.794  46.740  1.00  0.00    -0.009 C 
HETATM   21  C22 UNL     1      32.557   8.712  47.972  1.00  0.00     0.040 C 
HETATM   22  C23 UNL     1      33.438   7.565  46.066  1.00  0.00     0.080 C 
HETATM   23  N2  UNL     1      33.824   7.440  44.818  1.00  0.00    -0.177 NA
HETATM   24  N3  UNL     1      34.073   6.140  44.422  1.00  0.00    -0.281 N 
HETATM   25  H23 UNL     1      34.435   5.889  43.478  1.00  0.00     0.189 HD
ENDROOT
BRANCH  17  26
HETATM   26  O2  UNL     1      31.199  10.283  49.133  1.00  0.00    -0.367 OA
HETATM   27  C18 UNL     1      30.586  11.524  49.047  1.00  0.00     0.204 C 
ENDBRANCH  17  26
BRANCH   1  28
HETATM   28  C2  UNL     1      34.762   6.273  47.566  1.00  0.00     0.019 C 
HETATM   29  C1  UNL     1      34.584   5.912  48.977  1.00  0.00     0.006 C 
ENDBRANCH   1  28
BRANCH   4  30
HETATM   30  O1  UNL     1      31.394   3.450  46.985  1.00  0.00    -0.391 OA
HETATM   31  H8  UNL     1      31.052   3.795  46.113  1.00  0.00     0.210 HD
ENDBRANCH   4  30
TORSDOF 3
ENDMDL
MODEL 5
REMARK VINA RESULT:      -8.2      2.440      4.656
REMARK  3 active torsions:
REMARK  status: ('A' for Active; 'I' for Inactive)
REMARK    1  A    between atoms: C2_2  and  C3_3 
REMARK    2  A    between atoms: C6_6  and  O1_7 
REMARK    3  A    between atoms: C17_20  and  O2_21 
ROOT
HETATM    1  C3  UNL     1      21.559   2.843  50.922  1.00  0.00     0.061 C 
HETATM    2  C4  UNL     1      20.672   2.443  49.805  1.00  0.00     0.042 C 
HETATM    3  C5  UNL     1      20.437   3.477  48.984  1.00  0.00     0.033 C 
HETATM    4  C6  UNL     1      21.199   4.656  49.489  1.00  0.00     0.153 C 
HETATM    5  C7  UNL     1      22.227   4.005  50.439  1.00  0.00     0.079 C 
HETATM    6  C8  UNL     1      23.466   3.828  49.669  1.00  0.00     0.099 C 
HETATM    7  N1  UNL     1      24.511   3.951  50.410  1.00  0.00    -0.263 NA
HETATM    8  C9  UNL     1      25.845   3.849  50.037  1.00  0.00     0.072 C 
HETATM    9  C10 UNL     1      26.528   4.856  49.271  1.00  0.00    -0.007 A 
HETATM   10  C11 UNL     1      25.803   5.987  48.888  1.00  0.00     0.014 A 
HETATM   11  C12 UNL     1      26.365   7.010  48.153  1.00  0.00     0.001 A 
HETATM   12  C13 UNL     1      27.686   6.954  47.759  1.00  0.00     0.000 A 
HETATM   13  C14 UNL     1      28.427   5.849  48.121  1.00  0.00     0.001 A 
HETATM   14  C15 UNL     1      27.826   4.855  48.854  1.00  0.00     0.014 A 
HETATM   15  C16 UNL     1      26.501   2.768  50.414  1.00  0.00     0.081 C 
HETATM   16  S1  UNL     1      25.933   1.367  51.357  1.00  0.00    -0.093 SA
HETATM   17  C17 UNL     1      25.132   1.819  52.892  1.00  0.00     0.150 C 
HETATM   18  C19 UNL     1      24.781   0.552  53.598  1.00  0.00     0.028 C 
HETATM   19  C20 UNL     1      23.824   0.127  52.779  1.00  0.00     0.013 C 
HETATM   20  C21 UNL     1      23.199   1.345  52.218  1.00  0.00    -0.009 C 
HETATM   21  C22 UNL     1      23.789   2.424  52.710  1.00  0.00     0.040 C 
HETATM   22  C23 UNL     1      22.110   1.519  51.264  1.00  0.00     0.080 C 
HETATM   23  N2  UNL     1      21.491   0.578  50.593  1.00  0.00    -0.177 NA
HETATM   24  N3  UNL     1      20.545   1.039  49.697  1.00  0.00    -0.281 N 
HETATM   25  H23 UNL     1      19.938   0.409  49.131  1.00  0.00     0.189 HD
ENDROOT
BRANCH  17  26
HETATM   26  O2  UNL     1      25.946   2.605  53.697  1.00  0.00    -0.367 OA
HETATM   27  C18 UNL     1      27.192   2.012  53.841  1.00  0.00     0.204 C 
ENDBRANCH  17  26
BRANCH   1  28
HETATM   28  C2  UNL     1      20.617   3.171  52.111  1.00  0.00     0.019 C 
HETATM   29  C1  UNL     1      19.232   2.728  51.912  1.00  0.00     0.006 C 
ENDBRANCH   1  28
BRANCH   4  30
HETATM   30  O1  UNL     1      21.897   5.217  48.392  1.00  0.00    -0.391 OA
HETATM   31  H8  UNL     1      21.653   6.184  48.428  1.00  0.00     0.210 HD
ENDBRANCH   4  30
TORSDOF 3
ENDMDL
MODEL 6
REMARK VINA RESULT:      -8.2      7.375     10.205
REMARK  3 active torsions:
REMARK  status: ('A' for Active; 'I' for Inactive)
REMARK    1  A    between atoms: C2_2  and  C3_3 
REMARK    2  A    between atoms: C6_6  and  O1_7 
REMARK    3  A    between atoms: C17_20  and  O2_21 
ROOT
HETATM    1  C3  UNL     1      27.431   8.122  48.504  1.00  0.00     0.061 C 
HETATM    2  C4  UNL     1      26.699   7.662  49.707  1.00  0.00     0.042 C 
HETATM    3  C5  UNL     1      26.374   6.365  49.605  1.00  0.00     0.033 C 
HETATM    4  C6  UNL     1      26.911   5.850  48.311  1.00  0.00     0.153 C 
HETATM    5  C7  UNL     1      27.952   6.926  47.932  1.00  0.00     0.079 C 
HETATM    6  C8  UNL     1      29.257   6.439  48.401  1.00  0.00     0.099 C 
HETATM    7  N1  UNL     1      30.214   6.821  47.629  1.00  0.00    -0.263 NA
HETATM    8  C9  UNL     1      31.572   6.556  47.751  1.00  0.00     0.072 C 
HETATM    9  C10 UNL     1      32.151   5.268  47.484  1.00  0.00    -0.007 A 
HETATM   10  C11 UNL     1      31.295   4.239  47.083  1.00  0.00     0.014 A 
HETATM   11  C12 UNL     1      31.752   2.968  46.802  1.00  0.00     0.001 A 
HETATM   12  C13 UNL     1      33.091   2.657  46.908  1.00  0.00     0.000 A 
HETATM   13  C14 UNL     1      33.960   3.652  47.304  1.00  0.00     0.001 A 
HETATM   14  C15 UNL     1      33.463   4.904  47.573  1.00  0.00     0.014 A 
HETATM   15  C16 UNL     1      32.353   7.549  48.133  1.00  0.00     0.081 C 
HETATM   16  S1  UNL     1      31.933   9.235  48.531  1.00  0.00    -0.093 SA
HETATM   17  C17 UNL     1      30.962  10.045  47.265  1.00  0.00     0.150 C 
HETATM   18  C19 UNL     1      30.754  11.456  47.703  1.00  0.00     0.028 C 
HETATM   19  C20 UNL     1      29.934  11.228  48.725  1.00  0.00     0.013 C 
HETATM   20  C21 UNL     1      29.177  10.007  48.374  1.00  0.00    -0.009 C 
HETATM   21  C22 UNL     1      29.561   9.562  47.186  1.00  0.00     0.040 C 
HETATM   22  C23 UNL     1      28.148   9.267  49.095  1.00  0.00     0.080 C 
HETATM   23  N2  UNL     1      27.728   9.489  50.318  1.00  0.00    -0.177 NA
HETATM   24  N3  UNL     1      26.792   8.582  50.777  1.00  0.00    -0.281 N 
HETATM   25  H23 UNL     1      26.330   8.658  51.707  1.00  0.00     0.189 HD
ENDROOT
BRANCH  17  26
HETATM   26  O2  UNL     1      31.587  10.016  46.026  1.00  0.00    -0.367 OA
HETATM   27  C18 UNL     1      30.780   9.375  45.098  1.00  0.00     0.204 C 
ENDBRANCH  17  26
BRANCH   1  28
HETATM   28  C2  UNL     1      26.366   8.783  47.590  1.00  0.00     0.019 C 
HETATM   29  C1  UNL     1      26.537   8.483  46.164  1.00  0.00     0.006 C 
ENDBRANCH   1  28
BRANCH   4  30
HETATM   30  O1  UNL     1      27.597   4.642  48.583  1.00  0.00    -0.391 OA
HETATM   31  H8  UNL     1      27.251   4.013  47.888  1.00  0.00     0.210 HD
ENDBRANCH   4  30
TORSDOF 3
ENDMDL
MODEL 7
REMARK VINA RESULT:      -8.0      4.100      6.953
REMARK  3 active torsions:
REMARK  status: ('A' for Active; 'I' for Inactive)
REMARK    1  A    between atoms: C2_2  and  C3_3 
REMARK    2  A    between atoms: C6_6  and  O1_7 
REMARK    3  A    between atoms: C17_20  and  O2_21 
ROOT
HETATM    1  C3  UNL     1      23.627   4.128  50.309  1.00  0.00     0.061 C 
HETATM    2  C4  UNL     1      23.760   3.882  51.764  1.00  0.00     0.042 C 
HETATM    3  C5  UNL     1      24.860   3.162  52.031  1.00  0.00     0.033 C 
HETATM    4  C6  UNL     1      25.573   2.905  50.744  1.00  0.00     0.153 C 
HETATM    5  C7  UNL     1      24.947   3.958  49.803  1.00  0.00     0.079 C 
HETATM    6  C8  UNL     1      25.850   5.117  49.802  1.00  0.00     0.099 C 
HETATM    7  N1  UNL     1      25.857   5.717  48.663  1.00  0.00    -0.263 NA
HETATM    8  C9  UNL     1      26.581   6.841  48.289  1.00  0.00     0.072 C 
HETATM    9  C10 UNL     1      27.998   6.822  48.051  1.00  0.00    -0.007 A 
HETATM   10  C11 UNL     1      28.670   5.607  48.208  1.00  0.00     0.014 A 
HETATM   11  C12 UNL     1      30.028   5.483  48.003  1.00  0.00     0.001 A 
HETATM   12  C13 UNL     1      30.790   6.571  47.630  1.00  0.00     0.000 A 
HETATM   13  C14 UNL     1      30.156   7.784  47.469  1.00  0.00     0.001 A 
HETATM   14  C15 UNL     1      28.801   7.862  47.683  1.00  0.00     0.014 A 
HETATM   15  C16 UNL     1      25.917   7.973  48.150  1.00  0.00     0.081 C 
HETATM   16  S1  UNL     1      24.181   8.306  48.372  1.00  0.00    -0.093 SA
HETATM   17  C17 UNL     1      23.119   7.186  47.465  1.00  0.00     0.150 C 
HETATM   18  C19 UNL     1      21.713   7.631  47.689  1.00  0.00     0.028 C 
HETATM   19  C20 UNL     1      21.604   7.303  48.974  1.00  0.00     0.013 C 
HETATM   20  C21 UNL     1      22.488   6.134  49.171  1.00  0.00    -0.009 C 
HETATM   21  C22 UNL     1      23.077   5.814  48.028  1.00  0.00     0.040 C 
HETATM   22  C23 UNL     1      22.792   5.343  50.357  1.00  0.00     0.080 C 
HETATM   23  N2  UNL     1      22.397   5.579  51.586  1.00  0.00    -0.177 NA
HETATM   24  N3  UNL     1      22.900   4.703  52.529  1.00  0.00    -0.281 N 
HETATM   25  H23 UNL     1      22.635   4.733  53.536  1.00  0.00     0.189 HD
ENDROOT
BRANCH  17  26
HETATM   26  O2  UNL     1      23.407   7.177  46.107  1.00  0.00    -0.367 OA
HETATM   27  C18 UNL     1      22.432   6.471  45.416  1.00  0.00     0.204 C 
ENDBRANCH  17  26
BRANCH   1  28
HETATM   28  C2  UNL     1      22.661   3.035  49.783  1.00  0.00     0.019 C 
HETATM   29  C1  UNL     1      23.042   2.482  48.478  1.00  0.00     0.006 C 
ENDBRANCH   1  28
BRANCH   4  30
HETATM   30  O1  UNL     1      26.936   3.233  50.937  1.00  0.00    -0.391 OA
HETATM   31  H8  UNL     1      27.336   2.384  51.279  1.00  0.00     0.210 HD
ENDBRANCH   4  30
TORSDOF 3
ENDMDL
MODEL 8
REMARK VINA RESULT:      -7.7      3.597      6.186
REMARK  3 active torsions:
REMARK  status: ('A' for Active; 'I' for Inactive)
REMARK    1  A    between atoms: C2_2  and  C3_3 
REMARK    2  A    between atoms: C6_6  and  O1_7 
REMARK    3  A    between atoms: C17_20  and  O2_21 
ROOT
HETATM    1  C3  UNL     1      21.757   2.682  50.604  1.00  0.00     0.061 C 
HETATM    2  C4  UNL     1      21.841   2.461  52.066  1.00  0.00     0.042 C 
HETATM    3  C5  UNL     1      23.014   1.904  52.402  1.00  0.00     0.033 C 
HETATM    4  C6  UNL     1      23.827   1.746  51.160  1.00  0.00     0.153 C 
HETATM    5  C7  UNL     1      23.115   2.696  50.174  1.00  0.00     0.079 C 
HETATM    6  C8  UNL     1      23.845   3.972  50.210  1.00  0.00     0.099 C 
HETATM    7  N1  UNL     1      23.832   4.562  49.066  1.00  0.00    -0.263 NA
HETATM    8  C9  UNL     1      24.412   5.776  48.721  1.00  0.00     0.072 C 
HETATM    9  C10 UNL     1      25.829   5.956  48.562  1.00  0.00    -0.007 A 
HETATM   10  C11 UNL     1      26.654   4.847  48.770  1.00  0.00     0.014 A 
HETATM   11  C12 UNL     1      28.026   4.915  48.642  1.00  0.00     0.001 A 
HETATM   12  C13 UNL     1      28.647   6.098  48.300  1.00  0.00     0.000 A 
HETATM   13  C14 UNL     1      27.859   7.210  48.090  1.00  0.00     0.001 A 
HETATM   14  C15 UNL     1      26.497   7.097  48.228  1.00  0.00     0.014 A 
HETATM   15  C16 UNL     1      23.605   6.803  48.532  1.00  0.00     0.081 C 
HETATM   16  S1  UNL     1      21.829   6.889  48.654  1.00  0.00    -0.093 SA
HETATM   17  C17 UNL     1      20.988   5.628  47.701  1.00  0.00     0.150 C 
HETATM   18  C19 UNL     1      19.523   5.872  47.842  1.00  0.00     0.028 C 
HETATM   19  C20 UNL     1      19.388   5.536  49.122  1.00  0.00     0.013 C 
HETATM   20  C21 UNL     1      20.415   4.503  49.382  1.00  0.00    -0.009 C 
HETATM   21  C22 UNL     1      21.107   4.265  48.277  1.00  0.00     0.040 C 
HETATM   22  C23 UNL     1      20.759   3.767  50.591  1.00  0.00     0.080 C 
HETATM   23  N2  UNL     1      20.266   3.949  51.793  1.00  0.00    -0.177 NA
HETATM   24  N3  UNL     1      20.832   3.155  52.773  1.00  0.00    -0.281 N 
HETATM   25  H23 UNL     1      20.510   3.151  53.763  1.00  0.00     0.189 HD
ENDROOT
BRANCH  17  26
HETATM   26  O2  UNL     1      21.350   5.655  46.361  1.00  0.00    -0.367 OA
HETATM   27  C18 UNL     1      21.943   4.453  46.003  1.00  0.00     0.204 C 
ENDBRANCH  17  26
BRANCH   1  28
HETATM   28  C2  UNL     1      20.985   1.461  50.037  1.00  0.00     0.019 C 
HETATM   29  C1  UNL     1      21.527   0.949  48.773  1.00  0.00     0.006 C 
ENDBRANCH   1  28
BRANCH   4  30
HETATM   30  O1  UNL     1      25.118   2.262  51.425  1.00  0.00    -0.391 OA
HETATM   31  H8  UNL     1      25.727   1.629  50.950  1.00  0.00     0.210 HD
ENDBRANCH   4  30
TORSDOF 3
ENDMDL
MODEL 9
REMARK VINA RESULT:      -7.5      1.811      2.367
REMARK  3 active torsions:
REMARK  status: ('A' for Active; 'I' for Inactive)
REMARK    1  A    between atoms: C2_2  and  C3_3 
REMARK    2  A    between atoms: C6_6  and  O1_7 
REMARK    3  A    between atoms: C17_20  and  O2_21 
ROOT
HETATM    1  C3  UNL     1      23.007   5.600  49.886  1.00  0.00     0.061 C 
HETATM    2  C4  UNL     1      23.575   6.008  48.580  1.00  0.00     0.042 C 
HETATM    3  C5  UNL     1      24.869   6.338  48.701  1.00  0.00     0.033 C 
HETATM    4  C6  UNL     1      25.272   6.133  50.124  1.00  0.00     0.153 C 
HETATM    5  C7  UNL     1      24.142   5.227  50.660  1.00  0.00     0.079 C 
HETATM    6  C8  UNL     1      24.627   3.843  50.568  1.00  0.00     0.099 C 
HETATM    7  N1  UNL     1      24.163   3.109  51.518  1.00  0.00    -0.263 NA
HETATM    8  C9  UNL     1      24.399   1.761  51.755  1.00  0.00     0.072 C 
HETATM    9  C10 UNL     1      25.646   1.256  52.257  1.00  0.00    -0.007 A 
HETATM   10  C11 UNL     1      26.666   2.176  52.516  1.00  0.00     0.014 A 
HETATM   11  C12 UNL     1      27.900   1.793  53.000  1.00  0.00     0.001 A 
HETATM   12  C13 UNL     1      28.181   0.466  53.250  1.00  0.00     0.000 A 
HETATM   13  C14 UNL     1      27.195  -0.465  53.004  1.00  0.00     0.001 A 
HETATM   14  C15 UNL     1      25.981  -0.040  52.523  1.00  0.00     0.014 A 
HETATM   15  C16 UNL     1      23.415   0.919  51.500  1.00  0.00     0.081 C 
HETATM   16  S1  UNL     1      21.777   1.240  50.879  1.00  0.00    -0.093 SA
HETATM   17  C17 UNL     1      20.901   2.501  51.799  1.00  0.00     0.150 C 
HETATM   18  C19 UNL     1      19.533   2.606  51.214  1.00  0.00     0.028 C 
HETATM   19  C20 UNL     1      19.859   3.146  50.043  1.00  0.00     0.013 C 
HETATM   20  C21 UNL     1      21.071   3.957  50.292  1.00  0.00    -0.009 C 
HETATM   21  C22 UNL     1      21.415   3.875  51.569  1.00  0.00     0.040 C 
HETATM   22  C23 UNL     1      21.890   4.769  49.401  1.00  0.00     0.080 C 
HETATM   23  N2  UNL     1      21.771   4.875  48.099  1.00  0.00    -0.177 NA
HETATM   24  N3  UNL     1      22.735   5.661  47.497  1.00  0.00    -0.281 N 
HETATM   25  H23 UNL     1      22.741   5.879  46.478  1.00  0.00     0.189 HD
ENDROOT
BRANCH  17  26
HETATM   26  O2  UNL     1      20.820   2.202  53.152  1.00  0.00    -0.367 OA
HETATM   27  C18 UNL     1      20.359   0.905  53.329  1.00  0.00     0.204 C 
ENDBRANCH  17  26
BRANCH   1  28
HETATM   28  C2  UNL     1      22.309   6.864  50.454  1.00  0.00     0.019 C 
HETATM   29  C1  UNL     1      22.247   7.985  49.510  1.00  0.00     0.006 C 
ENDBRANCH   1  28
BRANCH   4  30
HETATM   30  O1  UNL     1      26.478   5.392  50.125  1.00  0.00    -0.391 OA
HETATM   31  H8  UNL     1      26.402   4.817  49.312  1.00  0.00     0.210 HD
ENDBRANCH   4  30
TORSDOF 3
ENDMDL
