MODEL 1
REMARK VINA RESULT:      -7.4      0.000      0.000
REMARK  7 active torsions:
REMARK  status: ('A' for Active; 'I' for Inactive)
REMARK    1  A    between atoms: C2_2  and  C4_6 
REMARK    2  A    between atoms: N1_3  and  C3_4 
REMARK    3  A    between atoms: C4_6  and  C5_7 
REMARK    4  A    between atoms: C6_8  and  C7_9 
REMARK    5  A    between atoms: C10_12  and  C11_13 
REMARK    6  A    between atoms: C11_13  and  N3_14 
REMARK    7  A    between atoms: N4_19  and  C16_20 
ROOT
HETATM    1  C4  UNL     1      24.959   0.800  52.510  1.00  0.00     0.134 C 
HETATM    2  N4  UNL     1      23.736   0.715  52.836  1.00  0.00    -0.243 NA
ENDROOT
BRANCH   1   3
HETATM    3  C2  UNL     1      25.981  -0.144  52.933  1.00  0.00     0.069 C 
HETATM    4  C1  UNL     1      26.726   0.056  54.186  1.00  0.00     0.074 C 
HETATM    5  N1  UNL     1      26.275  -1.190  52.238  1.00  0.00    -0.245 NA
BRANCH   5   6
HETATM    6  C3  UNL     1      27.290  -2.037  52.757  1.00  0.00     0.223 C 
HETATM    7  N2  UNL     1      28.061  -3.066  52.828  1.00  0.00    -0.293 NA
HETATM    8  H5  UNL     1      28.751  -3.171  53.578  1.00  0.00     0.187 HD
ENDBRANCH   5   6
ENDBRANCH   1   3
BRANCH   1   9
HETATM    9  C5  UNL     1      25.319   1.901  51.675  1.00  0.00    -0.039 C 
HETATM   10  C6  UNL     1      25.644   2.848  50.969  1.00  0.00    -0.060 C 
BRANCH  10  11
HETATM   11  C7  UNL     1      26.040   3.956  50.160  1.00  0.00     0.018 A 
HETATM   12  C8  UNL     1      27.126   3.895  49.325  1.00  0.00     0.021 A 
HETATM   13  C9  UNL     1      27.458   4.998  48.567  1.00  0.00     0.010 A 
HETATM   14  C10 UNL     1      26.704   6.148  48.652  1.00  0.00    -0.030 A 
HETATM   15  C14 UNL     1      25.610   6.191  49.500  1.00  0.00     0.010 A 
HETATM   16  C15 UNL     1      25.250   5.107  50.271  1.00  0.00     0.021 A 
BRANCH  14  17
HETATM   17  C11 UNL     1      27.126   7.312  47.795  1.00  0.00     0.309 C 
BRANCH  17  18
HETATM   18  N3  UNL     1      27.654   8.301  48.712  1.00  0.00     0.084 N 
HETATM   19  C12 UNL     1      29.078   8.369  48.764  1.00  0.00     0.309 C 
HETATM   20  C13 UNL     1      27.004   9.569  48.608  1.00  0.00     0.309 C 
ENDBRANCH  17  18
ENDBRANCH  14  17
ENDBRANCH  10  11
ENDBRANCH   1   9
BRANCH   2  21
HETATM   21  C16 UNL     1      23.175  -0.304  53.657  1.00  0.00     0.032 A 
HETATM   22  C17 UNL     1      23.260  -0.975  54.750  1.00  0.00     0.001 A 
HETATM   23  C18 UNL     1      22.070  -1.764  54.473  1.00  0.00     0.035 A 
HETATM   24  C19 UNL     1      21.970  -0.991  53.216  1.00  0.00     0.063 A 
ENDBRANCH   2  21
TORSDOF 7
ENDMDL
MODEL 2
REMARK VINA RESULT:      -7.0      3.896      8.861
REMARK  7 active torsions:
REMARK  status: ('A' for Active; 'I' for Inactive)
REMARK    1  A    between atoms: C2_2  and  C4_6 
REMARK    2  A    between atoms: N1_3  and  C3_4 
REMARK    3  A    between atoms: C4_6  and  C5_7 
REMARK    4  A    between atoms: C6_8  and  C7_9 
REMARK    5  A    between atoms: C10_12  and  C11_13 
REMARK    6  A    between atoms: C11_13  and  N3_14 
REMARK    7  A    between atoms: N4_19  and  C16_20 
ROOT
HETATM    1  C4  UNL     1      24.132   0.531  53.057  1.00  0.00     0.134 C 
HETATM    2  N4  UNL     1      24.829  -0.355  53.639  1.00  0.00    -0.243 NA
ENDROOT
BRANCH   1   3
HETATM    3  C2  UNL     1      24.671   1.782  52.545  1.00  0.00     0.069 C 
HETATM    4  C1  UNL     1      24.550   3.030  53.315  1.00  0.00     0.074 C 
HETATM    5  N1  UNL     1      25.273   1.852  51.407  1.00  0.00    -0.245 NA
BRANCH   5   6
HETATM    6  C3  UNL     1      25.756   3.129  51.017  1.00  0.00     0.223 C 
HETATM    7  N2  UNL     1      26.473   3.987  50.379  1.00  0.00    -0.293 NA
HETATM    8  H5  UNL     1      26.373   4.995  50.534  1.00  0.00     0.187 HD
ENDBRANCH   5   6
ENDBRANCH   1   3
BRANCH   1   9
HETATM    9  C5  UNL     1      22.740   0.251  52.910  1.00  0.00    -0.039 C 
HETATM   10  C6  UNL     1      21.546   0.016  52.767  1.00  0.00    -0.060 C 
BRANCH  10  11
HETATM   11  C7  UNL     1      20.155  -0.248  52.578  1.00  0.00     0.018 A 
HETATM   12  C8  UNL     1      19.431  -0.995  53.472  1.00  0.00     0.021 A 
HETATM   13  C9  UNL     1      18.090  -1.214  53.236  1.00  0.00     0.010 A 
HETATM   14  C10 UNL     1      17.489  -0.687  52.114  1.00  0.00    -0.030 A 
HETATM   15  C14 UNL     1      18.237   0.065  51.224  1.00  0.00     0.010 A 
HETATM   16  C15 UNL     1      19.579   0.304  51.429  1.00  0.00     0.021 A 
BRANCH  14  17
HETATM   17  C11 UNL     1      16.022  -0.968  51.923  1.00  0.00     0.309 C 
BRANCH  17  18
HETATM   18  N3  UNL     1      15.421   0.305  51.583  1.00  0.00     0.084 N 
HETATM   19  C12 UNL     1      14.611   0.289  50.409  1.00  0.00     0.309 C 
HETATM   20  C13 UNL     1      14.828   0.965  52.702  1.00  0.00     0.309 C 
ENDBRANCH  17  18
ENDBRANCH  14  17
ENDBRANCH  10  11
ENDBRANCH   1   9
BRANCH   2  21
HETATM   21  C16 UNL     1      26.229  -0.269  53.882  1.00  0.00     0.032 A 
HETATM   22  C17 UNL     1      27.164   0.173  54.645  1.00  0.00     0.001 A 
HETATM   23  C18 UNL     1      28.229  -0.400  53.836  1.00  0.00     0.035 A 
HETATM   24  C19 UNL     1      27.153  -0.911  52.958  1.00  0.00     0.063 A 
ENDBRANCH   2  21
TORSDOF 7
ENDMDL
MODEL 3
REMARK VINA RESULT:      -6.8      4.655      9.548
REMARK  7 active torsions:
REMARK  status: ('A' for Active; 'I' for Inactive)
REMARK    1  A    between atoms: C2_2  and  C4_6 
REMARK    2  A    between atoms: N1_3  and  C3_4 
REMARK    3  A    between atoms: C4_6  and  C5_7 
REMARK    4  A    between atoms: C6_8  and  C7_9 
REMARK    5  A    between atoms: C10_12  and  C11_13 
REMARK    6  A    between atoms: C11_13  and  N3_14 
REMARK    7  A    between atoms: N4_19  and  C16_20 
ROOT
HETATM    1  C4  UNL     1      31.630   5.262  47.386  1.00  0.00     0.134 C 
HETATM    2  N4  UNL     1      32.011   4.149  46.909  1.00  0.00    -0.243 NA
ENDROOT
BRANCH   1   3
HETATM    3  C2  UNL     1      32.502   6.412  47.559  1.00  0.00     0.069 C 
HETATM    4  C1  UNL     1      32.495   7.522  46.592  1.00  0.00     0.074 C 
HETATM    5  N1  UNL     1      33.313   6.512  48.558  1.00  0.00    -0.245 NA
BRANCH   5   6
HETATM    6  C3  UNL     1      34.113   7.684  48.617  1.00  0.00     0.223 C 
HETATM    7  N2  UNL     1      35.186   8.394  48.610  1.00  0.00    -0.293 NA
HETATM    8  H5  UNL     1      35.160   9.413  48.716  1.00  0.00     0.187 HD
ENDBRANCH   5   6
ENDBRANCH   1   3
BRANCH   1   9
HETATM    9  C5  UNL     1      30.257   5.355  47.763  1.00  0.00    -0.039 C 
HETATM   10  C6  UNL     1      29.081   5.422  48.100  1.00  0.00    -0.060 C 
BRANCH  10  11
HETATM   11  C7  UNL     1      27.713   5.482  48.507  1.00  0.00     0.018 A 
HETATM   12  C8  UNL     1      26.965   6.624  48.374  1.00  0.00     0.021 A 
HETATM   13  C9  UNL     1      25.649   6.621  48.784  1.00  0.00     0.010 A 
HETATM   14  C10 UNL     1      25.094   5.479  49.321  1.00  0.00    -0.030 A 
HETATM   15  C14 UNL     1      25.865   4.336  49.446  1.00  0.00     0.010 A 
HETATM   16  C15 UNL     1      27.183   4.304  49.047  1.00  0.00     0.021 A 
BRANCH  14  17
HETATM   17  C11 UNL     1      23.652   5.550  49.746  1.00  0.00     0.309 C 
BRANCH  17  18
HETATM   18  N3  UNL     1      23.504   4.563  50.795  1.00  0.00     0.084 N 
HETATM   19  C12 UNL     1      23.481   5.094  52.118  1.00  0.00     0.309 C 
HETATM   20  C13 UNL     1      22.482   3.602  50.525  1.00  0.00     0.309 C 
ENDBRANCH  17  18
ENDBRANCH  14  17
ENDBRANCH  10  11
ENDBRANCH   1   9
BRANCH   2  21
HETATM   21  C16 UNL     1      33.333   3.852  46.475  1.00  0.00     0.032 A 
HETATM   22  C17 UNL     1      34.202   3.938  45.530  1.00  0.00     0.001 A 
HETATM   23  C18 UNL     1      35.234   3.245  46.285  1.00  0.00     0.035 A 
HETATM   24  C19 UNL     1      34.237   3.147  47.372  1.00  0.00     0.063 A 
ENDBRANCH   2  21
TORSDOF 7
ENDMDL
MODEL 4
REMARK VINA RESULT:      -6.7      2.104      2.733
REMARK  7 active torsions:
REMARK  status: ('A' for Active; 'I' for Inactive)
REMARK    1  A    between atoms: C2_2  and  C4_6 
REMARK    2  A    between atoms: N1_3  and  C3_4 
REMARK    3  A    between atoms: C4_6  and  C5_7 
REMARK    4  A    between atoms: C6_8  and  C7_9 
REMARK    5  A    between atoms: C10_12  and  C11_13 
REMARK    6  A    between atoms: C11_13  and  N3_14 
REMARK    7  A    between atoms: N4_19  and  C16_20 
ROOT
HETATM    1  C4  UNL     1      24.944   2.524  50.987  1.00  0.00     0.134 C 
HETATM    2  N4  UNL     1      23.701   2.424  50.749  1.00  0.00    -0.243 NA
ENDROOT
BRANCH   1   3
HETATM    3  C2  UNL     1      25.647   1.726  51.980  1.00  0.00     0.069 C 
HETATM    4  C1  UNL     1      26.316   0.469  51.607  1.00  0.00     0.074 C 
HETATM    5  N1  UNL     1      25.717   2.081  53.218  1.00  0.00    -0.245 NA
BRANCH   5   6
HETATM    6  C3  UNL     1      26.433   1.219  54.090  1.00  0.00     0.223 C 
HETATM    7  N2  UNL     1      26.820   0.711  55.208  1.00  0.00    -0.293 NA
HETATM    8  H5  UNL     1      27.500  -0.055  55.245  1.00  0.00     0.187 HD
ENDBRANCH   5   6
ENDBRANCH   1   3
BRANCH   1   9
HETATM    9  C5  UNL     1      25.664   3.485  50.216  1.00  0.00    -0.039 C 
HETATM   10  C6  UNL     1      26.291   4.315  49.570  1.00  0.00    -0.060 C 
BRANCH  10  11
HETATM   11  C7  UNL     1      27.031   5.291  48.836  1.00  0.00     0.018 A 
HETATM   12  C8  UNL     1      28.364   5.130  48.553  1.00  0.00     0.021 A 
HETATM   13  C9  UNL     1      29.025   6.107  47.839  1.00  0.00     0.010 A 
HETATM   14  C10 UNL     1      28.349   7.232  47.416  1.00  0.00    -0.030 A 
HETATM   15  C14 UNL     1      27.004   7.376  47.711  1.00  0.00     0.010 A 
HETATM   16  C15 UNL     1      26.313   6.419  48.422  1.00  0.00     0.021 A 
BRANCH  14  17
HETATM   17  C11 UNL     1      29.136   8.256  46.642  1.00  0.00     0.309 C 
BRANCH  17  18
HETATM   18  N3  UNL     1      29.191   9.429  47.488  1.00  0.00     0.084 N 
HETATM   19  C12 UNL     1      30.403   9.581  48.224  1.00  0.00     0.309 C 
HETATM   20  C13 UNL     1      28.743  10.618  46.834  1.00  0.00     0.309 C 
ENDBRANCH  17  18
ENDBRANCH  14  17
ENDBRANCH  10  11
ENDBRANCH   1   9
BRANCH   2  21
HETATM   21  C16 UNL     1      22.809   1.529  51.405  1.00  0.00     0.032 A 
HETATM   22  C17 UNL     1      22.421   1.020  52.520  1.00  0.00     0.001 A 
HETATM   23  C18 UNL     1      21.398   0.194  51.899  1.00  0.00     0.035 A 
HETATM   24  C19 UNL     1      21.843   0.780  50.616  1.00  0.00     0.063 A 
ENDBRANCH   2  21
TORSDOF 7
ENDMDL
MODEL 5
REMARK VINA RESULT:      -6.7      1.958      2.751
REMARK  7 active torsions:
REMARK  status: ('A' for Active; 'I' for Inactive)
REMARK    1  A    between atoms: C2_2  and  C4_6 
REMARK    2  A    between atoms: N1_3  and  C3_4 
REMARK    3  A    between atoms: C4_6  and  C5_7 
REMARK    4  A    between atoms: C6_8  and  C7_9 
REMARK    5  A    between atoms: C10_12  and  C11_13 
REMARK    6  A    between atoms: C11_13  and  N3_14 
REMARK    7  A    between atoms: N4_19  and  C16_20 
ROOT
HETATM    1  C4  UNL     1      24.237   2.484  50.898  1.00  0.00     0.134 C 
HETATM    2  N4  UNL     1      23.089   2.301  50.389  1.00  0.00    -0.243 NA
ENDROOT
BRANCH   1   3
HETATM    3  C2  UNL     1      24.698   1.836  52.116  1.00  0.00     0.069 C 
HETATM    4  C1  UNL     1      24.630   2.527  53.414  1.00  0.00     0.074 C 
HETATM    5  N1  UNL     1      25.180   0.640  52.114  1.00  0.00    -0.245 NA
BRANCH   5   6
HETATM    6  C3  UNL     1      25.596   0.116  53.367  1.00  0.00     0.223 C 
HETATM    7  N2  UNL     1      26.338  -0.520  54.204  1.00  0.00    -0.293 NA
HETATM    8  H5  UNL     1      26.097  -0.585  55.198  1.00  0.00     0.187 HD
ENDBRANCH   5   6
ENDBRANCH   1   3
BRANCH   1   9
HETATM    9  C5  UNL     1      25.104   3.383  50.206  1.00  0.00    -0.039 C 
HETATM   10  C6  UNL     1      25.847   4.166  49.628  1.00  0.00    -0.060 C 
BRANCH  10  11
HETATM   11  C7  UNL     1      26.709   5.095  48.969  1.00  0.00     0.018 A 
HETATM   12  C8  UNL     1      28.019   4.799  48.692  1.00  0.00     0.021 A 
HETATM   13  C9  UNL     1      28.802   5.737  48.053  1.00  0.00     0.010 A 
HETATM   14  C10 UNL     1      28.270   6.958  47.699  1.00  0.00    -0.030 A 
HETATM   15  C14 UNL     1      26.945   7.238  47.987  1.00  0.00     0.010 A 
HETATM   16  C15 UNL     1      26.134   6.324  48.624  1.00  0.00     0.021 A 
BRANCH  14  17
HETATM   17  C11 UNL     1      29.184   7.931  47.004  1.00  0.00     0.309 C 
BRANCH  17  18
HETATM   18  N3  UNL     1      30.312   8.112  47.895  1.00  0.00     0.084 N 
HETATM   19  C12 UNL     1      31.582   8.176  47.248  1.00  0.00     0.309 C 
HETATM   20  C13 UNL     1      30.097   9.126  48.877  1.00  0.00     0.309 C 
ENDBRANCH  17  18
ENDBRANCH  14  17
ENDBRANCH  10  11
ENDBRANCH   1   9
BRANCH   2  21
HETATM   21  C16 UNL     1      22.082   1.447  50.921  1.00  0.00     0.032 A 
HETATM   22  C17 UNL     1      21.572   0.268  50.944  1.00  0.00     0.001 A 
HETATM   23  C18 UNL     1      20.539   0.627  51.902  1.00  0.00     0.035 A 
HETATM   24  C19 UNL     1      21.126   1.985  51.878  1.00  0.00     0.063 A 
ENDBRANCH   2  21
TORSDOF 7
ENDMDL
MODEL 6
REMARK VINA RESULT:      -6.6      2.363      3.967
REMARK  7 active torsions:
REMARK  status: ('A' for Active; 'I' for Inactive)
REMARK    1  A    between atoms: C2_2  and  C4_6 
REMARK    2  A    between atoms: N1_3  and  C3_4 
REMARK    3  A    between atoms: C4_6  and  C5_7 
REMARK    4  A    between atoms: C6_8  and  C7_9 
REMARK    5  A    between atoms: C10_12  and  C11_13 
REMARK    6  A    between atoms: C11_13  and  N3_14 
REMARK    7  A    between atoms: N4_19  and  C16_20 
ROOT
HETATM    1  C4  UNL     1      22.964   1.716  51.435  1.00  0.00     0.134 C 
HETATM    2  N4  UNL     1      23.470   0.904  52.269  1.00  0.00    -0.243 NA
ENDROOT
BRANCH   1   3
HETATM    3  C2  UNL     1      21.548   1.763  51.104  1.00  0.00     0.069 C 
HETATM    4  C1  UNL     1      20.616   2.598  51.878  1.00  0.00     0.074 C 
HETATM    5  N1  UNL     1      21.052   1.083  50.127  1.00  0.00    -0.245 NA
BRANCH   5   6
HETATM    6  C3  UNL     1      19.655   1.213  49.903  1.00  0.00     0.223 C 
HETATM    7  N2  UNL     1      18.472   0.869  49.529  1.00  0.00    -0.293 NA
HETATM    8  H5  UNL     1      17.672   1.501  49.624  1.00  0.00     0.187 HD
ENDBRANCH   5   6
ENDBRANCH   1   3
BRANCH   1   9
HETATM    9  C5  UNL     1      23.866   2.624  50.804  1.00  0.00    -0.039 C 
HETATM   10  C6  UNL     1      24.626   3.414  50.256  1.00  0.00    -0.060 C 
BRANCH  10  11
HETATM   11  C7  UNL     1      25.493   4.345  49.609  1.00  0.00     0.018 A 
HETATM   12  C8  UNL     1      25.083   5.613  49.281  1.00  0.00     0.021 A 
HETATM   13  C9  UNL     1      25.967   6.468  48.658  1.00  0.00     0.010 A 
HETATM   14  C10 UNL     1      27.248   6.049  48.369  1.00  0.00    -0.030 A 
HETATM   15  C14 UNL     1      27.644   4.766  48.708  1.00  0.00     0.010 A 
HETATM   16  C15 UNL     1      26.786   3.886  49.332  1.00  0.00     0.021 A 
BRANCH  14  17
HETATM   17  C11 UNL     1      28.157   7.037  47.688  1.00  0.00     0.309 C 
BRANCH  17  18
HETATM   18  N3  UNL     1      29.019   7.558  48.729  1.00  0.00     0.084 N 
HETATM   19  C12 UNL     1      30.402   7.244  48.574  1.00  0.00     0.309 C 
HETATM   20  C13 UNL     1      28.755   8.925  49.048  1.00  0.00     0.309 C 
ENDBRANCH  17  18
ENDBRANCH  14  17
ENDBRANCH  10  11
ENDBRANCH   1   9
BRANCH   2  21
HETATM   21  C16 UNL     1      22.745  -0.077  53.003  1.00  0.00     0.032 A 
HETATM   22  C17 UNL     1      22.334  -1.294  53.061  1.00  0.00     0.001 A 
HETATM   23  C18 UNL     1      21.662  -1.109  54.337  1.00  0.00     0.035 A 
HETATM   24  C19 UNL     1      22.135   0.291  54.273  1.00  0.00     0.063 A 
ENDBRANCH   2  21
TORSDOF 7
ENDMDL
MODEL 7
REMARK VINA RESULT:      -6.6      4.599      9.487
REMARK  7 active torsions:
REMARK  status: ('A' for Active; 'I' for Inactive)
REMARK    1  A    between atoms: C2_2  and  C4_6 
REMARK    2  A    between atoms: N1_3  and  C3_4 
REMARK    3  A    between atoms: C4_6  and  C5_7 
REMARK    4  A    between atoms: C6_8  and  C7_9 
REMARK    5  A    between atoms: C10_12  and  C11_13 
REMARK    6  A    between atoms: C11_13  and  N3_14 
REMARK    7  A    between atoms: N4_19  and  C16_20 
ROOT
HETATM    1  C4  UNL     1      30.589   5.803  47.970  1.00  0.00     0.134 C 
HETATM    2  N4  UNL     1      31.420   4.855  48.115  1.00  0.00    -0.243 NA
ENDROOT
BRANCH   1   3
HETATM    3  C2  UNL     1      30.948   7.137  47.515  1.00  0.00     0.069 C 
HETATM    4  C1  UNL     1      30.977   7.466  46.081  1.00  0.00     0.074 C 
HETATM    5  N1  UNL     1      31.254   8.081  48.338  1.00  0.00    -0.245 NA
BRANCH   5   6
HETATM    6  C3  UNL     1      31.586   9.340  47.772  1.00  0.00     0.223 C 
HETATM    7  N2  UNL     1      31.908  10.587  47.746  1.00  0.00    -0.293 NA
HETATM    8  H5  UNL     1      32.049  11.089  46.864  1.00  0.00     0.187 HD
ENDBRANCH   5   6
ENDBRANCH   1   3
BRANCH   1   9
HETATM    9  C5  UNL     1      29.227   5.507  48.280  1.00  0.00    -0.039 C 
HETATM   10  C6  UNL     1      28.064   5.250  48.564  1.00  0.00    -0.060 C 
BRANCH  10  11
HETATM   11  C7  UNL     1      26.714   4.943  48.916  1.00  0.00     0.018 A 
HETATM   12  C8  UNL     1      25.693   5.838  48.728  1.00  0.00     0.021 A 
HETATM   13  C9  UNL     1      24.409   5.484  49.086  1.00  0.00     0.010 A 
HETATM   14  C10 UNL     1      24.161   4.241  49.629  1.00  0.00    -0.030 A 
HETATM   15  C14 UNL     1      25.205   3.350  49.810  1.00  0.00     0.010 A 
HETATM   16  C15 UNL     1      26.499   3.672  49.463  1.00  0.00     0.021 A 
BRANCH  14  17
HETATM   17  C11 UNL     1      22.735   3.924  49.996  1.00  0.00     0.309 C 
BRANCH  17  18
HETATM   18  N3  UNL     1      22.320   4.979  50.897  1.00  0.00     0.084 N 
HETATM   19  C12 UNL     1      21.009   5.489  50.658  1.00  0.00     0.309 C 
HETATM   20  C13 UNL     1      22.603   4.693  52.267  1.00  0.00     0.309 C 
ENDBRANCH  17  18
ENDBRANCH  14  17
ENDBRANCH  10  11
ENDBRANCH   1   9
BRANCH   2  21
HETATM   21  C16 UNL     1      32.818   4.944  47.859  1.00  0.00     0.032 A 
HETATM   22  C17 UNL     1      33.969   5.326  48.285  1.00  0.00     0.001 A 
HETATM   23  C18 UNL     1      34.672   4.857  47.102  1.00  0.00     0.035 A 
HETATM   24  C19 UNL     1      33.348   4.416  46.611  1.00  0.00     0.063 A 
ENDBRANCH   2  21
TORSDOF 7
ENDMDL
MODEL 8
REMARK VINA RESULT:      -6.5      2.077      4.087
REMARK  7 active torsions:
REMARK  status: ('A' for Active; 'I' for Inactive)
REMARK    1  A    between atoms: C2_2  and  C4_6 
REMARK    2  A    between atoms: N1_3  and  C3_4 
REMARK    3  A    between atoms: C4_6  and  C5_7 
REMARK    4  A    between atoms: C6_8  and  C7_9 
REMARK    5  A    between atoms: C10_12  and  C11_13 
REMARK    6  A    between atoms: C11_13  and  N3_14 
REMARK    7  A    between atoms: N4_19  and  C16_20 
ROOT
HETATM    1  C4  UNL     1      24.860   2.709  51.165  1.00  0.00     0.134 C 
HETATM    2  N4  UNL     1      25.618   1.902  51.786  1.00  0.00    -0.243 NA
ENDROOT
BRANCH   1   3
HETATM    3  C2  UNL     1      23.408   2.670  51.226  1.00  0.00     0.069 C 
HETATM    4  C1  UNL     1      22.634   1.788  50.338  1.00  0.00     0.074 C 
HETATM    5  N1  UNL     1      22.739   3.399  52.055  1.00  0.00    -0.245 NA
BRANCH   5   6
HETATM    6  C3  UNL     1      21.325   3.271  52.020  1.00  0.00     0.223 C 
HETATM    7  N2  UNL     1      20.119   3.262  52.471  1.00  0.00    -0.293 NA
HETATM    8  H5  UNL     1      19.318   3.067  51.862  1.00  0.00     0.187 HD
ENDBRANCH   5   6
ENDBRANCH   1   3
BRANCH   1   9
HETATM    9  C5  UNL     1      25.506   3.702  50.369  1.00  0.00    -0.039 C 
HETATM   10  C6  UNL     1      26.075   4.543  49.683  1.00  0.00    -0.060 C 
BRANCH  10  11
HETATM   11  C7  UNL     1      26.757   5.510  48.883  1.00  0.00     0.018 A 
HETATM   12  C8  UNL     1      26.131   6.637  48.416  1.00  0.00     0.021 A 
HETATM   13  C9  UNL     1      26.842   7.536  47.649  1.00  0.00     0.010 A 
HETATM   14  C10 UNL     1      28.168   7.298  47.357  1.00  0.00    -0.030 A 
HETATM   15  C14 UNL     1      28.783   6.155  47.838  1.00  0.00     0.010 A 
HETATM   16  C15 UNL     1      28.101   5.237  48.608  1.00  0.00     0.021 A 
BRANCH  14  17
HETATM   17  C11 UNL     1      28.881   8.322  46.514  1.00  0.00     0.309 C 
BRANCH  17  18
HETATM   18  N3  UNL     1      28.874   9.543  47.294  1.00  0.00     0.084 N 
HETATM   19  C12 UNL     1      29.961   9.674  48.209  1.00  0.00     0.309 C 
HETATM   20  C13 UNL     1      28.614  10.710  46.512  1.00  0.00     0.309 C 
ENDBRANCH  17  18
ENDBRANCH  14  17
ENDBRANCH  10  11
ENDBRANCH   1   9
BRANCH   2  21
HETATM   21  C16 UNL     1      25.174   0.845  52.630  1.00  0.00     0.032 A 
HETATM   22  C17 UNL     1      24.268   0.418  53.436  1.00  0.00     0.001 A 
HETATM   23  C18 UNL     1      24.939  -0.850  53.673  1.00  0.00     0.035 A 
HETATM   24  C19 UNL     1      25.981  -0.361  52.745  1.00  0.00     0.063 A 
ENDBRANCH   2  21
TORSDOF 7
ENDMDL
MODEL 9
REMARK VINA RESULT:      -6.2      4.992      8.035
REMARK  7 active torsions:
REMARK  status: ('A' for Active; 'I' for Inactive)
REMARK    1  A    between atoms: C2_2  and  C4_6 
REMARK    2  A    between atoms: N1_3  and  C3_4 
REMARK    3  A    between atoms: C4_6  and  C5_7 
REMARK    4  A    between atoms: C6_8  and  C7_9 
REMARK    5  A    between atoms: C10_12  and  C11_13 
REMARK    6  A    between atoms: C11_13  and  N3_14 
REMARK    7  A    between atoms: N4_19  and  C16_20 
ROOT
HETATM    1  C4  UNL     1      19.563   0.716  51.520  1.00  0.00     0.134 C 
HETATM    2  N4  UNL     1      18.773  -0.247  51.763  1.00  0.00    -0.243 NA
ENDROOT
BRANCH   1   3
HETATM    3  C2  UNL     1      19.197   1.890  50.744  1.00  0.00     0.069 C 
HETATM    4  C1  UNL     1      19.528   1.987  49.313  1.00  0.00     0.074 C 
HETATM    5  N1  UNL     1      18.573   2.889  51.269  1.00  0.00    -0.245 NA
BRANCH   5   6
HETATM    6  C3  UNL     1      18.270   3.977  50.408  1.00  0.00     0.223 C 
HETATM    7  N2  UNL     1      17.924   5.172  50.076  1.00  0.00    -0.293 NA
HETATM    8  H5  UNL     1      17.860   5.462  49.095  1.00  0.00     0.187 HD
ENDBRANCH   5   6
ENDBRANCH   1   3
BRANCH   1   9
HETATM    9  C5  UNL     1      20.881   0.608  52.057  1.00  0.00    -0.039 C 
HETATM   10  C6  UNL     1      22.005   0.517  52.535  1.00  0.00    -0.060 C 
BRANCH  10  11
HETATM   11  C7  UNL     1      23.307   0.415  53.113  1.00  0.00     0.018 A 
HETATM   12  C8  UNL     1      23.670  -0.646  53.903  1.00  0.00     0.021 A 
HETATM   13  C9  UNL     1      24.943  -0.690  54.432  1.00  0.00     0.010 A 
HETATM   14  C10 UNL     1      25.837   0.325  54.168  1.00  0.00    -0.030 A 
HETATM   15  C14 UNL     1      25.452   1.388  53.368  1.00  0.00     0.010 A 
HETATM   16  C15 UNL     1      24.189   1.462  52.823  1.00  0.00     0.021 A 
BRANCH  14  17
HETATM   17  C11 UNL     1      27.208   0.210  54.780  1.00  0.00     0.309 C 
BRANCH  17  18
HETATM   18  N3  UNL     1      28.136   0.247  53.669  1.00  0.00     0.084 N 
HETATM   19  C12 UNL     1      29.103   1.294  53.732  1.00  0.00     0.309 C 
HETATM   20  C13 UNL     1      28.672  -1.035  53.341  1.00  0.00     0.309 C 
ENDBRANCH  17  18
ENDBRANCH  14  17
ENDBRANCH  10  11
ENDBRANCH   1   9
BRANCH   2  21
HETATM   21  C16 UNL     1      17.423  -0.332  51.321  1.00  0.00     0.032 A 
HETATM   22  C17 UNL     1      16.622  -0.465  50.324  1.00  0.00     0.001 A 
HETATM   23  C18 UNL     1      15.426  -0.404  51.151  1.00  0.00     0.035 A 
HETATM   24  C19 UNL     1      16.347  -0.252  52.298  1.00  0.00     0.063 A 
ENDBRANCH   2  21
TORSDOF 7
ENDMDL
