MODEL 1
REMARK VINA RESULT:      -7.7      0.000      0.000
REMARK  3 active torsions:
REMARK  status: ('A' for Active; 'I' for Inactive)
REMARK       I    between atoms: C1_2  and  N1_3 
REMARK    1  A    between atoms: C1_2  and  C8_14 
REMARK    2  A    between atoms: N1_3  and  S1_4 
REMARK    3  A    between atoms: S1_4  and  C2_7 
ROOT
HETATM    1  O1  UNL     1      23.884  -1.247  55.432  1.00  0.00    -0.267 OA
HETATM    2  C1  UNL     1      24.168  -0.705  54.332  1.00  0.00     0.264 C 
HETATM    3  N1  UNL     1      23.108  -0.320  53.470  1.00  0.00    -0.246 N 
HETATM    4  H1  UNL     1      23.334   0.128  52.562  1.00  0.00     0.182 HD
ENDROOT
BRANCH   3   5
HETATM    5  S1  UNL     1      21.561  -0.711  54.174  1.00  0.00     0.265 S 
HETATM    6  O2  UNL     1      21.554  -2.108  54.719  1.00  0.00    -0.200 OA
HETATM    7  O3  UNL     1      21.384   0.220  55.339  1.00  0.00    -0.200 OA
BRANCH   5   8
HETATM    8  C2  UNL     1      20.322  -0.420  53.005  1.00  0.00     0.080 A 
HETATM    9  C3  UNL     1      19.047  -0.925  53.263  1.00  0.00     0.027 A 
HETATM   10  C4  UNL     1      17.953  -0.774  52.425  1.00  0.00     0.025 A 
HETATM   11  C5  UNL     1      18.160  -0.064  51.240  1.00  0.00     0.034 A 
HETATM   12 CL1  UNL     1      16.776   0.127  50.178  1.00  0.00    -0.084 Cl
HETATM   13  C6  UNL     1      19.410   0.458  50.937  1.00  0.00     0.025 A 
HETATM   14  C7  UNL     1      20.456   0.271  51.818  1.00  0.00     0.027 A 
ENDBRANCH   5   8
ENDBRANCH   3   5
BRANCH   2  15
HETATM   15  C8  UNL     1      25.578  -0.504  54.011  1.00  0.00     0.050 C 
HETATM   16  C9  UNL     1      26.068  -1.205  52.999  1.00  0.00     0.018 C 
HETATM   17  C10 UNL     1      27.500  -0.958  52.722  1.00  0.00     0.034 C 
HETATM   18  C11 UNL     1      28.293  -0.516  53.680  1.00  0.00     0.081 C 
HETATM   19  N2  UNL     1      27.769  -0.143  54.782  1.00  0.00    -0.262 NA
HETATM   20  C12 UNL     1      26.421   0.445  54.788  1.00  0.00     0.243 C 
HETATM   21 CL2  UNL     1      26.606   2.009  53.926  1.00  0.00    -0.095 Cl
ENDBRANCH   2  15
TORSDOF 3
ENDMDL
MODEL 2
REMARK VINA RESULT:      -7.6      6.478      8.130
REMARK  3 active torsions:
REMARK  status: ('A' for Active; 'I' for Inactive)
REMARK       I    between atoms: C1_2  and  N1_3 
REMARK    1  A    between atoms: C1_2  and  C8_14 
REMARK    2  A    between atoms: N1_3  and  S1_4 
REMARK    3  A    between atoms: S1_4  and  C2_7 
ROOT
HETATM    1  O1  UNL     1      24.759   2.243  51.204  1.00  0.00    -0.267 OA
HETATM    2  C1  UNL     1      25.961   2.455  51.514  1.00  0.00     0.264 C 
HETATM    3  N1  UNL     1      26.640   3.541  50.902  1.00  0.00    -0.246 N 
HETATM    4  H1  UNL     1      27.630   3.722  51.152  1.00  0.00     0.182 HD
ENDROOT
BRANCH   3   5
HETATM    5  S1  UNL     1      25.590   4.384  49.792  1.00  0.00     0.265 S 
HETATM    6  O2  UNL     1      24.826   3.421  48.935  1.00  0.00    -0.200 OA
HETATM    7  O3  UNL     1      24.588   5.116  50.639  1.00  0.00    -0.200 OA
BRANCH   5   8
HETATM    8  C2  UNL     1      26.527   5.522  48.889  1.00  0.00     0.080 A 
HETATM    9  C3  UNL     1      27.866   5.216  48.640  1.00  0.00     0.027 A 
HETATM   10  C4  UNL     1      28.742   6.024  47.933  1.00  0.00     0.025 A 
HETATM   11  C5  UNL     1      28.232   7.228  47.442  1.00  0.00     0.034 A 
HETATM   12 CL1  UNL     1      29.341   8.252  46.547  1.00  0.00    -0.084 Cl
HETATM   13  C6  UNL     1      26.907   7.579  47.663  1.00  0.00     0.025 A 
HETATM   14  C7  UNL     1      26.089   6.725  48.376  1.00  0.00     0.027 A 
ENDBRANCH   5   8
ENDBRANCH   3   5
BRANCH   2  15
HETATM   15  C8  UNL     1      26.584   1.565  52.490  1.00  0.00     0.050 C 
HETATM   16  C9  UNL     1      26.698   0.289  52.150  1.00  0.00     0.018 C 
HETATM   17  C10 UNL     1      27.336  -0.561  53.178  1.00  0.00     0.034 C 
HETATM   18  C11 UNL     1      27.301  -0.204  54.448  1.00  0.00     0.081 C 
HETATM   19  N2  UNL     1      26.867   0.959  54.743  1.00  0.00    -0.262 NA
HETATM   20  C12 UNL     1      27.066   2.073  53.803  1.00  0.00     0.243 C 
HETATM   21 CL2  UNL     1      28.841   2.340  53.786  1.00  0.00    -0.095 Cl
ENDBRANCH   2  15
TORSDOF 3
ENDMDL
MODEL 3
REMARK VINA RESULT:      -7.6      5.743      7.121
REMARK  3 active torsions:
REMARK  status: ('A' for Active; 'I' for Inactive)
REMARK       I    between atoms: C1_2  and  N1_3 
REMARK    1  A    between atoms: C1_2  and  C8_14 
REMARK    2  A    between atoms: N1_3  and  S1_4 
REMARK    3  A    between atoms: S1_4  and  C2_7 
ROOT
HETATM    1  O1  UNL     1      26.291   1.433  50.956  1.00  0.00    -0.267 OA
HETATM    2  C1  UNL     1      26.387   1.910  52.117  1.00  0.00     0.264 C 
HETATM    3  N1  UNL     1      25.659   3.087  52.432  1.00  0.00    -0.246 N 
HETATM    4  H1  UNL     1      25.733   3.486  53.386  1.00  0.00     0.182 HD
ENDROOT
BRANCH   3   5
HETATM    5  S1  UNL     1      24.744   3.639  51.053  1.00  0.00     0.265 S 
HETATM    6  O2  UNL     1      24.076   2.493  50.355  1.00  0.00    -0.200 OA
HETATM    7  O3  UNL     1      23.657   4.520  51.599  1.00  0.00    -0.200 OA
BRANCH   5   8
HETATM    8  C2  UNL     1      25.780   4.565  50.025  1.00  0.00     0.080 A 
HETATM    9  C3  UNL     1      25.480   5.916  49.839  1.00  0.00     0.027 A 
HETATM   10  C4  UNL     1      26.213   6.786  49.049  1.00  0.00     0.025 A 
HETATM   11  C5  UNL     1      27.329   6.257  48.396  1.00  0.00     0.034 A 
HETATM   12 CL1  UNL     1      28.257   7.358  47.394  1.00  0.00    -0.084 Cl
HETATM   13  C6  UNL     1      27.670   4.920  48.547  1.00  0.00     0.025 A 
HETATM   14  C7  UNL     1      26.894   4.109  49.353  1.00  0.00     0.027 A 
ENDBRANCH   5   8
ENDBRANCH   3   5
BRANCH   2  15
HETATM   15  C8  UNL     1      27.245   1.216  53.074  1.00  0.00     0.050 C 
HETATM   16  C9  UNL     1      28.353   1.840  53.447  1.00  0.00     0.018 C 
HETATM   17  C10 UNL     1      29.180   1.089  54.416  1.00  0.00     0.034 C 
HETATM   18  C11 UNL     1      29.095  -0.227  54.478  1.00  0.00     0.081 C 
HETATM   19  N2  UNL     1      28.172  -0.811  53.819  1.00  0.00    -0.262 NA
HETATM   20  C12 UNL     1      26.887  -0.129  53.601  1.00  0.00     0.243 C 
HETATM   21 CL2  UNL     1      26.152  -0.013  55.235  1.00  0.00    -0.095 Cl
ENDBRANCH   2  15
TORSDOF 3
ENDMDL
MODEL 4
REMARK VINA RESULT:      -7.4      2.623      2.854
REMARK  3 active torsions:
REMARK  status: ('A' for Active; 'I' for Inactive)
REMARK       I    between atoms: C1_2  and  N1_3 
REMARK    1  A    between atoms: C1_2  and  C8_14 
REMARK    2  A    between atoms: N1_3  and  S1_4 
REMARK    3  A    between atoms: S1_4  and  C2_7 
ROOT
HETATM    1  O1  UNL     1      25.331   2.495  51.883  1.00  0.00    -0.267 OA
HETATM    2  C1  UNL     1      25.308   1.409  52.520  1.00  0.00     0.264 C 
HETATM    3  N1  UNL     1      24.067   0.741  52.680  1.00  0.00    -0.246 N 
HETATM    4  H1  UNL     1      24.040  -0.155  53.203  1.00  0.00     0.182 HD
ENDROOT
BRANCH   3   5
HETATM    5  S1  UNL     1      22.778   1.631  51.913  1.00  0.00     0.265 S 
HETATM    6  O2  UNL     1      22.767   3.061  52.363  1.00  0.00    -0.200 OA
HETATM    7  O3  UNL     1      23.087   1.632  50.443  1.00  0.00    -0.200 OA
BRANCH   5   8
HETATM    8  C2  UNL     1      21.283   0.808  52.191  1.00  0.00     0.080 A 
HETATM    9  C3  UNL     1      21.135   0.108  53.389  1.00  0.00     0.027 A 
HETATM   10  C4  UNL     1      20.001  -0.599  53.756  1.00  0.00     0.025 A 
HETATM   11  C5  UNL     1      18.939  -0.602  52.848  1.00  0.00     0.034 A 
HETATM   12 CL1  UNL     1      17.503  -1.497  53.311  1.00  0.00    -0.084 Cl
HETATM   13  C6  UNL     1      19.037   0.078  51.642  1.00  0.00     0.025 A 
HETATM   14  C7  UNL     1      20.198   0.763  51.341  1.00  0.00     0.027 A 
ENDBRANCH   5   8
ENDBRANCH   3   5
BRANCH   2  15
HETATM   15  C8  UNL     1      26.569   0.902  53.055  1.00  0.00     0.050 C 
HETATM   16  C9  UNL     1      27.018  -0.238  52.552  1.00  0.00     0.018 C 
HETATM   17  C10 UNL     1      28.298  -0.699  53.134  1.00  0.00     0.034 C 
HETATM   18  C11 UNL     1      28.651  -0.313  54.345  1.00  0.00     0.081 C 
HETATM   19  N2  UNL     1      27.963   0.593  54.922  1.00  0.00    -0.262 NA
HETATM   20  C12 UNL     1      27.308   1.636  54.118  1.00  0.00     0.243 C 
HETATM   21 CL2  UNL     1      28.662   2.592  53.427  1.00  0.00    -0.095 Cl
ENDBRANCH   2  15
TORSDOF 3
ENDMDL
MODEL 5
REMARK VINA RESULT:      -7.3      6.110      8.077
REMARK  3 active torsions:
REMARK  status: ('A' for Active; 'I' for Inactive)
REMARK       I    between atoms: C1_2  and  N1_3 
REMARK    1  A    between atoms: C1_2  and  C8_14 
REMARK    2  A    between atoms: N1_3  and  S1_4 
REMARK    3  A    between atoms: S1_4  and  C2_7 
ROOT
HETATM    1  O1  UNL     1      25.944   3.086  49.425  1.00  0.00    -0.267 OA
HETATM    2  C1  UNL     1      25.875   4.212  49.983  1.00  0.00     0.264 C 
HETATM    3  N1  UNL     1      25.217   4.312  51.236  1.00  0.00    -0.246 N 
HETATM    4  H1  UNL     1      25.157   5.237  51.702  1.00  0.00     0.182 HD
ENDROOT
BRANCH   3   5
HETATM    5  S1  UNL     1      24.616   2.756  51.748  1.00  0.00     0.265 S 
HETATM    6  O2  UNL     1      23.555   2.906  52.797  1.00  0.00    -0.200 OA
HETATM    7  O3  UNL     1      23.963   2.143  50.542  1.00  0.00    -0.200 OA
BRANCH   5   8
HETATM    8  C2  UNL     1      25.948   1.776  52.248  1.00  0.00     0.080 A 
HETATM    9  C3  UNL     1      25.800   0.389  52.185  1.00  0.00     0.027 A 
HETATM   10  C4  UNL     1      26.775  -0.526  52.549  1.00  0.00     0.025 A 
HETATM   11  C5  UNL     1      27.986  -0.007  53.012  1.00  0.00     0.034 A 
HETATM   12 CL1  UNL     1      29.221  -1.166  53.473  1.00  0.00    -0.084 Cl
HETATM   13  C6  UNL     1      28.183   1.364  53.094  1.00  0.00     0.025 A 
HETATM   14  C7  UNL     1      27.168   2.220  52.714  1.00  0.00     0.027 A 
ENDBRANCH   5   8
ENDBRANCH   3   5
BRANCH   2  15
HETATM   15  C8  UNL     1      26.482   5.353  49.301  1.00  0.00     0.050 C 
HETATM   16  C9  UNL     1      27.615   5.129  48.653  1.00  0.00     0.018 C 
HETATM   17  C10 UNL     1      28.181   6.320  47.983  1.00  0.00     0.034 C 
HETATM   18  C11 UNL     1      27.883   7.529  48.421  1.00  0.00     0.081 C 
HETATM   19  N2  UNL     1      26.974   7.651  49.307  1.00  0.00    -0.262 NA
HETATM   20  C12 UNL     1      25.852   6.700  49.338  1.00  0.00     0.243 C 
HETATM   21 CL2  UNL     1      24.937   7.032  47.829  1.00  0.00    -0.095 Cl
ENDBRANCH   2  15
TORSDOF 3
ENDMDL
MODEL 6
REMARK VINA RESULT:      -7.3      5.902      7.653
REMARK  3 active torsions:
REMARK  status: ('A' for Active; 'I' for Inactive)
REMARK       I    between atoms: C1_2  and  N1_3 
REMARK    1  A    between atoms: C1_2  and  C8_14 
REMARK    2  A    between atoms: N1_3  and  S1_4 
REMARK    3  A    between atoms: S1_4  and  C2_7 
ROOT
HETATM    1  O1  UNL     1      23.937   2.392  50.371  1.00  0.00    -0.267 OA
HETATM    2  C1  UNL     1      24.364   2.560  51.543  1.00  0.00     0.264 C 
HETATM    3  N1  UNL     1      24.595   3.884  51.999  1.00  0.00    -0.246 N 
HETATM    4  H1  UNL     1      24.947   4.031  52.964  1.00  0.00     0.182 HD
ENDROOT
BRANCH   3   5
HETATM    5  S1  UNL     1      24.213   5.046  50.755  1.00  0.00     0.265 S 
HETATM    6  O2  UNL     1      23.055   4.584  49.923  1.00  0.00    -0.200 OA
HETATM    7  O3  UNL     1      23.777   6.294  51.468  1.00  0.00    -0.200 OA
BRANCH   5   8
HETATM    8  C2  UNL     1      25.639   5.373  49.834  1.00  0.00     0.080 A 
HETATM    9  C3  UNL     1      25.927   6.703  49.525  1.00  0.00     0.027 A 
HETATM   10  C4  UNL     1      27.029   7.123  48.797  1.00  0.00     0.025 A 
HETATM   11  C5  UNL     1      27.904   6.130  48.347  1.00  0.00     0.034 A 
HETATM   12 CL1  UNL     1      29.299   6.661  47.425  1.00  0.00    -0.084 Cl
HETATM   13  C6  UNL     1      27.661   4.793  48.628  1.00  0.00     0.025 A 
HETATM   14  C7  UNL     1      26.543   4.445  49.360  1.00  0.00     0.027 A 
ENDBRANCH   5   8
ENDBRANCH   3   5
BRANCH   2  15
HETATM   15  C8  UNL     1      24.595   1.376  52.365  1.00  0.00     0.050 C 
HETATM   16  C9  UNL     1      23.537   0.634  52.658  1.00  0.00     0.018 C 
HETATM   17  C10 UNL     1      23.834  -0.551  53.492  1.00  0.00     0.034 C 
HETATM   18  C11 UNL     1      24.899  -0.561  54.271  1.00  0.00     0.081 C 
HETATM   19  N2  UNL     1      25.748   0.384  54.157  1.00  0.00    -0.262 NA
HETATM   20  C12 UNL     1      25.958   1.024  52.849  1.00  0.00     0.243 C 
HETATM   21 CL2  UNL     1      26.699  -0.256  51.832  1.00  0.00    -0.095 Cl
ENDBRANCH   2  15
TORSDOF 3
ENDMDL
MODEL 7
REMARK VINA RESULT:      -7.1      5.157      5.786
REMARK  3 active torsions:
REMARK  status: ('A' for Active; 'I' for Inactive)
REMARK       I    between atoms: C1_2  and  N1_3 
REMARK    1  A    between atoms: C1_2  and  C8_14 
REMARK    2  A    between atoms: N1_3  and  S1_4 
REMARK    3  A    between atoms: S1_4  and  C2_7 
ROOT
HETATM    1  O1  UNL     1      25.805   1.794  50.457  1.00  0.00    -0.267 OA
HETATM    2  C1  UNL     1      25.946   2.910  51.021  1.00  0.00     0.264 C 
HETATM    3  N1  UNL     1      26.024   2.950  52.438  1.00  0.00    -0.246 N 
HETATM    4  H1  UNL     1      26.140   3.866  52.911  1.00  0.00     0.182 HD
ENDROOT
BRANCH   3   5
HETATM    5  S1  UNL     1      25.897   1.347  53.114  1.00  0.00     0.265 S 
HETATM    6  O2  UNL     1      26.762   0.376  52.367  1.00  0.00    -0.200 OA
HETATM    7  O3  UNL     1      26.440   1.438  54.511  1.00  0.00    -0.200 OA
BRANCH   5   8
HETATM    8  C2  UNL     1      24.231   0.890  53.167  1.00  0.00     0.080 A 
HETATM    9  C3  UNL     1      23.922  -0.408  53.576  1.00  0.00     0.027 A 
HETATM   10  C4  UNL     1      22.638  -0.921  53.670  1.00  0.00     0.025 A 
HETATM   11  C5  UNL     1      21.589  -0.065  53.325  1.00  0.00     0.034 A 
HETATM   12 CL1  UNL     1      19.964  -0.714  53.444  1.00  0.00    -0.084 Cl
HETATM   13  C6  UNL     1      21.845   1.235  52.911  1.00  0.00     0.025 A 
HETATM   14  C7  UNL     1      23.150   1.682  52.841  1.00  0.00     0.027 A 
ENDBRANCH   5   8
ENDBRANCH   3   5
BRANCH   2  15
HETATM   15  C8  UNL     1      26.022   4.100  50.178  1.00  0.00     0.050 C 
HETATM   16  C9  UNL     1      27.065   4.194  49.367  1.00  0.00     0.018 C 
HETATM   17  C10 UNL     1      27.087   5.419  48.539  1.00  0.00     0.034 C 
HETATM   18  C11 UNL     1      26.449   6.502  48.944  1.00  0.00     0.081 C 
HETATM   19  N2  UNL     1      25.680   6.414  49.958  1.00  0.00    -0.262 NA
HETATM   20  C12 UNL     1      24.973   5.155  50.233  1.00  0.00     0.243 C 
HETATM   21 CL2  UNL     1      23.808   4.984  48.878  1.00  0.00    -0.095 Cl
ENDBRANCH   2  15
TORSDOF 3
ENDMDL
MODEL 8
REMARK VINA RESULT:      -7.0      3.215      3.649
REMARK  3 active torsions:
REMARK  status: ('A' for Active; 'I' for Inactive)
REMARK       I    between atoms: C1_2  and  N1_3 
REMARK    1  A    between atoms: C1_2  and  C8_14 
REMARK    2  A    between atoms: N1_3  and  S1_4 
REMARK    3  A    between atoms: S1_4  and  C2_7 
ROOT
HETATM    1  O1  UNL     1      24.111   2.264  53.426  1.00  0.00    -0.267 OA
HETATM    2  C1  UNL     1      25.072   2.178  52.618  1.00  0.00     0.264 C 
HETATM    3  N1  UNL     1      24.975   2.850  51.371  1.00  0.00    -0.246 N 
HETATM    4  H1  UNL     1      25.764   2.783  50.700  1.00  0.00     0.182 HD
ENDROOT
BRANCH   3   5
HETATM    5  S1  UNL     1      23.454   3.692  51.236  1.00  0.00     0.265 S 
HETATM    6  O2  UNL     1      23.332   4.759  52.282  1.00  0.00    -0.200 OA
HETATM    7  O3  UNL     1      23.476   4.382  49.901  1.00  0.00    -0.200 OA
BRANCH   5   8
HETATM    8  C2  UNL     1      22.168   2.539  51.271  1.00  0.00     0.080 A 
HETATM    9  C3  UNL     1      21.046   2.833  52.049  1.00  0.00     0.027 A 
HETATM   10  C4  UNL     1      19.938   2.011  52.178  1.00  0.00     0.025 A 
HETATM   11  C5  UNL     1      19.961   0.805  51.475  1.00  0.00     0.034 A 
HETATM   12 CL1  UNL     1      18.559  -0.237  51.638  1.00  0.00    -0.084 Cl
HETATM   13  C6  UNL     1      21.054   0.465  50.688  1.00  0.00     0.025 A 
HETATM   14  C7  UNL     1      22.125   1.332  50.604  1.00  0.00     0.027 A 
ENDBRANCH   5   8
ENDBRANCH   3   5
BRANCH   2  15
HETATM   15  C8  UNL     1      26.233   1.387  53.016  1.00  0.00     0.050 C 
HETATM   16  C9  UNL     1      26.405   0.225  52.404  1.00  0.00     0.018 C 
HETATM   17  C10 UNL     1      27.597  -0.530  52.849  1.00  0.00     0.034 C 
HETATM   18  C11 UNL     1      28.100  -0.322  54.052  1.00  0.00     0.081 C 
HETATM   19  N2  UNL     1      27.652   0.654  54.741  1.00  0.00    -0.262 NA
HETATM   20  C12 UNL     1      27.175   1.869  54.063  1.00  0.00     0.243 C 
HETATM   21 CL2  UNL     1      28.649   2.587  53.331  1.00  0.00    -0.095 Cl
ENDBRANCH   2  15
TORSDOF 3
ENDMDL
MODEL 9
REMARK VINA RESULT:      -6.7     10.078     11.474
REMARK  3 active torsions:
REMARK  status: ('A' for Active; 'I' for Inactive)
REMARK       I    between atoms: C1_2  and  N1_3 
REMARK    1  A    between atoms: C1_2  and  C8_14 
REMARK    2  A    between atoms: N1_3  and  S1_4 
REMARK    3  A    between atoms: S1_4  and  C2_7 
ROOT
HETATM    1  O1  UNL     1      31.616   5.938  49.091  1.00  0.00    -0.267 OA
HETATM    2  C1  UNL     1      31.765   5.754  47.855  1.00  0.00     0.264 C 
HETATM    3  N1  UNL     1      30.931   6.469  46.956  1.00  0.00    -0.246 N 
HETATM    4  H1  UNL     1      31.049   6.323  45.935  1.00  0.00     0.182 HD
ENDROOT
BRANCH   3   5
HETATM    5  S1  UNL     1      29.822   7.499  47.822  1.00  0.00     0.265 S 
HETATM    6  O2  UNL     1      30.498   8.166  48.981  1.00  0.00    -0.200 OA
HETATM    7  O3  UNL     1      29.420   8.581  46.861  1.00  0.00    -0.200 OA
BRANCH   5   8
HETATM    8  C2  UNL     1      28.431   6.576  48.270  1.00  0.00     0.080 A 
HETATM    9  C3  UNL     1      27.224   7.254  48.447  1.00  0.00     0.027 A 
HETATM   10  C4  UNL     1      26.027   6.656  48.805  1.00  0.00     0.025 A 
HETATM   11  C5  UNL     1      26.047   5.273  48.999  1.00  0.00     0.034 A 
HETATM   12 CL1  UNL     1      24.532   4.513  49.453  1.00  0.00    -0.084 Cl
HETATM   13  C6  UNL     1      27.222   4.552  48.837  1.00  0.00     0.025 A 
HETATM   14  C7  UNL     1      28.380   5.213  48.478  1.00  0.00     0.027 A 
ENDBRANCH   5   8
ENDBRANCH   3   5
BRANCH   2  15
HETATM   15  C8  UNL     1      32.794   4.813  47.421  1.00  0.00     0.050 C 
HETATM   16  C9  UNL     1      33.864   4.697  48.194  1.00  0.00     0.018 C 
HETATM   17  C10 UNL     1      34.869   3.729  47.703  1.00  0.00     0.034 C 
HETATM   18  C11 UNL     1      34.932   3.435  46.418  1.00  0.00     0.081 C 
HETATM   19  N2  UNL     1      34.008   3.861  45.648  1.00  0.00    -0.262 NA
HETATM   20  C12 UNL     1      32.642   4.024  46.168  1.00  0.00     0.243 C 
HETATM   21 CL2  UNL     1      32.086   2.352  46.515  1.00  0.00    -0.095 Cl
ENDBRANCH   2  15
TORSDOF 3
ENDMDL
