MODEL 1
REMARK VINA RESULT:      -8.1      0.000      0.000
REMARK  9 active torsions:
REMARK  status: ('A' for Active; 'I' for Inactive)
REMARK    1  A    between atoms: C1_2  and  O2_3 
REMARK    2  A    between atoms: C1_2  and  C2_4 
REMARK    3  A    between atoms: C4_6  and  N1_7 
REMARK    4  A    between atoms: N1_7  and  C5_8 
REMARK    5  A    between atoms: C5_8  and  C6_9 
REMARK    6  A    between atoms: C6_9  and  C7_10 
REMARK    7  A    between atoms: C9_12  and  O3_13 
REMARK    8  A    between atoms: C12_16  and  O4_17 
REMARK    9  A    between atoms: C15_20  and  O5_21 
ROOT
HETATM    1  N1  UNL     1      24.576   1.777  51.915  1.00  0.00    -0.390 N 
HETATM    2  H3  UNL     1      24.531   2.754  51.512  1.00  0.00     0.159 HD
ENDROOT
BRANCH   1   3
HETATM    3  C4  UNL     1      23.410   1.279  52.569  1.00  0.00     0.029 A 
HETATM    4  C3  UNL     1      23.517   0.199  53.430  1.00  0.00     0.050 A 
HETATM    5  C2  UNL     1      22.379  -0.268  54.052  1.00  0.00     0.072 A 
HETATM    6  C15 UNL     1      21.122   0.273  53.875  1.00  0.00     0.082 A 
HETATM    7  C14 UNL     1      21.043   1.363  52.999  1.00  0.00     0.040 A 
HETATM    8  C13 UNL     1      22.168   1.848  52.365  1.00  0.00     0.032 A 
BRANCH   5   9
HETATM    9  C1  UNL     1      22.429  -1.400  54.968  1.00  0.00     0.179 C 
HETATM   10  O1  UNL     1      21.587  -2.329  54.875  1.00  0.00    -0.646 OA
BRANCH   9  11
HETATM   11  O2  UNL     1      23.302  -1.673  56.010  1.00  0.00    -0.773 OA
HETATM   12  H1  UNL     1      22.968  -1.610  56.983  1.00  0.00     0.167 HD
ENDBRANCH   9  11
ENDBRANCH   5   9
BRANCH   6  13
HETATM   13  O5  UNL     1      19.974  -0.195  54.500  1.00  0.00    -0.360 OA
HETATM   14  H15 UNL     1      19.785  -1.179  54.647  1.00  0.00     0.217 HD
ENDBRANCH   6  13
ENDBRANCH   1   3
BRANCH   1  15
HETATM   15  C5  UNL     1      25.753   0.979  51.813  1.00  0.00     0.124 C 
BRANCH  15  16
HETATM   16  C6  UNL     1      26.756   1.441  52.835  1.00  0.00     0.061 C 
BRANCH  16  17
HETATM   17  C7  UNL     1      27.804   0.409  53.042  1.00  0.00    -0.021 A 
HETATM   18  C8  UNL     1      27.495  -0.909  52.881  1.00  0.00     0.046 A 
HETATM   19  C9  UNL     1      28.517  -1.813  53.090  1.00  0.00     0.066 A 
HETATM   20  C10 UNL     1      29.816  -1.494  53.447  1.00  0.00     0.039 A 
HETATM   21  C11 UNL     1      30.058  -0.144  53.594  1.00  0.00     0.040 A 
HETATM   22  C12 UNL     1      29.088   0.798  53.400  1.00  0.00     0.072 A 
BRANCH  19  23
HETATM   23  O3  UNL     1      28.192  -3.168  52.922  1.00  0.00    -0.361 OA
HETATM   24  H9  UNL     1      27.743  -3.501  52.071  1.00  0.00     0.217 HD
ENDBRANCH  19  23
BRANCH  22  25
HETATM   25  O4  UNL     1      29.355   2.154  53.553  1.00  0.00    -0.360 OA
HETATM   26  H12 UNL     1      29.338   2.761  52.738  1.00  0.00     0.217 HD
ENDBRANCH  22  25
ENDBRANCH  16  17
ENDBRANCH  15  16
ENDBRANCH   1  15
TORSDOF 9
ENDMDL
MODEL 2
REMARK VINA RESULT:      -8.1      1.485      6.413
REMARK  9 active torsions:
REMARK  status: ('A' for Active; 'I' for Inactive)
REMARK    1  A    between atoms: C1_2  and  O2_3 
REMARK    2  A    between atoms: C1_2  and  C2_4 
REMARK    3  A    between atoms: C4_6  and  N1_7 
REMARK    4  A    between atoms: N1_7  and  C5_8 
REMARK    5  A    between atoms: C5_8  and  C6_9 
REMARK    6  A    between atoms: C6_9  and  C7_10 
REMARK    7  A    between atoms: C9_12  and  O3_13 
REMARK    8  A    between atoms: C12_16  and  O4_17 
REMARK    9  A    between atoms: C15_20  and  O5_21 
ROOT
HETATM    1  N1  UNL     1      26.114   2.238  52.591  1.00  0.00    -0.390 N 
HETATM    2  H3  UNL     1      26.358   3.013  51.915  1.00  0.00     0.159 HD
ENDROOT
BRANCH   1   3
HETATM    3  C4  UNL     1      27.146   1.314  52.935  1.00  0.00     0.029 A 
HETATM    4  C3  UNL     1      26.959  -0.039  52.703  1.00  0.00     0.050 A 
HETATM    5  C2  UNL     1      27.967  -0.915  53.042  1.00  0.00     0.072 A 
HETATM    6  C15 UNL     1      29.168  -0.535  53.604  1.00  0.00     0.082 A 
HETATM    7  C14 UNL     1      29.330   0.839  53.828  1.00  0.00     0.040 A 
HETATM    8  C13 UNL     1      28.336   1.735  53.497  1.00  0.00     0.032 A 
BRANCH   5   9
HETATM    9  C1  UNL     1      27.827  -2.349  52.822  1.00  0.00     0.179 C 
HETATM   10  O1  UNL     1      26.969  -2.785  52.013  1.00  0.00    -0.646 OA
BRANCH   9  11
HETATM   11  O2  UNL     1      28.517  -3.414  53.381  1.00  0.00    -0.773 OA
HETATM   12  H1  UNL     1      28.792  -4.210  52.786  1.00  0.00     0.167 HD
ENDBRANCH   9  11
ENDBRANCH   5   9
BRANCH   6  13
HETATM   13  O5  UNL     1      30.185  -1.415  53.947  1.00  0.00    -0.360 OA
HETATM   14  H15 UNL     1      31.003  -1.568  53.371  1.00  0.00     0.217 HD
ENDBRANCH   6  13
ENDBRANCH   1   3
BRANCH   1  15
HETATM   15  C5  UNL     1      24.807   2.111  53.146  1.00  0.00     0.124 C 
BRANCH  15  16
HETATM   16  C6  UNL     1      23.979   1.214  52.266  1.00  0.00     0.061 C 
BRANCH  16  17
HETATM   17  C7  UNL     1      23.046   0.397  53.083  1.00  0.00    -0.021 A 
HETATM   18  C8  UNL     1      23.535  -0.384  54.088  1.00  0.00     0.046 A 
HETATM   19  C9  UNL     1      22.612  -1.116  54.806  1.00  0.00     0.066 A 
HETATM   20  C10 UNL     1      21.244  -1.124  54.591  1.00  0.00     0.039 A 
HETATM   21  C11 UNL     1      20.819  -0.313  53.560  1.00  0.00     0.040 A 
HETATM   22  C12 UNL     1      21.684   0.436  52.814  1.00  0.00     0.072 A 
BRANCH  19  23
HETATM   23  O3  UNL     1      23.122  -1.918  55.839  1.00  0.00    -0.361 OA
HETATM   24  H9  UNL     1      23.189  -1.569  56.794  1.00  0.00     0.217 HD
ENDBRANCH  19  23
BRANCH  22  25
HETATM   25  O4  UNL     1      21.234   1.248  51.778  1.00  0.00    -0.360 OA
HETATM   26  H12 UNL     1      21.854   1.953  51.391  1.00  0.00     0.217 HD
ENDBRANCH  22  25
ENDBRANCH  16  17
ENDBRANCH  15  16
ENDBRANCH   1  15
TORSDOF 9
ENDMDL
MODEL 3
REMARK VINA RESULT:      -7.8      1.179      2.239
REMARK  9 active torsions:
REMARK  status: ('A' for Active; 'I' for Inactive)
REMARK    1  A    between atoms: C1_2  and  O2_3 
REMARK    2  A    between atoms: C1_2  and  C2_4 
REMARK    3  A    between atoms: C4_6  and  N1_7 
REMARK    4  A    between atoms: N1_7  and  C5_8 
REMARK    5  A    between atoms: C5_8  and  C6_9 
REMARK    6  A    between atoms: C6_9  and  C7_10 
REMARK    7  A    between atoms: C9_12  and  O3_13 
REMARK    8  A    between atoms: C12_16  and  O4_17 
REMARK    9  A    between atoms: C15_20  and  O5_21 
ROOT
HETATM    1  N1  UNL     1      23.923   1.643  51.966  1.00  0.00    -0.390 N 
HETATM    2  H3  UNL     1      23.575   1.909  51.003  1.00  0.00     0.159 HD
ENDROOT
BRANCH   1   3
HETATM    3  C4  UNL     1      23.131   0.730  52.723  1.00  0.00     0.029 A 
HETATM    4  C3  UNL     1      21.768   0.645  52.486  1.00  0.00     0.050 A 
HETATM    5  C2  UNL     1      21.021  -0.243  53.228  1.00  0.00     0.072 A 
HETATM    6  C15 UNL     1      21.540  -1.066  54.206  1.00  0.00     0.082 A 
HETATM    7  C14 UNL     1      22.920  -0.959  54.425  1.00  0.00     0.040 A 
HETATM    8  C13 UNL     1      23.689  -0.078  53.695  1.00  0.00     0.032 A 
BRANCH   5   9
HETATM    9  C1  UNL     1      19.584  -0.375  53.023  1.00  0.00     0.179 C 
HETATM   10  O1  UNL     1      19.071  -0.072  51.917  1.00  0.00    -0.646 OA
BRANCH   9  11
HETATM   11  O2  UNL     1      18.590  -0.808  53.888  1.00  0.00    -0.773 OA
HETATM   12  H1  UNL     1      18.019  -0.115  54.394  1.00  0.00     0.167 HD
ENDBRANCH   9  11
ENDBRANCH   5   9
BRANCH   6  13
HETATM   13  O5  UNL     1      20.789  -1.961  54.955  1.00  0.00    -0.360 OA
HETATM   14  H15 UNL     1      19.942  -1.699  55.445  1.00  0.00     0.217 HD
ENDBRANCH   6  13
ENDBRANCH   1   3
BRANCH   1  15
HETATM   15  C5  UNL     1      25.137   2.171  52.496  1.00  0.00     0.124 C 
BRANCH  15  16
HETATM   16  C6  UNL     1      26.285   1.755  51.616  1.00  0.00     0.061 C 
BRANCH  16  17
HETATM   17  C7  UNL     1      27.211   0.860  52.355  1.00  0.00    -0.021 A 
HETATM   18  C8  UNL     1      26.994  -0.486  52.355  1.00  0.00     0.046 A 
HETATM   19  C9  UNL     1      27.894  -1.257  53.063  1.00  0.00     0.066 A 
HETATM   20  C10 UNL     1      28.987  -0.780  53.766  1.00  0.00     0.039 A 
HETATM   21  C11 UNL     1      29.146   0.589  53.724  1.00  0.00     0.040 A 
HETATM   22  C12 UNL     1      28.290   1.405  53.041  1.00  0.00     0.072 A 
BRANCH  19  23
HETATM   23  O3  UNL     1      27.664  -2.641  53.058  1.00  0.00    -0.361 OA
HETATM   24  H9  UNL     1      27.143  -3.092  53.808  1.00  0.00     0.217 HD
ENDBRANCH  19  23
BRANCH  22  25
HETATM   25  O4  UNL     1      28.469   2.783  53.011  1.00  0.00    -0.360 OA
HETATM   26  H12 UNL     1      28.141   3.312  52.209  1.00  0.00     0.217 HD
ENDBRANCH  22  25
ENDBRANCH  16  17
ENDBRANCH  15  16
ENDBRANCH   1  15
TORSDOF 9
ENDMDL
MODEL 4
REMARK VINA RESULT:      -7.6      3.839      6.961
REMARK  9 active torsions:
REMARK  status: ('A' for Active; 'I' for Inactive)
REMARK    1  A    between atoms: C1_2  and  O2_3 
REMARK    2  A    between atoms: C1_2  and  C2_4 
REMARK    3  A    between atoms: C4_6  and  N1_7 
REMARK    4  A    between atoms: N1_7  and  C5_8 
REMARK    5  A    between atoms: C5_8  and  C6_9 
REMARK    6  A    between atoms: C6_9  and  C7_10 
REMARK    7  A    between atoms: C9_12  and  O3_13 
REMARK    8  A    between atoms: C12_16  and  O4_17 
REMARK    9  A    between atoms: C15_20  and  O5_21 
ROOT
HETATM    1  N1  UNL     1      26.274   2.518  52.456  1.00  0.00    -0.390 N 
HETATM    2  H3  UNL     1      26.072   3.296  53.144  1.00  0.00     0.159 HD
ENDROOT
BRANCH   1   3
HETATM    3  C4  UNL     1      27.238   1.537  52.836  1.00  0.00     0.029 A 
HETATM    4  C3  UNL     1      26.989   0.197  52.582  1.00  0.00     0.050 A 
HETATM    5  C2  UNL     1      27.932  -0.735  52.957  1.00  0.00     0.072 A 
HETATM    6  C15 UNL     1      29.125  -0.425  53.576  1.00  0.00     0.082 A 
HETATM    7  C14 UNL     1      29.351   0.936  53.821  1.00  0.00     0.040 A 
HETATM    8  C13 UNL     1      28.423   1.888  53.455  1.00  0.00     0.032 A 
BRANCH   5   9
HETATM    9  C1  UNL     1      27.725  -2.157  52.716  1.00  0.00     0.179 C 
HETATM   10  O1  UNL     1      26.800  -2.543  51.958  1.00  0.00    -0.646 OA
BRANCH   9  11
HETATM   11  O2  UNL     1      28.410  -3.259  53.204  1.00  0.00    -0.773 OA
HETATM   12  H1  UNL     1      27.915  -4.156  53.320  1.00  0.00     0.167 HD
ENDBRANCH   9  11
ENDBRANCH   5   9
BRANCH   6  13
HETATM   13  O5  UNL     1      30.077  -1.361  53.955  1.00  0.00    -0.360 OA
HETATM   14  H15 UNL     1      29.925  -2.038  54.692  1.00  0.00     0.217 HD
ENDBRANCH   6  13
ENDBRANCH   1   3
BRANCH   1  15
HETATM   15  C5  UNL     1      25.613   2.442  51.196  1.00  0.00     0.124 C 
BRANCH  15  16
HETATM   16  C6  UNL     1      26.543   2.931  50.118  1.00  0.00     0.061 C 
BRANCH  16  17
HETATM   17  C7  UNL     1      26.022   4.181  49.507  1.00  0.00    -0.021 A 
HETATM   18  C8  UNL     1      24.676   4.359  49.375  1.00  0.00     0.046 A 
HETATM   19  C9  UNL     1      24.263   5.542  48.799  1.00  0.00     0.066 A 
HETATM   20  C10 UNL     1      25.094   6.553  48.346  1.00  0.00     0.039 A 
HETATM   21  C11 UNL     1      26.442   6.307  48.510  1.00  0.00     0.040 A 
HETATM   22  C12 UNL     1      26.912   5.155  49.074  1.00  0.00     0.072 A 
BRANCH  19  23
HETATM   23  O3  UNL     1      22.877   5.719  48.666  1.00  0.00    -0.361 OA
HETATM   24  H9  UNL     1      22.223   5.241  49.284  1.00  0.00     0.217 HD
ENDBRANCH  19  23
BRANCH  22  25
HETATM   25  O4  UNL     1      28.275   4.928  49.229  1.00  0.00    -0.360 OA
HETATM   26  H12 UNL     1      28.911   5.176  48.477  1.00  0.00     0.217 HD
ENDBRANCH  22  25
ENDBRANCH  16  17
ENDBRANCH  15  16
ENDBRANCH   1  15
TORSDOF 9
ENDMDL
MODEL 5
REMARK VINA RESULT:      -7.5      2.582      3.928
REMARK  9 active torsions:
REMARK  status: ('A' for Active; 'I' for Inactive)
REMARK    1  A    between atoms: C1_2  and  O2_3 
REMARK    2  A    between atoms: C1_2  and  C2_4 
REMARK    3  A    between atoms: C4_6  and  N1_7 
REMARK    4  A    between atoms: N1_7  and  C5_8 
REMARK    5  A    between atoms: C5_8  and  C6_9 
REMARK    6  A    between atoms: C6_9  and  C7_10 
REMARK    7  A    between atoms: C9_12  and  O3_13 
REMARK    8  A    between atoms: C12_16  and  O4_17 
REMARK    9  A    between atoms: C15_20  and  O5_21 
ROOT
HETATM    1  N1  UNL     1      23.850  -0.681  53.170  1.00  0.00    -0.390 N 
HETATM    2  H3  UNL     1      23.367  -1.597  52.955  1.00  0.00     0.159 HD
ENDROOT
BRANCH   1   3
HETATM    3  C4  UNL     1      23.138   0.522  52.884  1.00  0.00     0.029 A 
HETATM    4  C3  UNL     1      23.838   1.699  52.672  1.00  0.00     0.050 A 
HETATM    5  C2  UNL     1      23.132   2.850  52.398  1.00  0.00     0.072 A 
HETATM    6  C15 UNL     1      21.757   2.915  52.318  1.00  0.00     0.082 A 
HETATM    7  C14 UNL     1      21.074   1.711  52.537  1.00  0.00     0.040 A 
HETATM    8  C13 UNL     1      21.758   0.546  52.813  1.00  0.00     0.032 A 
BRANCH   5   9
HETATM    9  C1  UNL     1      23.815   4.117  52.166  1.00  0.00     0.179 C 
HETATM   10  O1  UNL     1      24.587   4.250  51.184  1.00  0.00    -0.646 OA
BRANCH   9  11
HETATM   11  O2  UNL     1      23.772   5.303  52.883  1.00  0.00    -0.773 OA
HETATM   12  H1  UNL     1      22.896   5.585  53.347  1.00  0.00     0.167 HD
ENDBRANCH   9  11
ENDBRANCH   5   9
BRANCH   6  13
HETATM   13  O5  UNL     1      21.043   4.073  52.042  1.00  0.00    -0.360 OA
HETATM   14  H15 UNL     1      20.776   4.742  52.754  1.00  0.00     0.217 HD
ENDBRANCH   6  13
ENDBRANCH   1   3
BRANCH   1  15
HETATM   15  C5  UNL     1      25.162  -0.638  53.727  1.00  0.00     0.124 C 
BRANCH  15  16
HETATM   16  C6  UNL     1      26.125  -1.295  52.776  1.00  0.00     0.061 C 
BRANCH  16  17
HETATM   17  C7  UNL     1      27.513  -0.831  53.034  1.00  0.00    -0.021 A 
HETATM   18  C8  UNL     1      27.763   0.501  53.183  1.00  0.00     0.046 A 
HETATM   19  C9  UNL     1      29.073   0.861  53.421  1.00  0.00     0.066 A 
HETATM   20  C10 UNL     1      30.145  -0.011  53.518  1.00  0.00     0.039 A 
HETATM   21  C11 UNL     1      29.820  -1.342  53.357  1.00  0.00     0.040 A 
HETATM   22  C12 UNL     1      28.541  -1.760  53.120  1.00  0.00     0.072 A 
BRANCH  19  23
HETATM   23  O3  UNL     1      29.324   2.233  53.574  1.00  0.00    -0.361 OA
HETATM   24  H9  UNL     1      29.190   2.883  52.801  1.00  0.00     0.217 HD
ENDBRANCH  19  23
BRANCH  22  25
HETATM   25  O4  UNL     1      28.237  -3.107  52.961  1.00  0.00    -0.360 OA
HETATM   26  H12 UNL     1      28.630  -3.787  53.605  1.00  0.00     0.217 HD
ENDBRANCH  22  25
ENDBRANCH  16  17
ENDBRANCH  15  16
ENDBRANCH   1  15
TORSDOF 9
ENDMDL
MODEL 6
REMARK VINA RESULT:      -7.4      3.526      6.811
REMARK  9 active torsions:
REMARK  status: ('A' for Active; 'I' for Inactive)
REMARK    1  A    between atoms: C1_2  and  O2_3 
REMARK    2  A    between atoms: C1_2  and  C2_4 
REMARK    3  A    between atoms: C4_6  and  N1_7 
REMARK    4  A    between atoms: N1_7  and  C5_8 
REMARK    5  A    between atoms: C5_8  and  C6_9 
REMARK    6  A    between atoms: C6_9  and  C7_10 
REMARK    7  A    between atoms: C9_12  and  O3_13 
REMARK    8  A    between atoms: C12_16  and  O4_17 
REMARK    9  A    between atoms: C15_20  and  O5_21 
ROOT
HETATM    1  N1  UNL     1      24.123   1.394  52.473  1.00  0.00    -0.390 N 
HETATM    2  H3  UNL     1      23.299   0.777  52.715  1.00  0.00     0.159 HD
ENDROOT
BRANCH   1   3
HETATM    3  C4  UNL     1      25.426   0.909  52.792  1.00  0.00     0.029 A 
HETATM    4  C3  UNL     1      26.432   1.807  53.113  1.00  0.00     0.050 A 
HETATM    5  C2  UNL     1      27.684   1.318  53.418  1.00  0.00     0.072 A 
HETATM    6  C15 UNL     1      28.012  -0.022  53.426  1.00  0.00     0.082 A 
HETATM    7  C14 UNL     1      26.977  -0.907  53.097  1.00  0.00     0.040 A 
HETATM    8  C13 UNL     1      25.716  -0.442  52.789  1.00  0.00     0.032 A 
BRANCH   5   9
HETATM    9  C1  UNL     1      28.780   2.214  53.764  1.00  0.00     0.179 C 
HETATM   10  O1  UNL     1      29.284   2.186  54.915  1.00  0.00    -0.646 OA
BRANCH   9  11
HETATM   11  O2  UNL     1      29.429   3.173  53.001  1.00  0.00    -0.773 OA
HETATM   12  H1  UNL     1      28.934   3.617  52.214  1.00  0.00     0.167 HD
ENDBRANCH   9  11
ENDBRANCH   5   9
BRANCH   6  13
HETATM   13  O5  UNL     1      29.272  -0.517  53.732  1.00  0.00    -0.360 OA
HETATM   14  H15 UNL     1      29.426  -1.438  54.123  1.00  0.00     0.217 HD
ENDBRANCH   6  13
ENDBRANCH   1   3
BRANCH   1  15
HETATM   15  C5  UNL     1      23.950   2.665  51.851  1.00  0.00     0.124 C 
BRANCH  15  16
HETATM   16  C6  UNL     1      24.089   2.511  50.361  1.00  0.00     0.061 C 
BRANCH  16  17
HETATM   17  C7  UNL     1      24.803   3.677  49.780  1.00  0.00    -0.021 A 
HETATM   18  C8  UNL     1      26.166   3.701  49.774  1.00  0.00     0.046 A 
HETATM   19  C9  UNL     1      26.762   4.815  49.219  1.00  0.00     0.066 A 
HETATM   20  C10 UNL     1      26.096   5.900  48.674  1.00  0.00     0.039 A 
HETATM   21  C11 UNL     1      24.721   5.810  48.714  1.00  0.00     0.040 A 
HETATM   22  C12 UNL     1      24.073   4.733  49.250  1.00  0.00     0.072 A 
BRANCH  19  23
HETATM   23  O3  UNL     1      28.166   4.832  49.216  1.00  0.00    -0.361 OA
HETATM   24  H9  UNL     1      28.701   4.358  49.941  1.00  0.00     0.217 HD
ENDBRANCH  19  23
BRANCH  22  25
HETATM   25  O4  UNL     1      22.684   4.664  49.279  1.00  0.00    -0.360 OA
HETATM   26  H12 UNL     1      22.233   3.765  49.422  1.00  0.00     0.217 HD
ENDBRANCH  22  25
ENDBRANCH  16  17
ENDBRANCH  15  16
ENDBRANCH   1  15
TORSDOF 9
ENDMDL
MODEL 7
REMARK VINA RESULT:      -7.3      1.722      7.593
REMARK  9 active torsions:
REMARK  status: ('A' for Active; 'I' for Inactive)
REMARK    1  A    between atoms: C1_2  and  O2_3 
REMARK    2  A    between atoms: C1_2  and  C2_4 
REMARK    3  A    between atoms: C4_6  and  N1_7 
REMARK    4  A    between atoms: N1_7  and  C5_8 
REMARK    5  A    between atoms: C5_8  and  C6_9 
REMARK    6  A    between atoms: C6_9  and  C7_10 
REMARK    7  A    between atoms: C9_12  and  O3_13 
REMARK    8  A    between atoms: C12_16  and  O4_17 
REMARK    9  A    between atoms: C15_20  and  O5_21 
ROOT
HETATM    1  N1  UNL     1      24.839  -0.239  52.314  1.00  0.00    -0.390 N 
HETATM    2  H3  UNL     1      24.555  -0.814  51.473  1.00  0.00     0.159 HD
ENDROOT
BRANCH   1   3
HETATM    3  C4  UNL     1      26.213  -0.267  52.696  1.00  0.00     0.029 A 
HETATM    4  C3  UNL     1      26.860   0.916  53.015  1.00  0.00     0.050 A 
HETATM    5  C2  UNL     1      28.187   0.868  53.382  1.00  0.00     0.072 A 
HETATM    6  C15 UNL     1      28.930  -0.292  53.456  1.00  0.00     0.082 A 
HETATM    7  C14 UNL     1      28.252  -1.473  53.128  1.00  0.00     0.040 A 
HETATM    8  C13 UNL     1      26.923  -1.451  52.758  1.00  0.00     0.032 A 
BRANCH   5   9
HETATM    9  C1  UNL     1      28.919   2.080  53.728  1.00  0.00     0.179 C 
HETATM   10  O1  UNL     1      29.420   2.214  54.873  1.00  0.00    -0.646 OA
BRANCH   9  11
HETATM   11  O2  UNL     1      29.191   3.211  52.972  1.00  0.00    -0.773 OA
HETATM   12  H1  UNL     1      29.340   3.119  51.956  1.00  0.00     0.167 HD
ENDBRANCH   9  11
ENDBRANCH   5   9
BRANCH   6  13
HETATM   13  O5  UNL     1      30.267  -0.343  53.824  1.00  0.00    -0.360 OA
HETATM   14  H15 UNL     1      30.584  -0.223  54.778  1.00  0.00     0.217 HD
ENDBRANCH   6  13
ENDBRANCH   1   3
BRANCH   1  15
HETATM   15  C5  UNL     1      23.894   0.539  53.044  1.00  0.00     0.124 C 
BRANCH  15  16
HETATM   16  C6  UNL     1      22.947  -0.381  53.767  1.00  0.00     0.061 C 
BRANCH  16  17
HETATM   17  C7  UNL     1      21.580  -0.277  53.196  1.00  0.00    -0.021 A 
HETATM   18  C8  UNL     1      21.372   0.464  52.071  1.00  0.00     0.046 A 
HETATM   19  C9  UNL     1      20.077   0.517  51.596  1.00  0.00     0.066 A 
HETATM   20  C10 UNL     1      18.983  -0.114  52.165  1.00  0.00     0.039 A 
HETATM   21  C11 UNL     1      19.265  -0.844  53.300  1.00  0.00     0.040 A 
HETATM   22  C12 UNL     1      20.526  -0.935  53.817  1.00  0.00     0.072 A 
BRANCH  19  23
HETATM   23  O3  UNL     1      19.870   1.280  50.438  1.00  0.00    -0.361 OA
HETATM   24  H9  UNL     1      19.577   0.846  49.564  1.00  0.00     0.217 HD
ENDBRANCH  19  23
BRANCH  22  25
HETATM   25  O4  UNL     1      20.788  -1.678  54.963  1.00  0.00    -0.360 OA
HETATM   26  H12 UNL     1      21.729  -1.691  55.345  1.00  0.00     0.217 HD
ENDBRANCH  22  25
ENDBRANCH  16  17
ENDBRANCH  15  16
ENDBRANCH   1  15
TORSDOF 9
ENDMDL
MODEL 8
REMARK VINA RESULT:      -7.2      1.833      6.854
REMARK  9 active torsions:
REMARK  status: ('A' for Active; 'I' for Inactive)
REMARK    1  A    between atoms: C1_2  and  O2_3 
REMARK    2  A    between atoms: C1_2  and  C2_4 
REMARK    3  A    between atoms: C4_6  and  N1_7 
REMARK    4  A    between atoms: N1_7  and  C5_8 
REMARK    5  A    between atoms: C5_8  and  C6_9 
REMARK    6  A    between atoms: C6_9  and  C7_10 
REMARK    7  A    between atoms: C9_12  and  O3_13 
REMARK    8  A    between atoms: C12_16  and  O4_17 
REMARK    9  A    between atoms: C15_20  and  O5_21 
ROOT
HETATM    1  N1  UNL     1      25.431   1.811  53.621  1.00  0.00    -0.390 N 
HETATM    2  H3  UNL     1      24.878   1.797  54.522  1.00  0.00     0.159 HD
ENDROOT
BRANCH   1   3
HETATM    3  C4  UNL     1      26.651   1.072  53.587  1.00  0.00     0.029 A 
HETATM    4  C3  UNL     1      26.626  -0.277  53.268  1.00  0.00     0.050 A 
HETATM    5  C2  UNL     1      27.815  -0.973  53.240  1.00  0.00     0.072 A 
HETATM    6  C15 UNL     1      29.047  -0.415  53.510  1.00  0.00     0.082 A 
HETATM    7  C14 UNL     1      29.043   0.950  53.830  1.00  0.00     0.040 A 
HETATM    8  C13 UNL     1      27.867   1.668  53.864  1.00  0.00     0.032 A 
BRANCH   5   9
HETATM    9  C1  UNL     1      27.851  -2.393  52.911  1.00  0.00     0.179 C 
HETATM   10  O1  UNL     1      27.069  -2.863  52.047  1.00  0.00    -0.646 OA
BRANCH   9  11
HETATM   11  O2  UNL     1      28.649  -3.410  53.412  1.00  0.00    -0.773 OA
HETATM   12  H1  UNL     1      29.383  -3.820  52.816  1.00  0.00     0.167 HD
ENDBRANCH   9  11
ENDBRANCH   5   9
BRANCH   6  13
HETATM   13  O5  UNL     1      30.246  -1.113  53.483  1.00  0.00    -0.360 OA
HETATM   14  H15 UNL     1      30.317  -2.101  53.695  1.00  0.00     0.217 HD
ENDBRANCH   6  13
ENDBRANCH   1   3
BRANCH   1  15
HETATM   15  C5  UNL     1      24.984   2.536  52.479  1.00  0.00     0.124 C 
BRANCH  15  16
HETATM   16  C6  UNL     1      24.132   1.638  51.623  1.00  0.00     0.061 C 
BRANCH  16  17
HETATM   17  C7  UNL     1      22.761   1.530  52.185  1.00  0.00    -0.021 A 
HETATM   18  C8  UNL     1      21.872   2.547  51.999  1.00  0.00     0.046 A 
HETATM   19  C9  UNL     1      20.617   2.379  52.549  1.00  0.00     0.066 A 
HETATM   20  C10 UNL     1      20.192   1.273  53.266  1.00  0.00     0.039 A 
HETATM   21  C11 UNL     1      21.141   0.284  53.416  1.00  0.00     0.040 A 
HETATM   22  C12 UNL     1      22.399   0.392  52.895  1.00  0.00     0.072 A 
BRANCH  19  23
HETATM   23  O3  UNL     1      19.708   3.429  52.354  1.00  0.00    -0.361 OA
HETATM   24  H9  UNL     1      18.985   3.636  53.042  1.00  0.00     0.217 HD
ENDBRANCH  19  23
BRANCH  22  25
HETATM   25  O4  UNL     1      23.340  -0.618  53.057  1.00  0.00    -0.360 OA
HETATM   26  H12 UNL     1      24.286  -0.378  53.339  1.00  0.00     0.217 HD
ENDBRANCH  22  25
ENDBRANCH  16  17
ENDBRANCH  15  16
ENDBRANCH   1  15
TORSDOF 9
ENDMDL
MODEL 9
REMARK VINA RESULT:      -7.2      3.488      4.588
REMARK  9 active torsions:
REMARK  status: ('A' for Active; 'I' for Inactive)
REMARK    1  A    between atoms: C1_2  and  O2_3 
REMARK    2  A    between atoms: C1_2  and  C2_4 
REMARK    3  A    between atoms: C4_6  and  N1_7 
REMARK    4  A    between atoms: N1_7  and  C5_8 
REMARK    5  A    between atoms: C5_8  and  C6_9 
REMARK    6  A    between atoms: C6_9  and  C7_10 
REMARK    7  A    between atoms: C9_12  and  O3_13 
REMARK    8  A    between atoms: C12_16  and  O4_17 
REMARK    9  A    between atoms: C15_20  and  O5_21 
ROOT
HETATM    1  N1  UNL     1      23.886   1.423  53.069  1.00  0.00    -0.390 N 
HETATM    2  H3  UNL     1      23.181   1.457  53.857  1.00  0.00     0.159 HD
ENDROOT
BRANCH   1   3
HETATM    3  C4  UNL     1      23.723   2.351  51.998  1.00  0.00     0.029 A 
HETATM    4  C3  UNL     1      23.734   3.712  52.263  1.00  0.00     0.050 A 
HETATM    5  C2  UNL     1      23.574   4.592  51.215  1.00  0.00     0.072 A 
HETATM    6  C15 UNL     1      23.402   4.211  49.901  1.00  0.00     0.082 A 
HETATM    7  C14 UNL     1      23.394   2.830  49.662  1.00  0.00     0.040 A 
HETATM    8  C13 UNL     1      23.552   1.929  50.693  1.00  0.00     0.032 A 
BRANCH   5   9
HETATM    9  C1  UNL     1      23.577   6.034  51.433  1.00  0.00     0.179 C 
HETATM   10  O1  UNL     1      22.655   6.748  50.966  1.00  0.00    -0.646 OA
BRANCH   9  11
HETATM   11  O2  UNL     1      24.480   6.836  52.115  1.00  0.00    -0.773 OA
HETATM   12  H1  UNL     1      24.487   6.831  53.146  1.00  0.00     0.167 HD
ENDBRANCH   9  11
ENDBRANCH   5   9
BRANCH   6  13
HETATM   13  O5  UNL     1      23.240   5.095  48.844  1.00  0.00    -0.360 OA
HETATM   14  H15 UNL     1      23.227   6.101  48.960  1.00  0.00     0.217 HD
ENDBRANCH   6  13
ENDBRANCH   1   3
BRANCH   1  15
HETATM   15  C5  UNL     1      24.963   0.489  53.067  1.00  0.00     0.124 C 
BRANCH  15  16
HETATM   16  C6  UNL     1      26.261   1.229  52.889  1.00  0.00     0.061 C 
BRANCH  16  17
HETATM   17  C7  UNL     1      27.415   0.325  53.128  1.00  0.00    -0.021 A 
HETATM   18  C8  UNL     1      27.303  -1.004  52.844  1.00  0.00     0.046 A 
HETATM   19  C9  UNL     1      28.413  -1.785  53.091  1.00  0.00     0.066 A 
HETATM   20  C10 UNL     1      29.619  -1.334  53.601  1.00  0.00     0.039 A 
HETATM   21  C11 UNL     1      29.663   0.019  53.866  1.00  0.00     0.040 A 
HETATM   22  C12 UNL     1      28.597   0.843  53.641  1.00  0.00     0.072 A 
BRANCH  19  23
HETATM   23  O3  UNL     1      28.291  -3.151  52.796  1.00  0.00    -0.361 OA
HETATM   24  H9  UNL     1      28.639  -3.863  53.436  1.00  0.00     0.217 HD
ENDBRANCH  19  23
BRANCH  22  25
HETATM   25  O4  UNL     1      28.663   2.205  53.916  1.00  0.00    -0.360 OA
HETATM   26  H12 UNL     1      27.901   2.650  54.418  1.00  0.00     0.217 HD
ENDBRANCH  22  25
ENDBRANCH  16  17
ENDBRANCH  15  16
ENDBRANCH   1  15
TORSDOF 9
ENDMDL
