MODEL 1
REMARK VINA RESULT:      -7.8      0.000      0.000
REMARK  2 active torsions:
REMARK  status: ('A' for Active; 'I' for Inactive)
REMARK    1  A    between atoms: N1_2  and  C2_3 
REMARK    2  A    between atoms: C15_18  and  C16_19 
ROOT
HETATM    1  C2  UNL     1      21.319   0.269  52.760  1.00  0.00     0.055 A 
HETATM    2  C3  UNL     1      22.191   0.769  51.934  1.00  0.00     0.032 A 
HETATM    3  C4  UNL     1      23.598   1.235  51.861  1.00  0.00     0.080 C 
HETATM    4  C5  UNL     1      24.562   0.760  52.822  1.00  0.00    -0.005 A 
HETATM    5  C6  UNL     1      24.600  -0.156  53.825  1.00  0.00     0.014 A 
HETATM    6  C7  UNL     1      25.620  -0.425  54.698  1.00  0.00     0.002 A 
HETATM    7  C8  UNL     1      26.786   0.300  54.590  1.00  0.00     0.019 A 
HETATM    8  C9  UNL     1      26.851   1.255  53.602  1.00  0.00     0.011 A 
HETATM    9 BR1  UNL     1      28.477   2.240  53.480  1.00  0.00    -0.051 Br
HETATM   10  C10 UNL     1      25.777   1.457  52.771  1.00  0.00     0.032 A 
HETATM   11  N2  UNL     1      23.986   2.081  50.963  1.00  0.00    -0.259 NA
HETATM   12  C11 UNL     1      23.265   2.718  49.926  1.00  0.00     0.129 C 
HETATM   13  C12 UNL     1      22.414   2.141  49.174  1.00  0.00    -0.006 C 
HETATM   14  C13 UNL     1      21.507   1.279  49.454  1.00  0.00     0.027 C 
HETATM   15  C14 UNL     1      21.210   0.795  50.820  1.00  0.00    -0.005 A 
HETATM   16  C15 UNL     1      20.325   0.283  51.662  1.00  0.00     0.040 A 
ENDROOT
BRANCH   1  17
HETATM   17  N1  UNL     1      21.255  -0.113  54.101  1.00  0.00    -0.393 N 
HETATM   18  C1  UNL     1      21.237  -1.507  54.506  1.00  0.00     0.146 C 
HETATM   19  H4  UNL     1      21.222   0.693  54.768  1.00  0.00     0.159 HD
ENDBRANCH   1  17
BRANCH  16  20
HETATM   20  C16 UNL     1      18.943  -0.072  51.436  1.00  0.00     0.273 C 
HETATM   21  O1  UNL     1      18.313  -0.605  52.385  1.00  0.00    -0.301 OA
ENDBRANCH  16  20
TORSDOF 2
ENDMDL
MODEL 2
REMARK VINA RESULT:      -7.7      2.413      4.613
REMARK  2 active torsions:
REMARK  status: ('A' for Active; 'I' for Inactive)
REMARK    1  A    between atoms: N1_2  and  C2_3 
REMARK    2  A    between atoms: C15_18  and  C16_19 
ROOT
HETATM    1  C2  UNL     1      22.850   0.722  52.290  1.00  0.00     0.055 A 
HETATM    2  C3  UNL     1      24.146   0.834  52.349  1.00  0.00     0.032 A 
HETATM    3  C4  UNL     1      25.284   1.561  51.737  1.00  0.00     0.080 C 
HETATM    4  C5  UNL     1      25.059   2.822  51.076  1.00  0.00    -0.005 A 
HETATM    5  C6  UNL     1      24.023   3.686  50.906  1.00  0.00     0.014 A 
HETATM    6  C7  UNL     1      23.984   4.837  50.164  1.00  0.00     0.002 A 
HETATM    7  C8  UNL     1      25.117   5.216  49.480  1.00  0.00     0.019 A 
HETATM    8  C9  UNL     1      26.224   4.408  49.586  1.00  0.00     0.011 A 
HETATM    9 BR1  UNL     1      27.774   4.962  48.626  1.00  0.00    -0.051 Br
HETATM   10  C10 UNL     1      26.173   3.270  50.353  1.00  0.00     0.032 A 
HETATM   11  N2  UNL     1      26.486   1.083  51.760  1.00  0.00    -0.259 NA
HETATM   12  C11 UNL     1      26.987  -0.120  52.311  1.00  0.00     0.129 C 
HETATM   13  C12 UNL     1      26.659  -0.588  53.449  1.00  0.00    -0.006 C 
HETATM   14  C13 UNL     1      25.515  -0.646  54.026  1.00  0.00     0.027 C 
HETATM   15  C14 UNL     1      24.246  -0.201  53.409  1.00  0.00    -0.005 A 
HETATM   16  C15 UNL     1      22.928  -0.311  53.348  1.00  0.00     0.040 A 
ENDROOT
BRANCH   1  17
HETATM   17  N1  UNL     1      21.791   1.268  51.565  1.00  0.00    -0.393 N 
HETATM   18  C1  UNL     1      21.560   0.939  50.170  1.00  0.00     0.146 C 
HETATM   19  H4  UNL     1      21.194   1.925  52.119  1.00  0.00     0.159 HD
ENDBRANCH   1  17
BRANCH  16  20
HETATM   20  C16 UNL     1      22.044  -1.168  54.103  1.00  0.00     0.273 C 
HETATM   21  O1  UNL     1      21.279  -0.628  54.941  1.00  0.00    -0.301 OA
ENDBRANCH  16  20
TORSDOF 2
ENDMDL
MODEL 3
REMARK VINA RESULT:      -7.7      3.561      5.718
REMARK  2 active torsions:
REMARK  status: ('A' for Active; 'I' for Inactive)
REMARK    1  A    between atoms: N1_2  and  C2_3 
REMARK    2  A    between atoms: C15_18  and  C16_19 
ROOT
HETATM    1  C2  UNL     1      26.214   1.464  52.369  1.00  0.00     0.055 A 
HETATM    2  C3  UNL     1      25.097   1.963  51.923  1.00  0.00     0.032 A 
HETATM    3  C4  UNL     1      24.554   3.107  51.151  1.00  0.00     0.080 C 
HETATM    4  C5  UNL     1      25.409   3.830  50.243  1.00  0.00    -0.005 A 
HETATM    5  C6  UNL     1      26.673   3.711  49.757  1.00  0.00     0.014 A 
HETATM    6  C7  UNL     1      27.353   4.564  48.928  1.00  0.00     0.002 A 
HETATM    7  C8  UNL     1      26.719   5.708  48.499  1.00  0.00     0.019 A 
HETATM    8  C9  UNL     1      25.432   5.923  48.934  1.00  0.00     0.011 A 
HETATM    9 BR1  UNL     1      24.585   7.516  48.323  1.00  0.00    -0.051 Br
HETATM   10  C10 UNL     1      24.828   5.013  49.766  1.00  0.00     0.032 A 
HETATM   11  N2  UNL     1      23.327   3.494  51.283  1.00  0.00    -0.259 NA
HETATM   12  C11 UNL     1      22.287   2.992  52.102  1.00  0.00     0.129 C 
HETATM   13  C12 UNL     1      22.034   1.756  52.275  1.00  0.00    -0.006 C 
HETATM   14  C13 UNL     1      22.825   0.761  52.443  1.00  0.00     0.027 C 
HETATM   15  C14 UNL     1      24.297   0.872  52.535  1.00  0.00    -0.005 A 
HETATM   16  C15 UNL     1      25.435   0.366  52.985  1.00  0.00     0.040 A 
ENDROOT
BRANCH   1  17
HETATM   17  N1  UNL     1      27.574   1.776  52.347  1.00  0.00    -0.393 N 
HETATM   18  C1  UNL     1      28.252   2.352  53.494  1.00  0.00     0.146 C 
HETATM   19  H4  UNL     1      28.043   1.557  51.437  1.00  0.00     0.159 HD
ENDBRANCH   1  17
BRANCH  16  20
HETATM   20  C16 UNL     1      25.662  -0.825  53.771  1.00  0.00     0.273 C 
HETATM   21  O1  UNL     1      25.826  -0.687  55.009  1.00  0.00    -0.301 OA
ENDBRANCH  16  20
TORSDOF 2
ENDMDL
MODEL 4
REMARK VINA RESULT:      -7.6      2.588      4.064
REMARK  2 active torsions:
REMARK  status: ('A' for Active; 'I' for Inactive)
REMARK    1  A    between atoms: N1_2  and  C2_3 
REMARK    2  A    between atoms: C15_18  and  C16_19 
ROOT
HETATM    1  C2  UNL     1      23.736   3.018  52.236  1.00  0.00     0.055 A 
HETATM    2  C3  UNL     1      23.821   1.825  52.749  1.00  0.00     0.032 A 
HETATM    3  C4  UNL     1      24.801   0.762  53.078  1.00  0.00     0.080 C 
HETATM    4  C5  UNL     1      26.191   1.100  53.263  1.00  0.00    -0.005 A 
HETATM    5  C6  UNL     1      26.940   2.232  53.327  1.00  0.00     0.014 A 
HETATM    6  C7  UNL     1      28.300   2.350  53.445  1.00  0.00     0.002 A 
HETATM    7  C8  UNL     1      29.056   1.202  53.513  1.00  0.00     0.019 A 
HETATM    8  C9  UNL     1      28.392  -0.001  53.457  1.00  0.00     0.011 A 
HETATM    9 BR1  UNL     1      29.468  -1.569  53.553  1.00  0.00    -0.051 Br
HETATM   10  C10 UNL     1      27.024  -0.025  53.338  1.00  0.00     0.032 A 
HETATM   11  N2  UNL     1      24.448  -0.478  53.186  1.00  0.00    -0.259 NA
HETATM   12  C11 UNL     1      23.181  -1.089  53.038  1.00  0.00     0.129 C 
HETATM   13  C12 UNL     1      22.092  -0.622  53.506  1.00  0.00    -0.006 C 
HETATM   14  C13 UNL     1      21.653   0.582  53.545  1.00  0.00     0.027 C 
HETATM   15  C14 UNL     1      22.353   1.745  52.955  1.00  0.00    -0.005 A 
HETATM   16  C15 UNL     1      22.269   2.959  52.435  1.00  0.00     0.040 A 
ENDROOT
BRANCH   1  17
HETATM   17  N1  UNL     1      24.588   3.980  51.691  1.00  0.00    -0.393 N 
HETATM   18  C1  UNL     1      25.204   3.814  50.387  1.00  0.00     0.146 C 
HETATM   19  H4  UNL     1      24.734   4.812  52.307  1.00  0.00     0.159 HD
ENDBRANCH   1  17
BRANCH  16  20
HETATM   20  C16 UNL     1      21.104   3.785  52.214  1.00  0.00     0.273 C 
HETATM   21  O1  UNL     1      21.057   4.459  51.154  1.00  0.00    -0.301 OA
ENDBRANCH  16  20
TORSDOF 2
ENDMDL
MODEL 5
REMARK VINA RESULT:      -7.5      3.634      5.625
REMARK  2 active torsions:
REMARK  status: ('A' for Active; 'I' for Inactive)
REMARK    1  A    between atoms: N1_2  and  C2_3 
REMARK    2  A    between atoms: C15_18  and  C16_19 
ROOT
HETATM    1  C2  UNL     1      25.261   0.888  52.887  1.00  0.00     0.055 A 
HETATM    2  C3  UNL     1      24.445   1.519  52.093  1.00  0.00     0.032 A 
HETATM    3  C4  UNL     1      23.047   1.500  51.599  1.00  0.00     0.080 C 
HETATM    4  C5  UNL     1      22.020   0.851  52.375  1.00  0.00    -0.005 A 
HETATM    5  C6  UNL     1      21.915   0.270  53.600  1.00  0.00     0.014 A 
HETATM    6  C7  UNL     1      20.838  -0.372  54.151  1.00  0.00     0.002 A 
HETATM    7  C8  UNL     1      19.682  -0.471  53.409  1.00  0.00     0.019 A 
HETATM    8  C9  UNL     1      19.683   0.088  52.153  1.00  0.00     0.011 A 
HETATM    9 BR1  UNL     1      18.068  -0.067  51.155  1.00  0.00    -0.051 Br
HETATM   10  C10 UNL     1      20.811   0.713  51.680  1.00  0.00     0.032 A 
HETATM   11  N2  UNL     1      22.719   2.037  50.469  1.00  0.00    -0.259 NA
HETATM   12  C11 UNL     1      23.508   2.711  49.507  1.00  0.00     0.129 C 
HETATM   13  C12 UNL     1      24.408   3.570  49.781  1.00  0.00    -0.006 C 
HETATM   14  C13 UNL     1      25.295   3.577  50.707  1.00  0.00     0.027 C 
HETATM   15  C14 UNL     1      25.500   2.477  51.676  1.00  0.00    -0.005 A 
HETATM   16  C15 UNL     1      26.326   1.835  52.487  1.00  0.00     0.040 A 
ENDROOT
BRANCH   1  17
HETATM   17  N1  UNL     1      25.234  -0.213  53.745  1.00  0.00    -0.393 N 
HETATM   18  C1  UNL     1      25.984  -0.241  54.988  1.00  0.00     0.146 C 
HETATM   19  H4  UNL     1      24.630  -0.998  53.406  1.00  0.00     0.159 HD
ENDBRANCH   1  17
BRANCH  16  20
HETATM   20  C16 UNL     1      27.721   2.090  52.766  1.00  0.00     0.273 C 
HETATM   21  O1  UNL     1      28.021   2.508  53.912  1.00  0.00    -0.301 OA
ENDBRANCH  16  20
TORSDOF 2
ENDMDL
MODEL 6
REMARK VINA RESULT:      -7.5      2.847      4.185
REMARK  2 active torsions:
REMARK  status: ('A' for Active; 'I' for Inactive)
REMARK    1  A    between atoms: N1_2  and  C2_3 
REMARK    2  A    between atoms: C15_18  and  C16_19 
ROOT
HETATM    1  C2  UNL     1      23.747   0.529  53.335  1.00  0.00     0.055 A 
HETATM    2  C3  UNL     1      22.982   1.356  52.684  1.00  0.00     0.032 A 
HETATM    3  C4  UNL     1      23.031   2.566  51.828  1.00  0.00     0.080 C 
HETATM    4  C5  UNL     1      24.238   2.888  51.109  1.00  0.00    -0.005 A 
HETATM    5  C6  UNL     1      25.444   2.305  50.877  1.00  0.00     0.014 A 
HETATM    6  C7  UNL     1      26.522   2.813  50.201  1.00  0.00     0.002 A 
HETATM    7  C8  UNL     1      26.425   4.078  49.664  1.00  0.00     0.019 A 
HETATM    8  C9  UNL     1      25.241   4.755  49.843  1.00  0.00     0.011 A 
HETATM    9 BR1  UNL     1      25.141   6.501  49.089  1.00  0.00    -0.051 Br
HETATM   10  C10 UNL     1      24.212   4.167  50.536  1.00  0.00     0.032 A 
HETATM   11  N2  UNL     1      22.018   3.364  51.722  1.00  0.00    -0.259 NA
HETATM   12  C11 UNL     1      20.737   3.309  52.320  1.00  0.00     0.129 C 
HETATM   13  C12 UNL     1      20.035   2.252  52.433  1.00  0.00    -0.006 C 
HETATM   14  C13 UNL     1      20.377   1.057  52.745  1.00  0.00     0.027 C 
HETATM   15  C14 UNL     1      21.750   0.653  53.122  1.00  0.00    -0.005 A 
HETATM   16  C15 UNL     1      22.531  -0.189  53.781  1.00  0.00     0.040 A 
ENDROOT
BRANCH   1  17
HETATM   17  N1  UNL     1      25.109   0.344  53.580  1.00  0.00    -0.393 N 
HETATM   18  C1  UNL     1      25.831  -0.816  53.088  1.00  0.00     0.146 C 
HETATM   19  H4  UNL     1      25.544   1.112  54.142  1.00  0.00     0.159 HD
ENDBRANCH   1  17
BRANCH  16  20
HETATM   20  C16 UNL     1      22.173  -1.332  54.589  1.00  0.00     0.273 C 
HETATM   21  O1  UNL     1      22.796  -1.506  55.666  1.00  0.00    -0.301 OA
ENDBRANCH  16  20
TORSDOF 2
ENDMDL
MODEL 7
REMARK VINA RESULT:      -7.4      3.442      6.370
REMARK  2 active torsions:
REMARK  status: ('A' for Active; 'I' for Inactive)
REMARK    1  A    between atoms: N1_2  and  C2_3 
REMARK    2  A    between atoms: C15_18  and  C16_19 
ROOT
HETATM    1  C2  UNL     1      24.375   1.087  52.421  1.00  0.00     0.055 A 
HETATM    2  C3  UNL     1      23.183   0.615  52.645  1.00  0.00     0.032 A 
HETATM    3  C4  UNL     1      21.783   0.700  52.161  1.00  0.00     0.080 C 
HETATM    4  C5  UNL     1      21.514   1.143  50.816  1.00  0.00    -0.005 A 
HETATM    5  C6  UNL     1      22.236   1.451  49.706  1.00  0.00     0.014 A 
HETATM    6  C7  UNL     1      21.790   1.933  48.503  1.00  0.00     0.002 A 
HETATM    7  C8  UNL     1      20.440   2.154  48.344  1.00  0.00     0.019 A 
HETATM    8  C9  UNL     1      19.620   1.873  49.411  1.00  0.00     0.011 A 
HETATM    9 BR1  UNL     1      17.759   2.191  49.157  1.00  0.00    -0.051 Br
HETATM   10  C10 UNL     1      20.155   1.392  50.580  1.00  0.00     0.032 A 
HETATM   11  N2  UNL     1      20.782   0.404  52.925  1.00  0.00    -0.259 NA
HETATM   12  C11 UNL     1      20.748  -0.031  54.271  1.00  0.00     0.129 C 
HETATM   13  C12 UNL     1      21.531  -0.903  54.770  1.00  0.00    -0.006 C 
HETATM   14  C13 UNL     1      22.790  -1.082  54.606  1.00  0.00     0.027 C 
HETATM   15  C14 UNL     1      23.657  -0.205  53.788  1.00  0.00    -0.005 A 
HETATM   16  C15 UNL     1      24.869   0.274  53.556  1.00  0.00     0.040 A 
ENDROOT
BRANCH   1  17
HETATM   17  N1  UNL     1      24.993   1.981  51.545  1.00  0.00    -0.393 N 
HETATM   18  C1  UNL     1      26.418   1.936  51.276  1.00  0.00     0.146 C 
HETATM   19  H4  UNL     1      24.335   2.671  51.114  1.00  0.00     0.159 HD
ENDBRANCH   1  17
BRANCH  16  20
HETATM   20  C16 UNL     1      26.110   0.004  54.245  1.00  0.00     0.273 C 
HETATM   21  O1  UNL     1      26.628   0.938  54.907  1.00  0.00    -0.301 OA
ENDBRANCH  16  20
TORSDOF 2
ENDMDL
MODEL 8
REMARK VINA RESULT:      -7.4      3.624      6.657
REMARK  2 active torsions:
REMARK  status: ('A' for Active; 'I' for Inactive)
REMARK    1  A    between atoms: N1_2  and  C2_3 
REMARK    2  A    between atoms: C15_18  and  C16_19 
ROOT
HETATM    1  C2  UNL     1      25.618   2.442  51.898  1.00  0.00     0.055 A 
HETATM    2  C3  UNL     1      24.818   1.468  52.223  1.00  0.00     0.032 A 
HETATM    3  C4  UNL     1      23.432   0.978  52.023  1.00  0.00     0.080 C 
HETATM    4  C5  UNL     1      22.678   1.409  50.872  1.00  0.00    -0.005 A 
HETATM    5  C6  UNL     1      22.908   2.131  49.744  1.00  0.00     0.014 A 
HETATM    6  C7  UNL     1      22.018   2.501  48.771  1.00  0.00     0.002 A 
HETATM    7  C8  UNL     1      20.702   2.117  48.903  1.00  0.00     0.019 A 
HETATM    8  C9  UNL     1      20.363   1.380  50.013  1.00  0.00     0.011 A 
HETATM    9 BR1  UNL     1      18.536   0.866  50.164  1.00  0.00    -0.051 Br
HETATM   10  C10 UNL     1      21.323   1.053  50.939  1.00  0.00     0.032 A 
HETATM   11  N2  UNL     1      22.864   0.182  52.870  1.00  0.00    -0.259 NA
HETATM   12  C11 UNL     1      23.350  -0.375  54.077  1.00  0.00     0.129 C 
HETATM   13  C12 UNL     1      24.517  -0.861  54.232  1.00  0.00    -0.006 C 
HETATM   14  C13 UNL     1      25.655  -0.442  53.814  1.00  0.00     0.027 C 
HETATM   15  C14 UNL     1      25.855   0.817  53.062  1.00  0.00    -0.005 A 
HETATM   16  C15 UNL     1      26.668   1.807  52.728  1.00  0.00     0.040 A 
ENDROOT
BRANCH   1  17
HETATM   17  N1  UNL     1      25.577   3.612  51.138  1.00  0.00    -0.393 N 
HETATM   18  C1  UNL     1      26.339   3.762  49.912  1.00  0.00     0.146 C 
HETATM   19  H4  UNL     1      24.955   4.352  51.537  1.00  0.00     0.159 HD
ENDBRANCH   1  17
BRANCH  16  20
HETATM   20  C16 UNL     1      28.041   2.037  53.113  1.00  0.00     0.273 C 
HETATM   21  O1  UNL     1      28.252   2.715  54.151  1.00  0.00    -0.301 OA
ENDBRANCH  16  20
TORSDOF 2
ENDMDL
MODEL 9
REMARK VINA RESULT:      -7.0      3.620      6.472
REMARK  2 active torsions:
REMARK  status: ('A' for Active; 'I' for Inactive)
REMARK    1  A    between atoms: N1_2  and  C2_3 
REMARK    2  A    between atoms: C15_18  and  C16_19 
ROOT
HETATM    1  C2  UNL     1      23.779   2.121  51.837  1.00  0.00     0.055 A 
HETATM    2  C3  UNL     1      23.431   1.037  52.469  1.00  0.00     0.032 A 
HETATM    3  C4  UNL     1      22.244   0.223  52.826  1.00  0.00     0.080 C 
HETATM    4  C5  UNL     1      21.041   0.326  52.038  1.00  0.00    -0.005 A 
HETATM    5  C6  UNL     1      20.652   0.938  50.888  1.00  0.00     0.014 A 
HETATM    6  C7  UNL     1      19.407   0.973  50.318  1.00  0.00     0.002 A 
HETATM    7  C8  UNL     1      18.375   0.318  50.952  1.00  0.00     0.019 A 
HETATM    8  C9  UNL     1      18.664  -0.336  52.127  1.00  0.00     0.011 A 
HETATM    9 BR1  UNL     1      17.214  -1.231  52.978  1.00  0.00    -0.051 Br
HETATM   10  C10 UNL     1      19.943  -0.318  52.626  1.00  0.00     0.032 A 
HETATM   11  N2  UNL     1      22.247  -0.571  53.847  1.00  0.00    -0.259 NA
HETATM   12  C11 UNL     1      23.263  -0.851  54.791  1.00  0.00     0.129 C 
HETATM   13  C12 UNL     1      24.490  -1.035  54.503  1.00  0.00    -0.006 C 
HETATM   14  C13 UNL     1      25.249  -0.421  53.672  1.00  0.00     0.027 C 
HETATM   15  C14 UNL     1      24.832   0.749  52.867  1.00  0.00    -0.005 A 
HETATM   16  C15 UNL     1      25.184   1.850  52.221  1.00  0.00     0.040 A 
ENDROOT
BRANCH   1  17
HETATM   17  N1  UNL     1      23.167   3.149  51.120  1.00  0.00    -0.393 N 
HETATM   18  C1  UNL     1      22.451   4.228  51.776  1.00  0.00     0.146 C 
HETATM   19  H4  UNL     1      23.274   3.062  50.082  1.00  0.00     0.159 HD
ENDBRANCH   1  17
BRANCH  16  20
HETATM   20  C16 UNL     1      26.494   2.433  52.048  1.00  0.00     0.273 C 
HETATM   21  O1  UNL     1      26.954   2.504  50.880  1.00  0.00    -0.301 OA
ENDBRANCH  16  20
TORSDOF 2
ENDMDL
