MODEL 1
REMARK VINA RESULT:      -8.1      0.000      0.000
REMARK  6 active torsions:
REMARK  status: ('A' for Active; 'I' for Inactive)
REMARK    1  A    between atoms: C2_2  and  O1_4 
REMARK    2  A    between atoms: O1_4  and  C4_5 
REMARK    3  A    between atoms: C4_5  and  C17_23 
REMARK    4  A    between atoms: C5_6  and  C6_7 
REMARK    5  A    between atoms: C8_9  and  N1_10 
REMARK    6  A    between atoms: N1_10  and  C9_11 
ROOT
HETATM    1  C9  UNL     1      25.656  -0.489  53.822  1.00  0.00     0.035 A 
HETATM    2  C10 UNL     1      26.111  -1.513  53.012  1.00  0.00     0.032 A 
HETATM    3  C11 UNL     1      27.477  -1.583  52.720  1.00  0.00     0.046 A 
HETATM    4  C12 UNL     1      28.362  -0.666  53.218  1.00  0.00     0.137 A 
HETATM    5  F1  UNL     1      29.702  -0.677  52.974  1.00  0.00    -0.204 F 
HETATM    6  C13 UNL     1      27.927   0.362  54.028  1.00  0.00     0.085 A 
HETATM    7  C14 UNL     1      28.832   1.361  54.581  1.00  0.00     0.102 C 
HETATM    8  N2  UNL     1      29.537   2.150  55.035  1.00  0.00    -0.191 NA
HETATM    9  C15 UNL     1      26.579   0.435  54.317  1.00  0.00     0.055 A 
ENDROOT
BRANCH   1  10
HETATM   10  N1  UNL     1      24.253  -0.411  54.138  1.00  0.00    -0.341 N 
HETATM   11  H10 UNL     1      23.913  -0.952  54.953  1.00  0.00     0.167 HD
BRANCH  10  12
HETATM   12  C8  UNL     1      23.452   0.411  53.294  1.00  0.00     0.131 A 
HETATM   13  C7  UNL     1      23.426   1.768  53.080  1.00  0.00     0.082 A 
HETATM   14  C6  UNL     1      22.542   2.281  52.189  1.00  0.00     0.064 A 
HETATM   15  N4  UNL     1      21.706   1.457  51.528  1.00  0.00    -0.242 NA
HETATM   16  C16 UNL     1      21.702   0.126  51.709  1.00  0.00     0.235 A 
HETATM   17  N3  UNL     1      22.592  -0.386  52.607  1.00  0.00    -0.224 NA
BRANCH  14  18
HETATM   18  C5  UNL     1      22.527   3.713  51.992  1.00  0.00     0.069 C 
HETATM   19  C4  UNL     1      23.483   4.295  51.235  1.00  0.00     0.079 C 
BRANCH  19  20
HETATM   20  O1  UNL     1      24.440   3.507  50.675  1.00  0.00    -0.346 OA
BRANCH  20  21
HETATM   21  C2  UNL     1      25.813   3.579  50.670  1.00  0.00     0.120 C 
HETATM   22  C1  UNL     1      26.388   4.040  49.348  1.00  0.00     0.040 C 
HETATM   23  C3  UNL     1      26.397   2.239  51.050  1.00  0.00     0.040 C 
ENDBRANCH  20  21
ENDBRANCH  19  20
BRANCH  19  24
HETATM   24  C17 UNL     1      23.475   5.738  51.031  1.00  0.00    -0.001 C 
HETATM   25  C18 UNL     1      22.397   6.414  50.655  1.00  0.00     0.144 C 
HETATM   26  O2  UNL     1      22.647   7.755  50.533  1.00  0.00    -0.362 OA
HETATM   27  C19 UNL     1      24.040   8.006  50.539  1.00  0.00     0.179 C 
HETATM   28  C20 UNL     1      24.571   6.733  51.173  1.00  0.00     0.070 C 
ENDBRANCH  19  24
ENDBRANCH  14  18
ENDBRANCH  10  12
ENDBRANCH   1  10
TORSDOF 6
ENDMDL
MODEL 2
REMARK VINA RESULT:      -7.9      2.911      5.323
REMARK  6 active torsions:
REMARK  status: ('A' for Active; 'I' for Inactive)
REMARK    1  A    between atoms: C2_2  and  O1_4 
REMARK    2  A    between atoms: O1_4  and  C4_5 
REMARK    3  A    between atoms: C4_5  and  C17_23 
REMARK    4  A    between atoms: C5_6  and  C6_7 
REMARK    5  A    between atoms: C8_9  and  N1_10 
REMARK    6  A    between atoms: N1_10  and  C9_11 
ROOT
HETATM    1  C9  UNL     1      26.983   1.880  53.538  1.00  0.00     0.035 A 
HETATM    2  C10 UNL     1      28.200   2.473  53.820  1.00  0.00     0.032 A 
HETATM    3  C11 UNL     1      29.348   1.675  53.841  1.00  0.00     0.046 A 
HETATM    4  C12 UNL     1      29.291   0.332  53.591  1.00  0.00     0.137 A 
HETATM    5  F1  UNL     1      30.369  -0.500  53.594  1.00  0.00    -0.204 F 
HETATM    6  C13 UNL     1      28.086  -0.278  53.307  1.00  0.00     0.085 A 
HETATM    7  C14 UNL     1      27.975  -1.705  53.033  1.00  0.00     0.102 C 
HETATM    8  N2  UNL     1      27.874  -2.828  52.803  1.00  0.00    -0.191 NA
HETATM    9  C15 UNL     1      26.950   0.506  53.287  1.00  0.00     0.055 A 
ENDROOT
BRANCH   1  10
HETATM   10  N1  UNL     1      25.794   2.691  53.504  1.00  0.00    -0.341 N 
HETATM   11  H10 UNL     1      25.747   3.502  54.148  1.00  0.00     0.167 HD
BRANCH  10  12
HETATM   12  C8  UNL     1      24.780   2.303  52.582  1.00  0.00     0.131 A 
HETATM   13  C7  UNL     1      23.694   1.470  52.699  1.00  0.00     0.082 A 
HETATM   14  C6  UNL     1      22.875   1.294  51.632  1.00  0.00     0.064 A 
HETATM   15  N4  UNL     1      23.138   1.937  50.477  1.00  0.00    -0.242 NA
HETATM   16  C16 UNL     1      24.189   2.758  50.324  1.00  0.00     0.235 A 
HETATM   17  N3  UNL     1      25.010   2.932  51.400  1.00  0.00    -0.224 NA
BRANCH  14  18
HETATM   18  C5  UNL     1      21.747   0.403  51.778  1.00  0.00     0.069 C 
HETATM   19  C4  UNL     1      20.579   0.877  52.266  1.00  0.00     0.079 C 
BRANCH  19  20
HETATM   20  O1  UNL     1      20.501   2.190  52.608  1.00  0.00    -0.346 OA
BRANCH  20  21
HETATM   21  C2  UNL     1      20.069   3.302  51.924  1.00  0.00     0.120 C 
HETATM   22  C1  UNL     1      19.715   3.020  50.479  1.00  0.00     0.040 C 
HETATM   23  C3  UNL     1      21.114   4.389  51.999  1.00  0.00     0.040 C 
ENDBRANCH  20  21
ENDBRANCH  19  20
BRANCH  19  24
HETATM   24  C17 UNL     1      19.436  -0.015  52.417  1.00  0.00    -0.001 C 
HETATM   25  C18 UNL     1      18.390  -0.002  51.601  1.00  0.00     0.144 C 
HETATM   26  O2  UNL     1      17.450  -0.933  51.954  1.00  0.00    -0.362 OA
HETATM   27  C19 UNL     1      17.706  -1.434  53.253  1.00  0.00     0.179 C 
HETATM   28  C20 UNL     1      19.169  -1.068  53.432  1.00  0.00     0.070 C 
ENDBRANCH  19  24
ENDBRANCH  14  18
ENDBRANCH  10  12
ENDBRANCH   1  10
TORSDOF 6
ENDMDL
MODEL 3
REMARK VINA RESULT:      -7.7      3.439      6.766
REMARK  6 active torsions:
REMARK  status: ('A' for Active; 'I' for Inactive)
REMARK    1  A    between atoms: C2_2  and  O1_4 
REMARK    2  A    between atoms: O1_4  and  C4_5 
REMARK    3  A    between atoms: C4_5  and  C17_23 
REMARK    4  A    between atoms: C5_6  and  C6_7 
REMARK    5  A    between atoms: C8_9  and  N1_10 
REMARK    6  A    between atoms: N1_10  and  C9_11 
ROOT
HETATM    1  C9  UNL     1      20.880   2.108  49.539  1.00  0.00     0.035 A 
HETATM    2  C10 UNL     1      21.489   1.776  48.343  1.00  0.00     0.032 A 
HETATM    3  C11 UNL     1      22.271   2.739  47.697  1.00  0.00     0.046 A 
HETATM    4  C12 UNL     1      22.442   3.991  48.221  1.00  0.00     0.137 A 
HETATM    5  F1  UNL     1      23.189   4.972  47.644  1.00  0.00    -0.204 F 
HETATM    6  C13 UNL     1      21.841   4.341  49.413  1.00  0.00     0.085 A 
HETATM    7  C14 UNL     1      21.995   5.661  50.010  1.00  0.00     0.102 C 
HETATM    8  N2  UNL     1      22.117   6.695  50.500  1.00  0.00    -0.191 NA
HETATM    9  C15 UNL     1      21.068   3.393  50.053  1.00  0.00     0.055 A 
ENDROOT
BRANCH   1  10
HETATM   10  N1  UNL     1      20.080   1.123  50.220  1.00  0.00    -0.341 N 
HETATM   11  H10 UNL     1      19.145   0.909  49.827  1.00  0.00     0.167 HD
BRANCH  10  12
HETATM   12  C8  UNL     1      20.649   0.526  51.381  1.00  0.00     0.131 A 
HETATM   13  C7  UNL     1      21.941   0.191  51.709  1.00  0.00     0.082 A 
HETATM   14  C6  UNL     1      22.194  -0.368  52.919  1.00  0.00     0.064 A 
HETATM   15  N4  UNL     1      21.179  -0.585  53.778  1.00  0.00    -0.242 NA
HETATM   16  C16 UNL     1      19.905  -0.271  53.494  1.00  0.00     0.235 A 
HETATM   17  N3  UNL     1      19.655   0.290  52.276  1.00  0.00    -0.224 NA
BRANCH  14  18
HETATM   18  C5  UNL     1      23.559  -0.722  53.233  1.00  0.00     0.069 C 
HETATM   19  C4  UNL     1      24.476   0.252  53.427  1.00  0.00     0.079 C 
BRANCH  19  20
HETATM   20  O1  UNL     1      24.081   1.549  53.320  1.00  0.00    -0.346 OA
BRANCH  20  21
HETATM   21  C2  UNL     1      24.607   2.625  52.643  1.00  0.00     0.120 C 
HETATM   22  C1  UNL     1      23.806   3.897  52.820  1.00  0.00     0.040 C 
HETATM   23  C3  UNL     1      24.738   2.294  51.176  1.00  0.00     0.040 C 
ENDBRANCH  20  21
ENDBRANCH  19  20
BRANCH  19  24
HETATM   24  C17 UNL     1      25.855  -0.096  53.745  1.00  0.00    -0.001 C 
HETATM   25  C18 UNL     1      26.418   0.160  54.918  1.00  0.00     0.144 C 
HETATM   26  O2  UNL     1      27.720  -0.264  54.968  1.00  0.00    -0.362 OA
HETATM   27  C19 UNL     1      28.194  -0.574  53.671  1.00  0.00     0.179 C 
HETATM   28  C20 UNL     1      26.892  -0.763  52.914  1.00  0.00     0.070 C 
ENDBRANCH  19  24
ENDBRANCH  14  18
ENDBRANCH  10  12
ENDBRANCH   1  10
TORSDOF 6
ENDMDL
MODEL 4
REMARK VINA RESULT:      -7.7      2.950      5.517
REMARK  6 active torsions:
REMARK  status: ('A' for Active; 'I' for Inactive)
REMARK    1  A    between atoms: C2_2  and  O1_4 
REMARK    2  A    between atoms: O1_4  and  C4_5 
REMARK    3  A    between atoms: C4_5  and  C17_23 
REMARK    4  A    between atoms: C5_6  and  C6_7 
REMARK    5  A    between atoms: C8_9  and  N1_10 
REMARK    6  A    between atoms: N1_10  and  C9_11 
ROOT
HETATM    1  C9  UNL     1      26.271   1.970  52.255  1.00  0.00     0.035 A 
HETATM    2  C10 UNL     1      27.622   2.210  52.422  1.00  0.00     0.032 A 
HETATM    3  C11 UNL     1      28.305   1.533  53.438  1.00  0.00     0.046 A 
HETATM    4  C12 UNL     1      27.667   0.647  54.261  1.00  0.00     0.137 A 
HETATM    5  F1  UNL     1      28.271  -0.044  55.267  1.00  0.00    -0.204 F 
HETATM    6  C13 UNL     1      26.319   0.395  54.110  1.00  0.00     0.085 A 
HETATM    7  C14 UNL     1      25.596  -0.541  54.962  1.00  0.00     0.102 C 
HETATM    8  N2  UNL     1      25.015  -1.286  55.620  1.00  0.00    -0.191 NA
HETATM    9  C15 UNL     1      25.641   1.061  53.110  1.00  0.00     0.055 A 
ENDROOT
BRANCH   1  10
HETATM   10  N1  UNL     1      25.558   2.653  51.207  1.00  0.00    -0.341 N 
HETATM   11  H10 UNL     1      26.087   2.910  50.354  1.00  0.00     0.167 HD
BRANCH  10  12
HETATM   12  C8  UNL     1      24.177   2.917  51.439  1.00  0.00     0.131 A 
HETATM   13  C7  UNL     1      23.048   2.154  51.262  1.00  0.00     0.082 A 
HETATM   14  C6  UNL     1      21.839   2.676  51.586  1.00  0.00     0.064 A 
HETATM   15  N4  UNL     1      21.762   3.929  52.075  1.00  0.00    -0.242 NA
HETATM   16  C16 UNL     1      22.842   4.704  52.262  1.00  0.00     0.235 A 
HETATM   17  N3  UNL     1      24.056   4.176  51.935  1.00  0.00    -0.224 NA
BRANCH  14  18
HETATM   18  C5  UNL     1      20.666   1.857  51.378  1.00  0.00     0.069 C 
HETATM   19  C4  UNL     1      20.276   0.991  52.339  1.00  0.00     0.079 C 
BRANCH  19  20
HETATM   20  O1  UNL     1      21.006   0.915  53.484  1.00  0.00    -0.346 OA
BRANCH  20  21
HETATM   21  C2  UNL     1      21.982   0.043  53.905  1.00  0.00     0.120 C 
HETATM   22  C1  UNL     1      22.419  -0.934  52.835  1.00  0.00     0.040 C 
HETATM   23  C3  UNL     1      21.508  -0.706  55.128  1.00  0.00     0.040 C 
ENDBRANCH  20  21
ENDBRANCH  19  20
BRANCH  19  24
HETATM   24  C17 UNL     1      19.095   0.161  52.138  1.00  0.00    -0.001 C 
HETATM   25  C18 UNL     1      18.323   0.241  51.062  1.00  0.00     0.144 C 
HETATM   26  O2  UNL     1      17.277  -0.642  51.110  1.00  0.00    -0.362 OA
HETATM   27  C19 UNL     1      17.131  -1.172  52.414  1.00  0.00     0.179 C 
HETATM   28  C20 UNL     1      18.500  -0.888  53.008  1.00  0.00     0.070 C 
ENDBRANCH  19  24
ENDBRANCH  14  18
ENDBRANCH  10  12
ENDBRANCH   1  10
TORSDOF 6
ENDMDL
MODEL 5
REMARK VINA RESULT:      -7.7      1.890      2.812
REMARK  6 active torsions:
REMARK  status: ('A' for Active; 'I' for Inactive)
REMARK    1  A    between atoms: C2_2  and  O1_4 
REMARK    2  A    between atoms: O1_4  and  C4_5 
REMARK    3  A    between atoms: C4_5  and  C17_23 
REMARK    4  A    between atoms: C5_6  and  C6_7 
REMARK    5  A    between atoms: C8_9  and  N1_10 
REMARK    6  A    between atoms: N1_10  and  C9_11 
ROOT
HETATM    1  C9  UNL     1      25.761   0.189  53.221  1.00  0.00     0.035 A 
HETATM    2  C10 UNL     1      26.129  -1.064  52.766  1.00  0.00     0.032 A 
HETATM    3  C11 UNL     1      27.463  -1.461  52.896  1.00  0.00     0.046 A 
HETATM    4  C12 UNL     1      28.402  -0.641  53.459  1.00  0.00     0.137 A 
HETATM    5  F1  UNL     1      29.715  -0.966  53.616  1.00  0.00    -0.204 F 
HETATM    6  C13 UNL     1      28.054   0.612  53.919  1.00  0.00     0.085 A 
HETATM    7  C14 UNL     1      29.018   1.520  54.527  1.00  0.00     0.102 C 
HETATM    8  N2  UNL     1      29.766   2.242  55.020  1.00  0.00    -0.191 NA
HETATM    9  C15 UNL     1      26.738   1.008  53.792  1.00  0.00     0.055 A 
ENDROOT
BRANCH   1  10
HETATM   10  N1  UNL     1      24.388   0.607  53.102  1.00  0.00    -0.341 N 
HETATM   11  H10 UNL     1      23.741   0.356  53.872  1.00  0.00     0.167 HD
BRANCH  10  12
HETATM   12  C8  UNL     1      24.039   1.334  51.928  1.00  0.00     0.131 A 
HETATM   13  C7  UNL     1      24.739   2.226  51.151  1.00  0.00     0.082 A 
HETATM   14  C6  UNL     1      24.141   2.765  50.060  1.00  0.00     0.064 A 
HETATM   15  N4  UNL     1      22.876   2.419  49.753  1.00  0.00    -0.242 NA
HETATM   16  C16 UNL     1      22.160   1.552  50.486  1.00  0.00     0.235 A 
HETATM   17  N3  UNL     1      22.765   1.012  51.584  1.00  0.00    -0.224 NA
BRANCH  14  18
HETATM   18  C5  UNL     1      24.895   3.710  49.267  1.00  0.00     0.069 C 
HETATM   19  C4  UNL     1      24.850   5.026  49.573  1.00  0.00     0.079 C 
BRANCH  19  20
HETATM   20  O1  UNL     1      24.090   5.424  50.628  1.00  0.00    -0.346 OA
BRANCH  20  21
HETATM   21  C2  UNL     1      22.781   5.837  50.724  1.00  0.00     0.120 C 
HETATM   22  C1  UNL     1      22.628   7.342  50.780  1.00  0.00     0.040 C 
HETATM   23  C3  UNL     1      22.131   5.204  51.930  1.00  0.00     0.040 C 
ENDBRANCH  20  21
ENDBRANCH  19  20
BRANCH  19  24
HETATM   24  C17 UNL     1      25.608   5.986  48.780  1.00  0.00    -0.001 C 
HETATM   25  C18 UNL     1      26.920   5.909  48.603  1.00  0.00     0.144 C 
HETATM   26  O2  UNL     1      27.395   6.927  47.820  1.00  0.00    -0.362 OA
HETATM   27  C19 UNL     1      26.418   7.941  47.672  1.00  0.00     0.179 C 
HETATM   28  C20 UNL     1      25.150   7.189  48.037  1.00  0.00     0.070 C 
ENDBRANCH  19  24
ENDBRANCH  14  18
ENDBRANCH  10  12
ENDBRANCH   1  10
TORSDOF 6
ENDMDL
MODEL 6
REMARK VINA RESULT:      -7.6      3.149      4.982
REMARK  6 active torsions:
REMARK  status: ('A' for Active; 'I' for Inactive)
REMARK    1  A    between atoms: C2_2  and  O1_4 
REMARK    2  A    between atoms: O1_4  and  C4_5 
REMARK    3  A    between atoms: C4_5  and  C17_23 
REMARK    4  A    between atoms: C5_6  and  C6_7 
REMARK    5  A    between atoms: C8_9  and  N1_10 
REMARK    6  A    between atoms: N1_10  and  C9_11 
ROOT
HETATM    1  C9  UNL     1      24.390   2.361  53.037  1.00  0.00     0.035 A 
HETATM    2  C10 UNL     1      23.522   1.298  52.866  1.00  0.00     0.032 A 
HETATM    3  C11 UNL     1      23.940   0.020  53.252  1.00  0.00     0.046 A 
HETATM    4  C12 UNL     1      25.179  -0.195  53.790  1.00  0.00     0.137 A 
HETATM    5  F1  UNL     1      25.647  -1.410  54.186  1.00  0.00    -0.204 F 
HETATM    6  C13 UNL     1      26.059   0.853  53.967  1.00  0.00     0.085 A 
HETATM    7  C14 UNL     1      27.388   0.674  54.536  1.00  0.00     0.102 C 
HETATM    8  N2  UNL     1      28.436   0.548  54.995  1.00  0.00    -0.191 NA
HETATM    9  C15 UNL     1      25.650   2.116  53.587  1.00  0.00     0.055 A 
ENDROOT
BRANCH   1  10
HETATM   10  N1  UNL     1      23.969   3.683  52.652  1.00  0.00    -0.341 N 
HETATM   11  H10 UNL     1      23.451   4.245  53.352  1.00  0.00     0.167 HD
BRANCH  10  12
HETATM   12  C8  UNL     1      24.304   4.104  51.333  1.00  0.00     0.131 A 
HETATM   13  C7  UNL     1      25.510   4.316  50.709  1.00  0.00     0.082 A 
HETATM   14  C6  UNL     1      25.524   4.713  49.413  1.00  0.00     0.064 A 
HETATM   15  N4  UNL     1      24.361   4.893  48.757  1.00  0.00    -0.242 NA
HETATM   16  C16 UNL     1      23.164   4.696  49.332  1.00  0.00     0.235 A 
HETATM   17  N3  UNL     1      23.154   4.297  50.636  1.00  0.00    -0.224 NA
BRANCH  14  18
HETATM   18  C5  UNL     1      26.806   4.941  48.784  1.00  0.00     0.069 C 
HETATM   19  C4  UNL     1      27.219   6.206  48.547  1.00  0.00     0.079 C 
BRANCH  19  20
HETATM   20  O1  UNL     1      26.409   7.236  48.911  1.00  0.00    -0.346 OA
BRANCH  20  21
HETATM   21  C2  UNL     1      26.257   7.923  50.093  1.00  0.00     0.120 C 
HETATM   22  C1  UNL     1      24.833   8.367  50.352  1.00  0.00     0.040 C 
HETATM   23  C3  UNL     1      27.184   9.114  50.116  1.00  0.00     0.040 C 
ENDBRANCH  20  21
ENDBRANCH  19  20
BRANCH  19  24
HETATM   24  C17 UNL     1      28.510   6.445  47.914  1.00  0.00    -0.001 C 
HETATM   25  C18 UNL     1      29.574   5.680  48.120  1.00  0.00     0.144 C 
HETATM   26  O2  UNL     1      30.664   6.113  47.412  1.00  0.00    -0.362 OA
HETATM   27  C19 UNL     1      30.446   7.416  46.905  1.00  0.00     0.179 C 
HETATM   28  C20 UNL     1      28.931   7.511  46.967  1.00  0.00     0.070 C 
ENDBRANCH  19  24
ENDBRANCH  14  18
ENDBRANCH  10  12
ENDBRANCH   1  10
TORSDOF 6
ENDMDL
MODEL 7
REMARK VINA RESULT:      -7.6      4.425      8.234
REMARK  6 active torsions:
REMARK  status: ('A' for Active; 'I' for Inactive)
REMARK    1  A    between atoms: C2_2  and  O1_4 
REMARK    2  A    between atoms: O1_4  and  C4_5 
REMARK    3  A    between atoms: C4_5  and  C17_23 
REMARK    4  A    between atoms: C5_6  and  C6_7 
REMARK    5  A    between atoms: C8_9  and  N1_10 
REMARK    6  A    between atoms: N1_10  and  C9_11 
ROOT
HETATM    1  C9  UNL     1      18.316   0.775  50.291  1.00  0.00     0.035 A 
HETATM    2  C10 UNL     1      17.056   1.275  50.022  1.00  0.00     0.032 A 
HETATM    3  C11 UNL     1      15.968   0.786  50.753  1.00  0.00     0.046 A 
HETATM    4  C12 UNL     1      16.127  -0.170  51.718  1.00  0.00     0.137 A 
HETATM    5  F1  UNL     1      15.113  -0.688  52.465  1.00  0.00    -0.204 F 
HETATM    6  C13 UNL     1      17.377  -0.682  52.000  1.00  0.00     0.085 A 
HETATM    7  C14 UNL     1      17.596  -1.700  53.019  1.00  0.00     0.102 C 
HETATM    8  N2  UNL     1      17.785  -2.494  53.830  1.00  0.00    -0.191 NA
HETATM    9  C15 UNL     1      18.453  -0.202  51.280  1.00  0.00     0.055 A 
ENDROOT
BRANCH   1  10
HETATM   10  N1  UNL     1      19.446   1.277  49.552  1.00  0.00    -0.341 N 
HETATM   11  H10 UNL     1      19.391   1.256  48.518  1.00  0.00     0.167 HD
BRANCH  10  12
HETATM   12  C8  UNL     1      20.547   1.761  50.316  1.00  0.00     0.131 A 
HETATM   13  C7  UNL     1      21.789   1.238  50.582  1.00  0.00     0.082 A 
HETATM   14  C6  UNL     1      22.655   1.944  51.350  1.00  0.00     0.064 A 
HETATM   15  N4  UNL     1      22.287   3.144  51.839  1.00  0.00    -0.242 NA
HETATM   16  C16 UNL     1      21.083   3.688  51.602  1.00  0.00     0.235 A 
HETATM   17  N3  UNL     1      20.215   2.974  50.829  1.00  0.00    -0.224 NA
BRANCH  14  18
HETATM   18  C5  UNL     1      23.951   1.365  51.624  1.00  0.00     0.069 C 
HETATM   19  C4  UNL     1      24.161   0.718  52.792  1.00  0.00     0.079 C 
BRANCH  19  20
HETATM   20  O1  UNL     1      23.137   0.630  53.682  1.00  0.00    -0.346 OA
BRANCH  20  21
HETATM   21  C2  UNL     1      22.157  -0.315  53.878  1.00  0.00     0.120 C 
HETATM   22  C1  UNL     1      20.785   0.279  54.114  1.00  0.00     0.040 C 
HETATM   23  C3  UNL     1      22.536  -1.216  55.029  1.00  0.00     0.040 C 
ENDBRANCH  20  21
ENDBRANCH  19  20
BRANCH  19  24
HETATM   24  C17 UNL     1      25.464   0.131  53.076  1.00  0.00    -0.001 C 
HETATM   25  C18 UNL     1      25.900  -0.114  54.305  1.00  0.00     0.144 C 
HETATM   26  O2  UNL     1      27.153  -0.666  54.308  1.00  0.00    -0.362 OA
HETATM   27  C19 UNL     1      27.757  -0.541  53.034  1.00  0.00     0.179 C 
HETATM   28  C20 UNL     1      26.544  -0.302  52.151  1.00  0.00     0.070 C 
ENDBRANCH  19  24
ENDBRANCH  14  18
ENDBRANCH  10  12
ENDBRANCH   1  10
TORSDOF 6
ENDMDL
MODEL 8
REMARK VINA RESULT:      -7.5      1.966      2.882
REMARK  6 active torsions:
REMARK  status: ('A' for Active; 'I' for Inactive)
REMARK    1  A    between atoms: C2_2  and  O1_4 
REMARK    2  A    between atoms: O1_4  and  C4_5 
REMARK    3  A    between atoms: C4_5  and  C17_23 
REMARK    4  A    between atoms: C5_6  and  C6_7 
REMARK    5  A    between atoms: C8_9  and  N1_10 
REMARK    6  A    between atoms: N1_10  and  C9_11 
ROOT
HETATM    1  C9  UNL     1      25.605  -0.773  54.254  1.00  0.00     0.035 A 
HETATM    2  C10 UNL     1      25.971  -1.656  53.255  1.00  0.00     0.032 A 
HETATM    3  C11 UNL     1      27.252  -1.551  52.702  1.00  0.00     0.046 A 
HETATM    4  C12 UNL     1      28.139  -0.601  53.127  1.00  0.00     0.137 A 
HETATM    5  F1  UNL     1      29.398  -0.446  52.633  1.00  0.00    -0.204 F 
HETATM    6  C13 UNL     1      27.791   0.289  54.123  1.00  0.00     0.085 A 
HETATM    7  C14 UNL     1      28.701   1.318  54.609  1.00  0.00     0.102 C 
HETATM    8  N2  UNL     1      29.414   2.127  55.010  1.00  0.00    -0.191 NA
HETATM    9  C15 UNL     1      26.528   0.190  54.670  1.00  0.00     0.055 A 
ENDROOT
BRANCH   1  10
HETATM   10  N1  UNL     1      24.292  -0.876  54.839  1.00  0.00    -0.341 N 
HETATM   11  H10 UNL     1      24.226  -1.227  55.811  1.00  0.00     0.167 HD
BRANCH  10  12
HETATM   12  C8  UNL     1      23.194  -0.481  54.021  1.00  0.00     0.131 A 
HETATM   13  C7  UNL     1      23.126   0.007  52.738  1.00  0.00     0.082 A 
HETATM   14  C6  UNL     1      21.913   0.293  52.202  1.00  0.00     0.064 A 
HETATM   15  N4  UNL     1      20.798   0.096  52.932  1.00  0.00    -0.242 NA
HETATM   16  C16 UNL     1      20.825  -0.379  54.188  1.00  0.00     0.235 A 
HETATM   17  N3  UNL     1      22.046  -0.665  54.723  1.00  0.00    -0.224 NA
BRANCH  14  18
HETATM   18  C5  UNL     1      21.870   0.816  50.856  1.00  0.00     0.069 C 
HETATM   19  C4  UNL     1      22.153   2.119  50.634  1.00  0.00     0.079 C 
BRANCH  19  20
HETATM   20  O1  UNL     1      22.473   2.906  51.696  1.00  0.00    -0.346 OA
BRANCH  20  21
HETATM   21  C2  UNL     1      23.584   3.662  51.988  1.00  0.00     0.120 C 
HETATM   22  C1  UNL     1      24.391   3.122  53.149  1.00  0.00     0.040 C 
HETATM   23  C3  UNL     1      23.175   5.090  52.260  1.00  0.00     0.040 C 
ENDBRANCH  20  21
ENDBRANCH  19  20
BRANCH  19  24
HETATM   24  C17 UNL     1      22.112   2.654  49.279  1.00  0.00    -0.001 C 
HETATM   25  C18 UNL     1      22.320   1.915  48.198  1.00  0.00     0.144 C 
HETATM   26  O2  UNL     1      22.228   2.650  47.046  1.00  0.00    -0.362 OA
HETATM   27  C19 UNL     1      22.243   4.035  47.335  1.00  0.00     0.179 C 
HETATM   28  C20 UNL     1      21.855   4.039  48.803  1.00  0.00     0.070 C 
ENDBRANCH  19  24
ENDBRANCH  14  18
ENDBRANCH  10  12
ENDBRANCH   1  10
TORSDOF 6
ENDMDL
MODEL 9
REMARK VINA RESULT:      -7.4      2.883      4.490
REMARK  6 active torsions:
REMARK  status: ('A' for Active; 'I' for Inactive)
REMARK    1  A    between atoms: C2_2  and  O1_4 
REMARK    2  A    between atoms: O1_4  and  C4_5 
REMARK    3  A    between atoms: C4_5  and  C17_23 
REMARK    4  A    between atoms: C5_6  and  C6_7 
REMARK    5  A    between atoms: C8_9  and  N1_10 
REMARK    6  A    between atoms: N1_10  and  C9_11 
ROOT
HETATM    1  C9  UNL     1      21.475   0.131  52.122  1.00  0.00     0.035 A 
HETATM    2  C10 UNL     1      20.504  -0.225  53.040  1.00  0.00     0.032 A 
HETATM    3  C11 UNL     1      20.905  -0.730  54.281  1.00  0.00     0.046 A 
HETATM    4  C12 UNL     1      22.227  -0.876  54.600  1.00  0.00     0.137 A 
HETATM    5  F1  UNL     1      22.684  -1.360  55.788  1.00  0.00    -0.204 F 
HETATM    6  C13 UNL     1      23.210  -0.527  53.697  1.00  0.00     0.085 A 
HETATM    7  C14 UNL     1      24.630  -0.664  53.992  1.00  0.00     0.102 C 
HETATM    8  N2  UNL     1      25.755  -0.756  54.216  1.00  0.00    -0.191 NA
HETATM    9  C15 UNL     1      22.818  -0.029  52.471  1.00  0.00     0.055 A 
ENDROOT
BRANCH   1  10
HETATM   10  N1  UNL     1      21.076   0.661  50.844  1.00  0.00    -0.341 N 
HETATM   11  H10 UNL     1      20.531   0.042  50.217  1.00  0.00     0.167 HD
BRANCH  10  12
HETATM   12  C8  UNL     1      21.469   2.000  50.554  1.00  0.00     0.131 A 
HETATM   13  C7  UNL     1      22.567   2.522  49.914  1.00  0.00     0.082 A 
HETATM   14  C6  UNL     1      22.673   3.867  49.771  1.00  0.00     0.064 A 
HETATM   15  N4  UNL     1      21.704   4.667  50.256  1.00  0.00    -0.242 NA
HETATM   16  C16 UNL     1      20.617   4.194  50.887  1.00  0.00     0.235 A 
HETATM   17  N3  UNL     1      20.515   2.842  51.029  1.00  0.00    -0.224 NA
BRANCH  14  18
HETATM   18  C5  UNL     1      23.844   4.391  49.105  1.00  0.00     0.069 C 
HETATM   19  C4  UNL     1      24.998   4.531  49.793  1.00  0.00     0.079 C 
BRANCH  19  20
HETATM   20  O1  UNL     1      25.024   4.171  51.104  1.00  0.00    -0.346 OA
BRANCH  20  21
HETATM   21  C2  UNL     1      25.035   2.946  51.729  1.00  0.00     0.120 C 
HETATM   22  C1  UNL     1      24.501   2.988  53.146  1.00  0.00     0.040 C 
HETATM   23  C3  UNL     1      26.433   2.378  51.719  1.00  0.00     0.040 C 
ENDBRANCH  20  21
ENDBRANCH  19  20
BRANCH  19  24
HETATM   24  C17 UNL     1      26.184   5.058  49.129  1.00  0.00    -0.001 C 
HETATM   25  C18 UNL     1      27.287   4.347  48.936  1.00  0.00     0.144 C 
HETATM   26  O2  UNL     1      28.257   5.067  48.291  1.00  0.00    -0.362 OA
HETATM   27  C19 UNL     1      27.936   6.445  48.285  1.00  0.00     0.179 C 
HETATM   28  C20 UNL     1      26.442   6.405  48.555  1.00  0.00     0.070 C 
ENDBRANCH  19  24
ENDBRANCH  14  18
ENDBRANCH  10  12
ENDBRANCH   1  10
TORSDOF 6
ENDMDL
