MODEL 1
REMARK VINA RESULT:      -8.3      0.000      0.000
REMARK  5 active torsions:
REMARK  status: ('A' for Active; 'I' for Inactive)
REMARK    1  A    between atoms: C2_2  and  O1_3 
REMARK    2  A    between atoms: O1_3  and  C3_4 
REMARK    3  A    between atoms: C6_7  and  C7_8 
REMARK    4  A    between atoms: C9_10  and  C11_12 
REMARK    5  A    between atoms: C11_12  and  C12_13 
ROOT
HETATM    1  C3  UNL     1      27.732   0.629  53.057  1.00  0.00     0.159 C 
HETATM    2  C4  UNL     1      26.512   0.284  53.458  1.00  0.00     0.032 C 
HETATM    3  C5  UNL     1      25.477   0.358  52.403  1.00  0.00     0.073 C 
HETATM    4  C6  UNL     1      24.174  -0.288  52.817  1.00  0.00     0.065 C 
HETATM    5  C20 UNL     1      24.142  -0.657  54.228  1.00  0.00     0.046 C 
HETATM    6  C21 UNL     1      22.887  -1.197  54.732  1.00  0.00     0.097 C 
HETATM    7  N1  UNL     1      21.865  -1.642  55.121  1.00  0.00    -0.192 NA
HETATM    8  C22 UNL     1      25.084  -0.601  55.180  1.00  0.00     0.107 C 
HETATM    9  N2  UNL     1      26.388  -0.098  54.821  1.00  0.00    -0.366 N 
HETATM   10  H25 UNL     1      27.165  -0.020  55.478  1.00  0.00     0.165 HD
ENDROOT
BRANCH   4  11
HETATM   11  C7  UNL     1      23.064   0.662  52.412  1.00  0.00    -0.073 C 
HETATM   12  C8  UNL     1      22.834   1.997  52.509  1.00  0.00    -0.014 C 
HETATM   13  C9  UNL     1      21.532   2.354  51.914  1.00  0.00    -0.022 C 
HETATM   14  C10 UNL     1      20.418   2.292  52.941  1.00  0.00     0.020 C 
HETATM   15  C18 UNL     1      21.303   1.170  50.952  1.00  0.00     0.018 C 
HETATM   16  C19 UNL     1      21.868   0.039  51.741  1.00  0.00     0.036 C 
BRANCH  13  17
HETATM   17  C11 UNL     1      21.457   3.576  51.088  1.00  0.00     0.053 C 
BRANCH  17  18
HETATM   18  C12 UNL     1      22.705   4.192  50.644  1.00  0.00    -0.035 A 
HETATM   19  C13 UNL     1      23.168   5.262  51.425  1.00  0.00     0.009 A 
HETATM   20  C14 UNL     1      24.297   6.016  51.202  1.00  0.00     0.001 A 
HETATM   21  C15 UNL     1      25.067   5.718  50.121  1.00  0.00     0.002 A 
HETATM   22  C16 UNL     1      24.681   4.681  49.302  1.00  0.00     0.024 A 
HETATM   23  C17 UNL     1      23.541   3.964  49.579  1.00  0.00     0.040 A 
HETATM   24 CL1  UNL     1      23.096   2.625  48.548  1.00  0.00    -0.084 Cl
ENDBRANCH  17  18
ENDBRANCH  13  17
ENDBRANCH   4  11
BRANCH   1  25
HETATM   25  O1  UNL     1      28.849   0.625  53.909  1.00  0.00    -0.361 OA
BRANCH  25  26
HETATM   26  C2  UNL     1      29.967  -0.169  53.605  1.00  0.00     0.170 C 
HETATM   27  C1  UNL     1      29.555  -1.619  53.419  1.00  0.00     0.034 C 
ENDBRANCH  25  26
ENDBRANCH   1  25
TORSDOF 5
ENDMDL
MODEL 2
REMARK VINA RESULT:      -8.3      2.505      3.879
REMARK  5 active torsions:
REMARK  status: ('A' for Active; 'I' for Inactive)
REMARK    1  A    between atoms: C2_2  and  O1_3 
REMARK    2  A    between atoms: O1_3  and  C3_4 
REMARK    3  A    between atoms: C6_7  and  C7_8 
REMARK    4  A    between atoms: C9_10  and  C11_12 
REMARK    5  A    between atoms: C11_12  and  C12_13 
ROOT
HETATM    1  C3  UNL     1      28.047   0.625  54.189  1.00  0.00     0.159 C 
HETATM    2  C4  UNL     1      27.111   1.131  53.391  1.00  0.00     0.032 C 
HETATM    3  C5  UNL     1      25.770   1.234  54.010  1.00  0.00     0.073 C 
HETATM    4  C6  UNL     1      24.805   2.050  53.180  1.00  0.00     0.065 C 
HETATM    5  C20 UNL     1      25.327   2.383  51.859  1.00  0.00     0.046 C 
HETATM    6  C21 UNL     1      24.422   3.083  50.959  1.00  0.00     0.097 C 
HETATM    7  N1  UNL     1      23.679   3.661  50.246  1.00  0.00    -0.192 NA
HETATM    8  C22 UNL     1      26.526   2.167  51.300  1.00  0.00     0.107 C 
HETATM    9  N2  UNL     1      27.532   1.492  52.083  1.00  0.00    -0.366 N 
HETATM   10  H25 UNL     1      28.472   1.285  51.741  1.00  0.00     0.165 HD
ENDROOT
BRANCH   4  11
HETATM   11  C7  UNL     1      23.499   1.280  53.141  1.00  0.00    -0.073 C 
HETATM   12  C8  UNL     1      22.202   1.566  52.857  1.00  0.00    -0.014 C 
HETATM   13  C9  UNL     1      21.354   0.367  52.993  1.00  0.00    -0.022 C 
HETATM   14  C10 UNL     1      20.806   0.233  54.402  1.00  0.00     0.020 C 
HETATM   15  C18 UNL     1      22.393  -0.761  52.823  1.00  0.00     0.018 C 
HETATM   16  C19 UNL     1      23.575  -0.177  53.516  1.00  0.00     0.036 C 
BRANCH  13  17
HETATM   17  C11 UNL     1      20.316   0.129  51.970  1.00  0.00     0.053 C 
BRANCH  17  18
HETATM   18  C12 UNL     1      20.331   0.950  50.762  1.00  0.00    -0.035 A 
HETATM   19  C13 UNL     1      21.286   0.597  49.797  1.00  0.00     0.009 A 
HETATM   20  C14 UNL     1      21.514   1.226  48.595  1.00  0.00     0.001 A 
HETATM   21  C15 UNL     1      20.749   2.306  48.279  1.00  0.00     0.002 A 
HETATM   22  C16 UNL     1      19.787   2.718  49.173  1.00  0.00     0.024 A 
HETATM   23  C17 UNL     1      19.608   2.045  50.359  1.00  0.00     0.040 A 
HETATM   24 CL1  UNL     1      18.352   2.563  51.459  1.00  0.00    -0.084 Cl
ENDBRANCH  17  18
ENDBRANCH  13  17
ENDBRANCH   4  11
BRANCH   1  25
HETATM   25  O1  UNL     1      29.381   0.446  53.787  1.00  0.00    -0.361 OA
BRANCH  25  26
HETATM   26  C2  UNL     1      29.981  -0.821  53.868  1.00  0.00     0.170 C 
HETATM   27  C1  UNL     1      29.115  -1.864  53.182  1.00  0.00     0.034 C 
ENDBRANCH  25  26
ENDBRANCH   1  25
TORSDOF 5
ENDMDL
MODEL 3
REMARK VINA RESULT:      -7.8      1.760      3.203
REMARK  5 active torsions:
REMARK  status: ('A' for Active; 'I' for Inactive)
REMARK    1  A    between atoms: C2_2  and  O1_3 
REMARK    2  A    between atoms: O1_3  and  C3_4 
REMARK    3  A    between atoms: C6_7  and  C7_8 
REMARK    4  A    between atoms: C9_10  and  C11_12 
REMARK    5  A    between atoms: C11_12  and  C12_13 
ROOT
HETATM    1  C3  UNL     1      27.576  -0.709  52.860  1.00  0.00     0.159 C 
HETATM    2  C4  UNL     1      26.308  -0.392  53.104  1.00  0.00     0.032 C 
HETATM    3  C5  UNL     1      25.688   0.483  52.083  1.00  0.00     0.073 C 
HETATM    4  C6  UNL     1      24.190   0.604  52.248  1.00  0.00     0.065 C 
HETATM    5  C20 UNL     1      23.703   0.011  53.490  1.00  0.00     0.046 C 
HETATM    6  C21 UNL     1      22.284   0.171  53.774  1.00  0.00     0.097 C 
HETATM    7  N1  UNL     1      21.129   0.300  53.983  1.00  0.00    -0.192 NA
HETATM    8  C22 UNL     1      24.333  -0.684  54.446  1.00  0.00     0.107 C 
HETATM    9  N2  UNL     1      25.745  -0.933  54.291  1.00  0.00    -0.366 N 
HETATM   10  H25 UNL     1      26.307  -1.453  54.968  1.00  0.00     0.165 HD
ENDROOT
BRANCH   4  11
HETATM   11  C7  UNL     1      23.849   2.074  52.102  1.00  0.00    -0.073 C 
HETATM   12  C8  UNL     1      23.068   2.821  51.279  1.00  0.00    -0.014 C 
HETATM   13  C9  UNL     1      23.140   4.250  51.635  1.00  0.00    -0.022 C 
HETATM   14  C10 UNL     1      24.255   4.954  50.885  1.00  0.00     0.020 C 
HETATM   15  C18 UNL     1      23.590   4.173  53.109  1.00  0.00     0.018 C 
HETATM   16  C19 UNL     1      24.521   3.011  53.071  1.00  0.00     0.036 C 
BRANCH  13  17
HETATM   17  C11 UNL     1      21.887   5.032  51.627  1.00  0.00     0.053 C 
BRANCH  17  18
HETATM   18  C12 UNL     1      20.707   4.446  50.998  1.00  0.00    -0.035 A 
HETATM   19  C13 UNL     1      19.866   3.709  51.846  1.00  0.00     0.009 A 
HETATM   20  C14 UNL     1      18.716   3.044  51.491  1.00  0.00     0.001 A 
HETATM   21  C15 UNL     1      18.323   3.087  50.189  1.00  0.00     0.002 A 
HETATM   22  C16 UNL     1      19.094   3.790  49.291  1.00  0.00     0.024 A 
HETATM   23  C17 UNL     1      20.235   4.435  49.709  1.00  0.00     0.040 A 
HETATM   24 CL1  UNL     1      21.172   5.355  48.557  1.00  0.00    -0.084 Cl
ENDBRANCH  17  18
ENDBRANCH  13  17
ENDBRANCH   4  11
BRANCH   1  25
HETATM   25  O1  UNL     1      28.338  -1.529  53.710  1.00  0.00    -0.361 OA
BRANCH  25  26
HETATM   26  C2  UNL     1      29.725  -1.339  53.818  1.00  0.00     0.170 C 
HETATM   27  C1  UNL     1      30.088   0.107  53.522  1.00  0.00     0.034 C 
ENDBRANCH  25  26
ENDBRANCH   1  25
TORSDOF 5
ENDMDL
MODEL 4
REMARK VINA RESULT:      -7.6      2.074      2.723
REMARK  5 active torsions:
REMARK  status: ('A' for Active; 'I' for Inactive)
REMARK    1  A    between atoms: C2_2  and  O1_3 
REMARK    2  A    between atoms: O1_3  and  C3_4 
REMARK    3  A    between atoms: C6_7  and  C7_8 
REMARK    4  A    between atoms: C9_10  and  C11_12 
REMARK    5  A    between atoms: C11_12  and  C12_13 
ROOT
HETATM    1  C3  UNL     1      27.524  -0.712  52.727  1.00  0.00     0.159 C 
HETATM    2  C4  UNL     1      26.266  -0.393  53.017  1.00  0.00     0.032 C 
HETATM    3  C5  UNL     1      25.615   0.495  52.028  1.00  0.00     0.073 C 
HETATM    4  C6  UNL     1      24.124   0.620  52.246  1.00  0.00     0.065 C 
HETATM    5  C20 UNL     1      23.677   0.015  53.496  1.00  0.00     0.046 C 
HETATM    6  C21 UNL     1      22.269   0.176  53.830  1.00  0.00     0.097 C 
HETATM    7  N1  UNL     1      21.122   0.307  54.080  1.00  0.00    -0.192 NA
HETATM    8  C22 UNL     1      24.337  -0.693  54.423  1.00  0.00     0.107 C 
HETATM    9  N2  UNL     1      25.742  -0.945  54.217  1.00  0.00    -0.366 N 
HETATM   10  H25 UNL     1      26.324  -1.475  54.869  1.00  0.00     0.165 HD
ENDROOT
BRANCH   4  11
HETATM   11  C7  UNL     1      23.784   2.092  52.128  1.00  0.00    -0.073 C 
HETATM   12  C8  UNL     1      22.954   2.848  51.362  1.00  0.00    -0.014 C 
HETATM   13  C9  UNL     1      23.059   4.275  51.717  1.00  0.00    -0.022 C 
HETATM   14  C10 UNL     1      24.125   4.974  50.894  1.00  0.00     0.020 C 
HETATM   15  C18 UNL     1      23.608   4.190  53.156  1.00  0.00     0.018 C 
HETATM   16  C19 UNL     1      24.527   3.022  53.051  1.00  0.00     0.036 C 
BRANCH  13  17
HETATM   17  C11 UNL     1      21.814   5.066  51.797  1.00  0.00     0.053 C 
BRANCH  17  18
HETATM   18  C12 UNL     1      21.446   5.899  50.656  1.00  0.00    -0.035 A 
HETATM   19  C13 UNL     1      21.714   7.270  50.789  1.00  0.00     0.009 A 
HETATM   20  C14 UNL     1      21.439   8.256  49.871  1.00  0.00     0.001 A 
HETATM   21  C15 UNL     1      20.847   7.898  48.700  1.00  0.00     0.002 A 
HETATM   22  C16 UNL     1      20.550   6.570  48.489  1.00  0.00     0.024 A 
HETATM   23  C17 UNL     1      20.850   5.631  49.448  1.00  0.00     0.040 A 
HETATM   24 CL1  UNL     1      20.502   3.946  49.139  1.00  0.00    -0.084 Cl
ENDBRANCH  17  18
ENDBRANCH  13  17
ENDBRANCH   4  11
BRANCH   1  25
HETATM   25  O1  UNL     1      28.311  -1.543  53.541  1.00  0.00    -0.361 OA
BRANCH  25  26
HETATM   26  C2  UNL     1      29.603  -1.144  53.921  1.00  0.00     0.170 C 
HETATM   27  C1  UNL     1      29.873   0.281  53.466  1.00  0.00     0.034 C 
ENDBRANCH  25  26
ENDBRANCH   1  25
TORSDOF 5
ENDMDL
MODEL 5
REMARK VINA RESULT:      -7.6      2.781      5.220
REMARK  5 active torsions:
REMARK  status: ('A' for Active; 'I' for Inactive)
REMARK    1  A    between atoms: C2_2  and  O1_3 
REMARK    2  A    between atoms: O1_3  and  C3_4 
REMARK    3  A    between atoms: C6_7  and  C7_8 
REMARK    4  A    between atoms: C9_10  and  C11_12 
REMARK    5  A    between atoms: C11_12  and  C12_13 
ROOT
HETATM    1  C3  UNL     1      26.811   1.590  53.888  1.00  0.00     0.159 C 
HETATM    2  C4  UNL     1      26.245   2.197  52.849  1.00  0.00     0.032 C 
HETATM    3  C5  UNL     1      24.833   2.584  53.062  1.00  0.00     0.073 C 
HETATM    4  C6  UNL     1      24.308   3.497  51.977  1.00  0.00     0.065 C 
HETATM    5  C20 UNL     1      25.226   3.634  50.850  1.00  0.00     0.046 C 
HETATM    6  C21 UNL     1      24.755   4.418  49.718  1.00  0.00     0.097 C 
HETATM    7  N1  UNL     1      24.362   5.066  48.813  1.00  0.00    -0.192 NA
HETATM    8  C22 UNL     1      26.467   3.165  50.658  1.00  0.00     0.107 C 
HETATM    9  N2  UNL     1      27.070   2.379  51.707  1.00  0.00    -0.366 N 
HETATM   10  H25 UNL     1      28.010   1.982  51.649  1.00  0.00     0.165 HD
ENDROOT
BRANCH   4  11
HETATM   11  C7  UNL     1      22.940   2.974  51.585  1.00  0.00    -0.073 C 
HETATM   12  C8  UNL     1      22.462   1.930  50.859  1.00  0.00    -0.014 C 
HETATM   13  C9  UNL     1      20.987   1.938  50.828  1.00  0.00    -0.022 C 
HETATM   14  C10 UNL     1      20.462   2.736  49.650  1.00  0.00     0.020 C 
HETATM   15  C18 UNL     1      20.662   2.763  52.091  1.00  0.00     0.018 C 
HETATM   16  C19 UNL     1      21.759   3.772  52.073  1.00  0.00     0.036 C 
BRANCH  13  17
HETATM   17  C11 UNL     1      20.281   0.650  50.985  1.00  0.00     0.053 C 
BRANCH  17  18
HETATM   18  C12 UNL     1      20.534  -0.139  52.187  1.00  0.00    -0.035 A 
HETATM   19  C13 UNL     1      21.885  -0.354  52.503  1.00  0.00     0.009 A 
HETATM   20  C14 UNL     1      22.377  -1.080  53.562  1.00  0.00     0.001 A 
HETATM   21  C15 UNL     1      21.489  -1.662  54.412  1.00  0.00     0.002 A 
HETATM   22  C16 UNL     1      20.143  -1.499  54.172  1.00  0.00     0.024 A 
HETATM   23  C17 UNL     1      19.713  -0.761  53.095  1.00  0.00     0.040 A 
HETATM   24 CL1  UNL     1      18.000  -0.534  52.837  1.00  0.00    -0.084 Cl
ENDBRANCH  17  18
ENDBRANCH  13  17
ENDBRANCH   4  11
BRANCH   1  25
HETATM   25  O1  UNL     1      28.144   1.146  53.883  1.00  0.00    -0.361 OA
BRANCH  25  26
HETATM   26  C2  UNL     1      28.445  -0.191  54.194  1.00  0.00     0.170 C 
HETATM   27  C1  UNL     1      29.772  -0.595  53.574  1.00  0.00     0.034 C 
ENDBRANCH  25  26
ENDBRANCH   1  25
TORSDOF 5
ENDMDL
MODEL 6
REMARK VINA RESULT:      -7.5      3.125      5.545
REMARK  5 active torsions:
REMARK  status: ('A' for Active; 'I' for Inactive)
REMARK    1  A    between atoms: C2_2  and  O1_3 
REMARK    2  A    between atoms: O1_3  and  C3_4 
REMARK    3  A    between atoms: C6_7  and  C7_8 
REMARK    4  A    between atoms: C9_10  and  C11_12 
REMARK    5  A    between atoms: C11_12  and  C12_13 
ROOT
HETATM    1  C3  UNL     1      19.349   0.152  52.504  1.00  0.00     0.159 C 
HETATM    2  C4  UNL     1      20.635   0.001  52.808  1.00  0.00     0.032 C 
HETATM    3  C5  UNL     1      21.415   1.259  52.811  1.00  0.00     0.073 C 
HETATM    4  C6  UNL     1      22.792   1.091  53.413  1.00  0.00     0.065 C 
HETATM    5  C20 UNL     1      23.138  -0.303  53.669  1.00  0.00     0.046 C 
HETATM    6  C21 UNL     1      24.485  -0.560  54.158  1.00  0.00     0.097 C 
HETATM    7  N1  UNL     1      25.577  -0.750  54.564  1.00  0.00    -0.192 NA
HETATM    8  C22 UNL     1      22.423  -1.430  53.544  1.00  0.00     0.107 C 
HETATM    9  N2  UNL     1      21.061  -1.327  53.081  1.00  0.00    -0.366 N 
HETATM   10  H25 UNL     1      20.442  -2.130  52.956  1.00  0.00     0.165 HD
ENDROOT
BRANCH   4  11
HETATM   11  C7  UNL     1      23.765   1.798  52.490  1.00  0.00    -0.073 C 
HETATM   12  C8  UNL     1      24.307   1.557  51.268  1.00  0.00    -0.014 C 
HETATM   13  C9  UNL     1      25.222   2.644  50.870  1.00  0.00    -0.022 C 
HETATM   14  C10 UNL     1      26.641   2.370  51.331  1.00  0.00     0.020 C 
HETATM   15  C18 UNL     1      24.702   3.810  51.737  1.00  0.00     0.018 C 
HETATM   16  C19 UNL     1      24.334   3.099  52.994  1.00  0.00     0.036 C 
BRANCH  13  17
HETATM   17  C11 UNL     1      25.174   3.117  49.472  1.00  0.00     0.053 C 
BRANCH  17  18
HETATM   18  C12 UNL     1      25.724   4.434  49.165  1.00  0.00    -0.035 A 
HETATM   19  C13 UNL     1      27.100   4.471  48.892  1.00  0.00     0.009 A 
HETATM   20  C14 UNL     1      27.852   5.586  48.603  1.00  0.00     0.001 A 
HETATM   21  C15 UNL     1      27.227   6.793  48.568  1.00  0.00     0.002 A 
HETATM   22  C16 UNL     1      25.876   6.844  48.825  1.00  0.00     0.024 A 
HETATM   23  C17 UNL     1      25.179   5.693  49.109  1.00  0.00     0.040 A 
HETATM   24 CL1  UNL     1      23.456   5.779  49.390  1.00  0.00    -0.084 Cl
ENDBRANCH  17  18
ENDBRANCH  13  17
ENDBRANCH   4  11
BRANCH   1  25
HETATM   25  O1  UNL     1      18.444  -0.921  52.449  1.00  0.00    -0.361 OA
BRANCH  25  26
HETATM   26  C2  UNL     1      17.691  -1.269  53.583  1.00  0.00     0.170 C 
HETATM   27  C1  UNL     1      17.578  -2.780  53.701  1.00  0.00     0.034 C 
ENDBRANCH  25  26
ENDBRANCH   1  25
TORSDOF 5
ENDMDL
MODEL 7
REMARK VINA RESULT:      -7.2      4.446      7.830
REMARK  5 active torsions:
REMARK  status: ('A' for Active; 'I' for Inactive)
REMARK    1  A    between atoms: C2_2  and  O1_3 
REMARK    2  A    between atoms: O1_3  and  C3_4 
REMARK    3  A    between atoms: C6_7  and  C7_8 
REMARK    4  A    between atoms: C9_10  and  C11_12 
REMARK    5  A    between atoms: C11_12  and  C12_13 
ROOT
HETATM    1  C3  UNL     1      20.695   3.152  46.948  1.00  0.00     0.159 C 
HETATM    2  C4  UNL     1      21.706   3.654  47.651  1.00  0.00     0.032 C 
HETATM    3  C5  UNL     1      22.481   2.649  48.412  1.00  0.00     0.073 C 
HETATM    4  C6  UNL     1      23.766   3.210  48.978  1.00  0.00     0.065 C 
HETATM    5  C20 UNL     1      23.870   4.658  48.837  1.00  0.00     0.046 C 
HETATM    6  C21 UNL     1      25.032   5.290  49.444  1.00  0.00     0.097 C 
HETATM    7  N1  UNL     1      25.987   5.785  49.932  1.00  0.00    -0.192 NA
HETATM    8  C22 UNL     1      23.074   5.547  48.226  1.00  0.00     0.107 C 
HETATM    9  N2  UNL     1      21.887   5.061  47.567  1.00  0.00    -0.366 N 
HETATM   10  H25 UNL     1      21.224   5.664  47.076  1.00  0.00     0.165 HD
ENDROOT
BRANCH   4  11
HETATM   11  C7  UNL     1      23.860   2.731  50.414  1.00  0.00    -0.073 C 
HETATM   12  C8  UNL     1      24.837   2.242  51.221  1.00  0.00    -0.014 C 
HETATM   13  C9  UNL     1      24.310   1.940  52.566  1.00  0.00    -0.022 C 
HETATM   14  C10 UNL     1      23.801   0.514  52.655  1.00  0.00     0.020 C 
HETATM   15  C18 UNL     1      23.065   2.850  52.614  1.00  0.00     0.018 C 
HETATM   16  C19 UNL     1      22.580   2.759  51.208  1.00  0.00     0.036 C 
BRANCH  13  17
HETATM   17  C11 UNL     1      25.136   2.309  53.734  1.00  0.00     0.053 C 
BRANCH  17  18
HETATM   18  C12 UNL     1      26.432   1.659  53.901  1.00  0.00    -0.035 A 
HETATM   19  C13 UNL     1      27.535   2.356  53.386  1.00  0.00     0.009 A 
HETATM   20  C14 UNL     1      28.848   1.946  53.397  1.00  0.00     0.001 A 
HETATM   21  C15 UNL     1      29.141   0.743  53.960  1.00  0.00     0.002 A 
HETATM   22  C16 UNL     1      28.114  -0.006  54.489  1.00  0.00     0.024 A 
HETATM   23  C17 UNL     1      26.821   0.461  54.447  1.00  0.00     0.040 A 
HETATM   24 CL1  UNL     1      25.542  -0.490  55.164  1.00  0.00    -0.084 Cl
ENDBRANCH  17  18
ENDBRANCH  13  17
ENDBRANCH   4  11
BRANCH   1  25
HETATM   25  O1  UNL     1      19.842   3.943  46.160  1.00  0.00    -0.361 OA
BRANCH  25  26
HETATM   26  C2  UNL     1      19.616   3.614  44.813  1.00  0.00     0.170 C 
HETATM   27  C1  UNL     1      20.763   4.105  43.946  1.00  0.00     0.034 C 
ENDBRANCH  25  26
ENDBRANCH   1  25
TORSDOF 5
ENDMDL
MODEL 8
REMARK VINA RESULT:      -7.1      1.866      2.552
REMARK  5 active torsions:
REMARK  status: ('A' for Active; 'I' for Inactive)
REMARK    1  A    between atoms: C2_2  and  O1_3 
REMARK    2  A    between atoms: O1_3  and  C3_4 
REMARK    3  A    between atoms: C6_7  and  C7_8 
REMARK    4  A    between atoms: C9_10  and  C11_12 
REMARK    5  A    between atoms: C11_12  and  C12_13 
ROOT
HETATM    1  C3  UNL     1      25.327  -0.200  53.655  1.00  0.00     0.159 C 
HETATM    2  C4  UNL     1      23.998  -0.239  53.620  1.00  0.00     0.032 C 
HETATM    3  C5  UNL     1      23.403   0.271  52.363  1.00  0.00     0.073 C 
HETATM    4  C6  UNL     1      21.926  -0.032  52.251  1.00  0.00     0.065 C 
HETATM    5  C20 UNL     1      21.358  -0.569  53.483  1.00  0.00     0.046 C 
HETATM    6  C21 UNL     1      19.920  -0.796  53.492  1.00  0.00     0.097 C 
HETATM    7  N1  UNL     1      18.754  -0.983  53.478  1.00  0.00    -0.192 NA
HETATM    8  C22 UNL     1      21.929  -0.914  54.645  1.00  0.00     0.107 C 
HETATM    9  N2  UNL     1      23.357  -0.756  54.777  1.00  0.00    -0.366 N 
HETATM   10  H25 UNL     1      23.878  -0.993  55.624  1.00  0.00     0.165 HD
ENDROOT
BRANCH   4  11
HETATM   11  C7  UNL     1      21.252   1.240  51.776  1.00  0.00    -0.073 C 
HETATM   12  C8  UNL     1      21.111   2.508  52.243  1.00  0.00    -0.014 C 
HETATM   13  C9  UNL     1      20.321   3.332  51.309  1.00  0.00    -0.022 C 
HETATM   14  C10 UNL     1      18.840   3.265  51.627  1.00  0.00     0.020 C 
HETATM   15  C18 UNL     1      20.516   2.562  49.986  1.00  0.00     0.018 C 
HETATM   16  C19 UNL     1      20.514   1.151  50.466  1.00  0.00     0.036 C 
BRANCH  13  17
HETATM   17  C11 UNL     1      20.771   4.715  51.051  1.00  0.00     0.053 C 
BRANCH  17  18
HETATM   18  C12 UNL     1      22.106   4.918  50.494  1.00  0.00    -0.035 A 
HETATM   19  C13 UNL     1      22.170   5.066  49.100  1.00  0.00     0.009 A 
HETATM   20  C14 UNL     1      23.304   5.243  48.343  1.00  0.00     0.001 A 
HETATM   21  C15 UNL     1      24.504   5.285  48.980  1.00  0.00     0.002 A 
HETATM   22  C16 UNL     1      24.529   5.147  50.350  1.00  0.00     0.024 A 
HETATM   23  C17 UNL     1      23.359   4.973  51.052  1.00  0.00     0.040 A 
HETATM   24 CL1  UNL     1      23.414   4.843  52.793  1.00  0.00    -0.084 Cl
ENDBRANCH  17  18
ENDBRANCH  13  17
ENDBRANCH   4  11
BRANCH   1  25
HETATM   25  O1  UNL     1      26.077  -0.638  54.758  1.00  0.00    -0.361 OA
BRANCH  25  26
HETATM   26  C2  UNL     1      27.367  -0.129  54.984  1.00  0.00     0.170 C 
HETATM   27  C1  UNL     1      28.177  -0.146  53.699  1.00  0.00     0.034 C 
ENDBRANCH  25  26
ENDBRANCH   1  25
TORSDOF 5
ENDMDL
MODEL 9
REMARK VINA RESULT:      -7.1      3.645      7.050
REMARK  5 active torsions:
REMARK  status: ('A' for Active; 'I' for Inactive)
REMARK    1  A    between atoms: C2_2  and  O1_3 
REMARK    2  A    between atoms: O1_3  and  C3_4 
REMARK    3  A    between atoms: C6_7  and  C7_8 
REMARK    4  A    between atoms: C9_10  and  C11_12 
REMARK    5  A    between atoms: C11_12  and  C12_13 
ROOT
HETATM    1  C3  UNL     1      25.006   8.069  49.719  1.00  0.00     0.159 C 
HETATM    2  C4  UNL     1      24.120   7.129  50.035  1.00  0.00     0.032 C 
HETATM    3  C5  UNL     1      24.478   6.325  51.224  1.00  0.00     0.073 C 
HETATM    4  C6  UNL     1      23.338   5.457  51.708  1.00  0.00     0.065 C 
HETATM    5  C20 UNL     1      22.207   5.434  50.786  1.00  0.00     0.046 C 
HETATM    6  C21 UNL     1      21.106   4.545  51.129  1.00  0.00     0.097 C 
HETATM    7  N1  UNL     1      20.218   3.826  51.427  1.00  0.00    -0.192 NA
HETATM    8  C22 UNL     1      21.976   6.107  49.651  1.00  0.00     0.107 C 
HETATM    9  N2  UNL     1      22.978   7.039  49.194  1.00  0.00    -0.366 N 
HETATM   10  H25 UNL     1      22.889   7.595  48.341  1.00  0.00     0.165 HD
ENDROOT
BRANCH   4  11
HETATM   11  C7  UNL     1      23.919   4.085  51.989  1.00  0.00    -0.073 C 
HETATM   12  C8  UNL     1      23.630   3.051  52.822  1.00  0.00    -0.014 C 
HETATM   13  C9  UNL     1      24.583   1.941  52.637  1.00  0.00    -0.022 C 
HETATM   14  C10 UNL     1      25.783   2.081  53.555  1.00  0.00     0.020 C 
HETATM   15  C18 UNL     1      25.096   2.215  51.208  1.00  0.00     0.018 C 
HETATM   16  C19 UNL     1      25.141   3.704  51.194  1.00  0.00     0.036 C 
BRANCH  13  17
HETATM   17  C11 UNL     1      24.051   0.563  52.627  1.00  0.00     0.053 C 
BRANCH  17  18
HETATM   18  C12 UNL     1      22.609   0.374  52.754  1.00  0.00    -0.035 A 
HETATM   19  C13 UNL     1      22.151   0.011  54.030  1.00  0.00     0.009 A 
HETATM   20  C14 UNL     1      20.851  -0.246  54.396  1.00  0.00     0.001 A 
HETATM   21  C15 UNL     1      19.883  -0.145  53.445  1.00  0.00     0.002 A 
HETATM   22  C16 UNL     1      20.248   0.207  52.166  1.00  0.00     0.024 A 
HETATM   23  C17 UNL     1      21.567   0.451  51.863  1.00  0.00     0.040 A 
HETATM   24 CL1  UNL     1      22.000   0.938  50.241  1.00  0.00    -0.084 Cl
ENDBRANCH  17  18
ENDBRANCH  13  17
ENDBRANCH   4  11
BRANCH   1  25
HETATM   25  O1  UNL     1      24.847   8.935  48.624  1.00  0.00    -0.361 OA
BRANCH  25  26
HETATM   26  C2  UNL     1      25.757   8.896  47.554  1.00  0.00     0.170 C 
HETATM   27  C1  UNL     1      26.681   7.697  47.685  1.00  0.00     0.034 C 
ENDBRANCH  25  26
ENDBRANCH   1  25
TORSDOF 5
ENDMDL
