MODEL 1
REMARK VINA RESULT:      -7.8      0.000      0.000
REMARK  8 active torsions:
REMARK  status: ('A' for Active; 'I' for Inactive)
REMARK    1  A    between atoms: N1_2  and  C2_3 
REMARK    2  A    between atoms: C3_4  and  C4_5 
REMARK    3  A    between atoms: C3_4  and  C6_8 
REMARK    4  A    between atoms: C8_12  and  C9_13 
REMARK    5  A    between atoms: C9_13  and  C10_14 
REMARK    6  A    between atoms: C10_14  and  O1_15 
REMARK    7  A    between atoms: O1_15  and  C11_16 
REMARK    8  A    between atoms: C11_16  and  C12_17 
ROOT
HETATM    1  C4  UNL     1      27.089   0.062  54.447  1.00  0.00     0.161 C 
HETATM    2  C5  UNL     1      28.303   0.862  54.639  1.00  0.00     0.063 C 
HETATM    3  N2  UNL     1      29.254   1.500  54.772  1.00  0.00    -0.197 NA
ENDROOT
BRANCH   1   4
HETATM    4  C3  UNL     1      26.765   0.077  53.028  1.00  0.00    -0.025 C 
HETATM    5  C2  UNL     1      26.886  -1.027  52.312  1.00  0.00     0.121 C 
BRANCH   5   6
HETATM    6  N1  UNL     1      27.337  -2.095  53.100  1.00  0.00    -0.283 NA
HETATM    7  C1  UNL     1      28.422  -2.748  52.985  1.00  0.00     0.148 C 
ENDBRANCH   5   6
BRANCH   4   8
HETATM    8  C6  UNL     1      26.337   1.456  52.700  1.00  0.00     0.152 C 
HETATM    9  N3  UNL     1      27.291   2.193  51.955  1.00  0.00    -0.226 NA
HETATM   10  N4  UNL     1      26.802   3.190  51.127  1.00  0.00    -0.320 N 
HETATM   11  H7  UNL     1      28.061   2.614  52.555  1.00  0.00     0.147 HD
HETATM   12  C7  UNL     1      25.485   3.277  50.584  1.00  0.00     0.044 C 
HETATM   13  H8  UNL     1      27.453   3.974  50.858  1.00  0.00     0.181 HD
HETATM   14  C8  UNL     1      25.047   4.083  49.633  1.00  0.00     0.032 C 
HETATM   15  C18 UNL     1      24.557   2.327  51.212  1.00  0.00     0.052 C 
HETATM   16  C19 UNL     1      24.955   1.517  52.160  1.00  0.00     0.037 C 
HETATM   17 CL1  UNL     1      23.814   0.397  52.881  1.00  0.00    -0.087 Cl
BRANCH  14  18
HETATM   18  C9  UNL     1      26.111   4.899  49.192  1.00  0.00     0.026 C 
BRANCH  18  19
HETATM   19  C10 UNL     1      27.051   5.562  48.643  1.00  0.00     0.135 C 
BRANCH  19  20
HETATM   20  O1  UNL     1      28.343   5.547  48.190  1.00  0.00    -0.359 OA
BRANCH  20  21
HETATM   21  C11 UNL     1      29.068   6.649  47.698  1.00  0.00     0.213 C 
BRANCH  21  22
HETATM   22  C12 UNL     1      30.506   6.450  48.054  1.00  0.00    -0.034 A 
HETATM   23  C13 UNL     1      31.184   7.470  48.722  1.00  0.00     0.012 A 
HETATM   24  C14 UNL     1      32.505   7.277  49.042  1.00  0.00     0.043 A 
HETATM   25  C15 UNL     1      33.123   6.080  48.695  1.00  0.00     0.116 A 
HETATM   26  F1  UNL     1      34.414   5.992  49.053  1.00  0.00    -0.206 F 
HETATM   27  C16 UNL     1      32.475   5.059  48.036  1.00  0.00     0.043 A 
HETATM   28  C17 UNL     1      31.141   5.271  47.720  1.00  0.00     0.012 A 
ENDBRANCH  21  22
ENDBRANCH  20  21
ENDBRANCH  19  20
ENDBRANCH  18  19
ENDBRANCH  14  18
ENDBRANCH   4   8
ENDBRANCH   1   4
TORSDOF 8
ENDMDL
MODEL 2
REMARK VINA RESULT:      -7.7      4.444      8.645
REMARK  8 active torsions:
REMARK  status: ('A' for Active; 'I' for Inactive)
REMARK    1  A    between atoms: N1_2  and  C2_3 
REMARK    2  A    between atoms: C3_4  and  C4_5 
REMARK    3  A    between atoms: C3_4  and  C6_8 
REMARK    4  A    between atoms: C8_12  and  C9_13 
REMARK    5  A    between atoms: C9_13  and  C10_14 
REMARK    6  A    between atoms: C10_14  and  O1_15 
REMARK    7  A    between atoms: O1_15  and  C11_16 
REMARK    8  A    between atoms: C11_16  and  C12_17 
ROOT
HETATM    1  C4  UNL     1      25.748   9.173  49.400  1.00  0.00     0.161 C 
HETATM    2  C5  UNL     1      27.177   9.398  49.640  1.00  0.00     0.063 C 
HETATM    3  N2  UNL     1      28.305   9.562  49.814  1.00  0.00    -0.197 NA
ENDROOT
BRANCH   1   4
HETATM    4  C3  UNL     1      25.610   7.919  48.674  1.00  0.00    -0.025 C 
HETATM    5  C2  UNL     1      25.060   7.910  47.472  1.00  0.00     0.121 C 
BRANCH   5   6
HETATM    6  N1  UNL     1      24.679   9.201  47.080  1.00  0.00    -0.283 NA
HETATM    7  C1  UNL     1      24.666   9.690  45.905  1.00  0.00     0.148 C 
ENDBRANCH   5   6
BRANCH   4   8
HETATM    8  C6  UNL     1      26.172   6.857  49.539  1.00  0.00     0.152 C 
HETATM    9  N3  UNL     1      25.212   6.211  50.357  1.00  0.00    -0.226 NA
HETATM   10  N4  UNL     1      25.481   4.902  50.720  1.00  0.00    -0.320 N 
HETATM   11  H7  UNL     1      24.975   6.755  51.239  1.00  0.00     0.147 HD
HETATM   12  C7  UNL     1      26.335   3.986  50.036  1.00  0.00     0.044 C 
HETATM   13  H8  UNL     1      25.016   4.523  51.587  1.00  0.00     0.181 HD
HETATM   14  C8  UNL     1      26.450   2.683  50.224  1.00  0.00     0.032 C 
HETATM   15  C18 UNL     1      27.159   4.645  49.015  1.00  0.00     0.052 C 
HETATM   16  C19 UNL     1      27.075   5.935  48.804  1.00  0.00     0.037 C 
HETATM   17 CL1  UNL     1      28.078   6.681  47.575  1.00  0.00    -0.087 Cl
BRANCH  14  18
HETATM   18  C9  UNL     1      25.567   2.284  51.250  1.00  0.00     0.026 C 
BRANCH  18  19
HETATM   19  C10 UNL     1      24.902   1.934  52.280  1.00  0.00     0.135 C 
BRANCH  19  20
HETATM   20  O1  UNL     1      24.894   1.205  53.439  1.00  0.00    -0.359 OA
BRANCH  20  21
HETATM   21  C11 UNL     1      25.123  -0.179  53.557  1.00  0.00     0.213 C 
BRANCH  21  22
HETATM   22  C12 UNL     1      26.598  -0.393  53.663  1.00  0.00    -0.034 A 
HETATM   23  C13 UNL     1      27.193  -1.390  52.890  1.00  0.00     0.012 A 
HETATM   24  C14 UNL     1      28.549  -1.581  52.997  1.00  0.00     0.043 A 
HETATM   25  C15 UNL     1      29.283  -0.780  53.865  1.00  0.00     0.116 A 
HETATM   26  F1  UNL     1      30.599  -1.046  53.895  1.00  0.00    -0.206 F 
HETATM   27  C16 UNL     1      28.719   0.211  54.638  1.00  0.00     0.043 A 
HETATM   28  C17 UNL     1      27.349   0.389  54.517  1.00  0.00     0.012 A 
ENDBRANCH  21  22
ENDBRANCH  20  21
ENDBRANCH  19  20
ENDBRANCH  18  19
ENDBRANCH  14  18
ENDBRANCH   4   8
ENDBRANCH   1   4
TORSDOF 8
ENDMDL
MODEL 3
REMARK VINA RESULT:      -7.7      3.809      8.213
REMARK  8 active torsions:
REMARK  status: ('A' for Active; 'I' for Inactive)
REMARK    1  A    between atoms: N1_2  and  C2_3 
REMARK    2  A    between atoms: C3_4  and  C4_5 
REMARK    3  A    between atoms: C3_4  and  C6_8 
REMARK    4  A    between atoms: C8_12  and  C9_13 
REMARK    5  A    between atoms: C9_13  and  C10_14 
REMARK    6  A    between atoms: C10_14  and  O1_15 
REMARK    7  A    between atoms: O1_15  and  C11_16 
REMARK    8  A    between atoms: C11_16  and  C12_17 
ROOT
HETATM    1  C4  UNL     1      29.939   6.863  47.277  1.00  0.00     0.161 C 
HETATM    2  C5  UNL     1      30.742   5.742  47.774  1.00  0.00     0.063 C 
HETATM    3  N2  UNL     1      31.359   4.855  48.179  1.00  0.00    -0.197 NA
ENDROOT
BRANCH   1   4
HETATM    4  C3  UNL     1      28.938   7.177  48.286  1.00  0.00    -0.025 C 
HETATM    5  C2  UNL     1      29.081   8.249  49.046  1.00  0.00     0.121 C 
BRANCH   5   6
HETATM    6  N1  UNL     1      30.255   8.944  48.724  1.00  0.00    -0.283 NA
HETATM    7  C1  UNL     1      30.607  10.105  49.109  1.00  0.00     0.148 C 
ENDBRANCH   5   6
BRANCH   4   8
HETATM    8  C6  UNL     1      27.904   6.120  48.209  1.00  0.00     0.152 C 
HETATM    9  N3  UNL     1      28.052   5.098  49.179  1.00  0.00    -0.226 NA
HETATM   10  N4  UNL     1      26.898   4.441  49.575  1.00  0.00    -0.320 N 
HETATM   11  H7  UNL     1      28.772   4.362  48.910  1.00  0.00     0.147 HD
HETATM   12  C7  UNL     1      25.563   4.939  49.491  1.00  0.00     0.044 C 
HETATM   13  H8  UNL     1      26.994   3.475  49.984  1.00  0.00     0.181 HD
HETATM   14  C8  UNL     1      24.472   4.442  50.046  1.00  0.00     0.032 C 
HETATM   15  C18 UNL     1      25.469   6.151  48.667  1.00  0.00     0.052 C 
HETATM   16  C19 UNL     1      26.528   6.669  48.098  1.00  0.00     0.037 C 
HETATM   17 CL1  UNL     1      26.370   8.117  47.123  1.00  0.00    -0.087 Cl
BRANCH  14  18
HETATM   18  C9  UNL     1      24.812   3.285  50.780  1.00  0.00     0.026 C 
BRANCH  18  19
HETATM   19  C10 UNL     1      25.027   2.306  51.567  1.00  0.00     0.135 C 
BRANCH  19  20
HETATM   20  O1  UNL     1      25.963   1.579  52.253  1.00  0.00    -0.359 OA
BRANCH  20  21
HETATM   21  C11 UNL     1      25.893   0.206  52.559  1.00  0.00     0.213 C 
BRANCH  21  22
HETATM   22  C12 UNL     1      27.258  -0.243  52.968  1.00  0.00    -0.034 A 
HETATM   23  C13 UNL     1      27.600  -1.587  52.819  1.00  0.00     0.012 A 
HETATM   24  C14 UNL     1      28.856  -1.990  53.200  1.00  0.00     0.043 A 
HETATM   25  C15 UNL     1      29.744  -1.054  53.719  1.00  0.00     0.116 A 
HETATM   26  F1  UNL     1      30.944  -1.550  54.060  1.00  0.00    -0.206 F 
HETATM   27  C16 UNL     1      29.430   0.278  53.876  1.00  0.00     0.043 A 
HETATM   28  C17 UNL     1      28.158   0.667  53.486  1.00  0.00     0.012 A 
ENDBRANCH  21  22
ENDBRANCH  20  21
ENDBRANCH  19  20
ENDBRANCH  18  19
ENDBRANCH  14  18
ENDBRANCH   4   8
ENDBRANCH   1   4
TORSDOF 8
ENDMDL
MODEL 4
REMARK VINA RESULT:      -7.6      4.353      8.892
REMARK  8 active torsions:
REMARK  status: ('A' for Active; 'I' for Inactive)
REMARK    1  A    between atoms: N1_2  and  C2_3 
REMARK    2  A    between atoms: C3_4  and  C4_5 
REMARK    3  A    between atoms: C3_4  and  C6_8 
REMARK    4  A    between atoms: C8_12  and  C9_13 
REMARK    5  A    between atoms: C9_13  and  C10_14 
REMARK    6  A    between atoms: C10_14  and  O1_15 
REMARK    7  A    between atoms: O1_15  and  C11_16 
REMARK    8  A    between atoms: C11_16  and  C12_17 
ROOT
HETATM    1  C4  UNL     1      30.503   9.072  47.061  1.00  0.00     0.161 C 
HETATM    2  C5  UNL     1      31.718   8.281  47.283  1.00  0.00     0.063 C 
HETATM    3  N2  UNL     1      32.663   7.648  47.470  1.00  0.00    -0.197 NA
ENDROOT
BRANCH   1   4
HETATM    4  C3  UNL     1      29.608   8.837  48.185  1.00  0.00    -0.025 C 
HETATM    5  C2  UNL     1      29.579   9.689  49.195  1.00  0.00     0.121 C 
BRANCH   5   6
HETATM    6  N1  UNL     1      30.480  10.744  48.992  1.00  0.00    -0.283 NA
HETATM    7  C1  UNL     1      30.266  11.992  49.124  1.00  0.00     0.148 C 
ENDBRANCH   5   6
BRANCH   4   8
HETATM    8  C6  UNL     1      28.876   7.582  47.897  1.00  0.00     0.152 C 
HETATM    9  N3  UNL     1      29.126   6.543  48.827  1.00  0.00    -0.226 NA
HETATM   10  N4  UNL     1      28.119   5.610  49.007  1.00  0.00    -0.320 N 
HETATM   11  H7  UNL     1      30.031   6.017  48.638  1.00  0.00     0.147 HD
HETATM   12  C7  UNL     1      26.729   5.795  48.741  1.00  0.00     0.044 C 
HETATM   13  H8  UNL     1      28.384   4.660  49.379  1.00  0.00     0.181 HD
HETATM   14  C8  UNL     1      25.721   5.018  49.095  1.00  0.00     0.032 C 
HETATM   15  C18 UNL     1      26.464   7.018  47.972  1.00  0.00     0.052 C 
HETATM   16  C19 UNL     1      27.438   7.810  47.600  1.00  0.00     0.037 C 
HETATM   17 CL1  UNL     1      27.077   9.261  46.684  1.00  0.00    -0.087 Cl
BRANCH  14  18
HETATM   18  C9  UNL     1      26.221   3.911  49.815  1.00  0.00     0.026 C 
BRANCH  18  19
HETATM   19  C10 UNL     1      26.541   2.935  50.570  1.00  0.00     0.135 C 
BRANCH  19  20
HETATM   20  O1  UNL     1      26.602   2.457  51.851  1.00  0.00    -0.359 OA
BRANCH  20  21
HETATM   21  C11 UNL     1      26.154   1.197  52.294  1.00  0.00     0.213 C 
BRANCH  21  22
HETATM   22  C12 UNL     1      27.342   0.432  52.779  1.00  0.00    -0.034 A 
HETATM   23  C13 UNL     1      28.444   1.133  53.268  1.00  0.00     0.012 A 
HETATM   24  C14 UNL     1      29.532   0.420  53.709  1.00  0.00     0.043 A 
HETATM   25  C15 UNL     1      29.503  -0.969  53.656  1.00  0.00     0.116 A 
HETATM   26  F1  UNL     1      30.614  -1.570  54.110  1.00  0.00    -0.206 F 
HETATM   27  C16 UNL     1      28.427  -1.684  53.178  1.00  0.00     0.043 A 
HETATM   28  C17 UNL     1      27.337  -0.948  52.736  1.00  0.00     0.012 A 
ENDBRANCH  21  22
ENDBRANCH  20  21
ENDBRANCH  19  20
ENDBRANCH  18  19
ENDBRANCH  14  18
ENDBRANCH   4   8
ENDBRANCH   1   4
TORSDOF 8
ENDMDL
MODEL 5
REMARK VINA RESULT:      -7.6      4.252      8.544
REMARK  8 active torsions:
REMARK  status: ('A' for Active; 'I' for Inactive)
REMARK    1  A    between atoms: N1_2  and  C2_3 
REMARK    2  A    between atoms: C3_4  and  C4_5 
REMARK    3  A    between atoms: C3_4  and  C6_8 
REMARK    4  A    between atoms: C8_12  and  C9_13 
REMARK    5  A    between atoms: C9_13  and  C10_14 
REMARK    6  A    between atoms: C10_14  and  O1_15 
REMARK    7  A    between atoms: O1_15  and  C11_16 
REMARK    8  A    between atoms: C11_16  and  C12_17 
ROOT
HETATM    1  C4  UNL     1      31.605   7.651  49.572  1.00  0.00     0.161 C 
HETATM    2  C5  UNL     1      31.061   9.012  49.513  1.00  0.00     0.063 C 
HETATM    3  N2  UNL     1      30.627  10.078  49.449  1.00  0.00    -0.197 NA
ENDROOT
BRANCH   1   4
HETATM    4  C3  UNL     1      31.744   7.168  48.206  1.00  0.00    -0.025 C 
HETATM    5  C2  UNL     1      32.845   7.428  47.522  1.00  0.00     0.121 C 
BRANCH   5   6
HETATM    6  N1  UNL     1      33.750   8.177  48.287  1.00  0.00    -0.283 NA
HETATM    7  C1  UNL     1      35.019   8.087  48.308  1.00  0.00     0.148 C 
ENDBRANCH   5   6
BRANCH   4   8
HETATM    8  C6  UNL     1      30.500   6.432  47.882  1.00  0.00     0.152 C 
HETATM    9  N3  UNL     1      30.018   5.622  48.940  1.00  0.00    -0.226 NA
HETATM   10  N4  UNL     1      28.653   5.390  48.976  1.00  0.00    -0.320 N 
HETATM   11  H7  UNL     1      30.513   4.683  49.011  1.00  0.00     0.147 HD
HETATM   12  C7  UNL     1      27.635   6.198  48.386  1.00  0.00     0.044 C 
HETATM   13  H8  UNL     1      28.310   4.534  49.488  1.00  0.00     0.181 HD
HETATM   14  C8  UNL     1      26.330   6.131  48.577  1.00  0.00     0.032 C 
HETATM   15  C18 UNL     1      28.182   7.201  47.464  1.00  0.00     0.052 C 
HETATM   16  C19 UNL     1      29.470   7.294  47.248  1.00  0.00     0.037 C 
HETATM   17 CL1  UNL     1      30.080   8.507  46.139  1.00  0.00    -0.087 Cl
BRANCH  14  18
HETATM   18  C9  UNL     1      26.048   5.096  49.494  1.00  0.00     0.026 C 
BRANCH  18  19
HETATM   19  C10 UNL     1      25.773   4.063  50.188  1.00  0.00     0.135 C 
BRANCH  19  20
HETATM   20  O1  UNL     1      26.213   2.854  50.657  1.00  0.00    -0.359 OA
BRANCH  20  21
HETATM   21  C11 UNL     1      25.671   2.130  51.737  1.00  0.00     0.213 C 
BRANCH  21  22
HETATM   22  C12 UNL     1      26.785   1.377  52.389  1.00  0.00    -0.034 A 
HETATM   23  C13 UNL     1      26.772  -0.017  52.348  1.00  0.00     0.012 A 
HETATM   24  C14 UNL     1      27.799  -0.699  52.953  1.00  0.00     0.043 A 
HETATM   25  C15 UNL     1      28.813   0.013  53.582  1.00  0.00     0.116 A 
HETATM   26  F1  UNL     1      29.768  -0.747  54.142  1.00  0.00    -0.206 F 
HETATM   27  C16 UNL     1      28.848   1.389  53.636  1.00  0.00     0.043 A 
HETATM   28  C17 UNL     1      27.803   2.062  53.021  1.00  0.00     0.012 A 
ENDBRANCH  21  22
ENDBRANCH  20  21
ENDBRANCH  19  20
ENDBRANCH  18  19
ENDBRANCH  14  18
ENDBRANCH   4   8
ENDBRANCH   1   4
TORSDOF 8
ENDMDL
MODEL 6
REMARK VINA RESULT:      -7.4      4.447      8.932
REMARK  8 active torsions:
REMARK  status: ('A' for Active; 'I' for Inactive)
REMARK    1  A    between atoms: N1_2  and  C2_3 
REMARK    2  A    between atoms: C3_4  and  C4_5 
REMARK    3  A    between atoms: C3_4  and  C6_8 
REMARK    4  A    between atoms: C8_12  and  C9_13 
REMARK    5  A    between atoms: C9_13  and  C10_14 
REMARK    6  A    between atoms: C10_14  and  O1_15 
REMARK    7  A    between atoms: O1_15  and  C11_16 
REMARK    8  A    between atoms: C11_16  and  C12_17 
ROOT
HETATM    1  C4  UNL     1      27.950  10.052  49.148  1.00  0.00     0.161 C 
HETATM    2  C5  UNL     1      29.397   9.880  49.311  1.00  0.00     0.063 C 
HETATM    3  N2  UNL     1      30.535   9.732  49.424  1.00  0.00    -0.197 NA
ENDROOT
BRANCH   1   4
HETATM    4  C3  UNL     1      27.465   8.971  48.302  1.00  0.00    -0.025 C 
HETATM    5  C2  UNL     1      26.961   9.241  47.111  1.00  0.00     0.121 C 
BRANCH   5   6
HETATM    6  N1  UNL     1      26.983  10.619  46.852  1.00  0.00    -0.283 NA
HETATM    7  C1  UNL     1      26.729  11.214  45.757  1.00  0.00     0.148 C 
ENDBRANCH   5   6
BRANCH   4   8
HETATM    8  C6  UNL     1      27.675   7.712  49.052  1.00  0.00     0.152 C 
HETATM    9  N3  UNL     1      26.550   7.298  49.809  1.00  0.00    -0.226 NA
HETATM   10  N4  UNL     1      26.418   5.938  50.037  1.00  0.00    -0.320 N 
HETATM   11  H7  UNL     1      26.464   7.798  50.744  1.00  0.00     0.147 HD
HETATM   12  C7  UNL     1      26.981   4.884  49.258  1.00  0.00     0.044 C 
HETATM   13  H8  UNL     1      25.844   5.629  50.866  1.00  0.00     0.181 HD
HETATM   14  C8  UNL     1      26.707   3.593  49.314  1.00  0.00     0.032 C 
HETATM   15  C18 UNL     1      27.984   5.370  48.301  1.00  0.00     0.052 C 
HETATM   16  C19 UNL     1      28.284   6.642  48.221  1.00  0.00     0.037 C 
HETATM   17 CL1  UNL     1      29.487   7.179  47.064  1.00  0.00    -0.087 Cl
BRANCH  14  18
HETATM   18  C9  UNL     1      25.724   3.371  50.303  1.00  0.00     0.026 C 
BRANCH  18  19
HETATM   19  C10 UNL     1      24.965   3.153  51.303  1.00  0.00     0.135 C 
BRANCH  19  20
HETATM   20  O1  UNL     1      24.596   2.272  52.284  1.00  0.00    -0.359 OA
BRANCH  20  21
HETATM   21  C11 UNL     1      25.220   2.107  53.536  1.00  0.00     0.213 C 
BRANCH  21  22
HETATM   22  C12 UNL     1      26.236   1.020  53.403  1.00  0.00    -0.034 A 
HETATM   23  C13 UNL     1      27.491   1.194  53.987  1.00  0.00     0.012 A 
HETATM   24  C14 UNL     1      28.419   0.190  53.856  1.00  0.00     0.043 A 
HETATM   25  C15 UNL     1      28.082  -0.961  53.152  1.00  0.00     0.116 A 
HETATM   26  F1  UNL     1      29.059  -1.880  53.083  1.00  0.00    -0.206 F 
HETATM   27  C16 UNL     1      26.851  -1.156  52.567  1.00  0.00     0.043 A 
HETATM   28  C17 UNL     1      25.926  -0.132  52.708  1.00  0.00     0.012 A 
ENDBRANCH  21  22
ENDBRANCH  20  21
ENDBRANCH  19  20
ENDBRANCH  18  19
ENDBRANCH  14  18
ENDBRANCH   4   8
ENDBRANCH   1   4
TORSDOF 8
ENDMDL
MODEL 7
REMARK VINA RESULT:      -7.1      4.110      8.665
REMARK  8 active torsions:
REMARK  status: ('A' for Active; 'I' for Inactive)
REMARK    1  A    between atoms: N1_2  and  C2_3 
REMARK    2  A    between atoms: C3_4  and  C4_5 
REMARK    3  A    between atoms: C3_4  and  C6_8 
REMARK    4  A    between atoms: C8_12  and  C9_13 
REMARK    5  A    between atoms: C9_13  and  C10_14 
REMARK    6  A    between atoms: C10_14  and  O1_15 
REMARK    7  A    between atoms: O1_15  and  C11_16 
REMARK    8  A    between atoms: C11_16  and  C12_17 
ROOT
HETATM    1  C4  UNL     1      29.469   7.689  47.070  1.00  0.00     0.161 C 
HETATM    2  C5  UNL     1      28.716   8.047  45.864  1.00  0.00     0.063 C 
HETATM    3  N2  UNL     1      28.112   8.338  44.926  1.00  0.00    -0.197 NA
ENDROOT
BRANCH   1   4
HETATM    4  C3  UNL     1      28.584   7.859  48.214  1.00  0.00    -0.025 C 
HETATM    5  C2  UNL     1      28.783   8.855  49.060  1.00  0.00     0.121 C 
BRANCH   5   6
HETATM    6  N1  UNL     1      29.889   9.628  48.680  1.00  0.00    -0.283 NA
HETATM    7  C1  UNL     1      30.001  10.895  48.697  1.00  0.00     0.148 C 
ENDBRANCH   5   6
BRANCH   4   8
HETATM    8  C6  UNL     1      27.580   6.773  48.146  1.00  0.00     0.152 C 
HETATM    9  N3  UNL     1      27.926   5.621  48.896  1.00  0.00    -0.226 NA
HETATM   10  N4  UNL     1      26.880   4.850  49.374  1.00  0.00    -0.320 N 
HETATM   11  H7  UNL     1      28.604   4.977  48.390  1.00  0.00     0.147 HD
HETATM   12  C7  UNL     1      25.539   5.281  49.605  1.00  0.00     0.044 C 
HETATM   13  H8  UNL     1      27.072   3.838  49.598  1.00  0.00     0.181 HD
HETATM   14  C8  UNL     1      24.579   4.646  50.252  1.00  0.00     0.032 C 
HETATM   15  C18 UNL     1      25.267   6.600  49.018  1.00  0.00     0.052 C 
HETATM   16  C19 UNL     1      26.193   7.257  48.366  1.00  0.00     0.037 C 
HETATM   17 CL1  UNL     1      25.825   8.829  47.682  1.00  0.00    -0.087 Cl
BRANCH  14  18
HETATM   18  C9  UNL     1      25.074   3.408  50.717  1.00  0.00     0.026 C 
BRANCH  18  19
HETATM   19  C10 UNL     1      25.610   2.382  51.248  1.00  0.00     0.135 C 
BRANCH  19  20
HETATM   20  O1  UNL     1      25.404   1.164  51.840  1.00  0.00    -0.359 OA
BRANCH  20  21
HETATM   21  C11 UNL     1      25.573   0.858  53.204  1.00  0.00     0.213 C 
BRANCH  21  22
HETATM   22  C12 UNL     1      26.971   0.365  53.394  1.00  0.00    -0.034 A 
HETATM   23  C13 UNL     1      27.300  -0.917  52.953  1.00  0.00     0.012 A 
HETATM   24  C14 UNL     1      28.587  -1.362  53.135  1.00  0.00     0.043 A 
HETATM   25  C15 UNL     1      29.516  -0.528  53.747  1.00  0.00     0.116 A 
HETATM   26  F1  UNL     1      30.743  -1.057  53.877  1.00  0.00    -0.206 F 
HETATM   27  C16 UNL     1      29.215   0.741  54.190  1.00  0.00     0.043 A 
HETATM   28  C17 UNL     1      27.911   1.174  53.999  1.00  0.00     0.012 A 
ENDBRANCH  21  22
ENDBRANCH  20  21
ENDBRANCH  19  20
ENDBRANCH  18  19
ENDBRANCH  14  18
ENDBRANCH   4   8
ENDBRANCH   1   4
TORSDOF 8
ENDMDL
MODEL 8
REMARK VINA RESULT:      -7.1      4.411      5.710
REMARK  8 active torsions:
REMARK  status: ('A' for Active; 'I' for Inactive)
REMARK    1  A    between atoms: N1_2  and  C2_3 
REMARK    2  A    between atoms: C3_4  and  C4_5 
REMARK    3  A    between atoms: C3_4  and  C6_8 
REMARK    4  A    between atoms: C8_12  and  C9_13 
REMARK    5  A    between atoms: C9_13  and  C10_14 
REMARK    6  A    between atoms: C10_14  and  O1_15 
REMARK    7  A    between atoms: O1_15  and  C11_16 
REMARK    8  A    between atoms: C11_16  and  C12_17 
ROOT
HETATM    1  C4  UNL     1      26.111   0.221  54.762  1.00  0.00     0.161 C 
HETATM    2  C5  UNL     1      26.823   1.435  54.350  1.00  0.00     0.063 C 
HETATM    3  N2  UNL     1      27.373   2.390  54.008  1.00  0.00    -0.197 NA
ENDROOT
BRANCH   1   4
HETATM    4  C3  UNL     1      25.498  -0.360  53.577  1.00  0.00    -0.025 C 
HETATM    5  C2  UNL     1      26.121  -1.320  52.915  1.00  0.00     0.121 C 
BRANCH   5   6
HETATM    6  N1  UNL     1      27.350  -1.631  53.513  1.00  0.00    -0.283 NA
HETATM    7  C1  UNL     1      28.510  -1.580  52.992  1.00  0.00     0.148 C 
ENDBRANCH   5   6
BRANCH   4   8
HETATM    8  C6  UNL     1      24.202   0.329  53.382  1.00  0.00     0.152 C 
HETATM    9  N3  UNL     1      24.033   0.881  52.088  1.00  0.00    -0.226 NA
HETATM   10  N4  UNL     1      22.733   0.998  51.624  1.00  0.00    -0.320 N 
HETATM   11  H7  UNL     1      24.511   1.823  51.965  1.00  0.00     0.147 HD
HETATM   12  C7  UNL     1      21.602   0.244  52.059  1.00  0.00     0.044 C 
HETATM   13  H8  UNL     1      22.538   1.710  50.872  1.00  0.00     0.181 HD
HETATM   14  C8  UNL     1      20.406   0.174  51.502  1.00  0.00     0.032 C 
HETATM   15  C18 UNL     1      21.875  -0.519  53.283  1.00  0.00     0.052 C 
HETATM   16  C19 UNL     1      23.047  -0.471  53.866  1.00  0.00     0.037 C 
HETATM   17 CL1  UNL     1      23.331  -1.398  55.326  1.00  0.00    -0.087 Cl
BRANCH  14  18
HETATM   18  C9  UNL     1      20.384   0.989  50.349  1.00  0.00     0.026 C 
BRANCH  18  19
HETATM   19  C10 UNL     1      20.530   1.700  49.302  1.00  0.00     0.135 C 
BRANCH  19  20
HETATM   20  O1  UNL     1      21.014   2.868  48.775  1.00  0.00    -0.359 OA
BRANCH  20  21
HETATM   21  C11 UNL     1      22.051   2.991  47.830  1.00  0.00     0.213 C 
BRANCH  21  22
HETATM   22  C12 UNL     1      23.123   3.839  48.433  1.00  0.00    -0.034 A 
HETATM   23  C13 UNL     1      23.175   5.194  48.108  1.00  0.00     0.012 A 
HETATM   24  C14 UNL     1      24.166   5.964  48.666  1.00  0.00     0.043 A 
HETATM   25  C15 UNL     1      25.081   5.375  49.531  1.00  0.00     0.116 A 
HETATM   26  F1  UNL     1      26.009   6.213  50.021  1.00  0.00    -0.206 F 
HETATM   27  C16 UNL     1      25.051   4.039  49.866  1.00  0.00     0.043 A 
HETATM   28  C17 UNL     1      24.044   3.277  49.294  1.00  0.00     0.012 A 
ENDBRANCH  21  22
ENDBRANCH  20  21
ENDBRANCH  19  20
ENDBRANCH  18  19
ENDBRANCH  14  18
ENDBRANCH   4   8
ENDBRANCH   1   4
TORSDOF 8
ENDMDL
MODEL 9
REMARK VINA RESULT:      -7.0      3.067      4.222
REMARK  8 active torsions:
REMARK  status: ('A' for Active; 'I' for Inactive)
REMARK    1  A    between atoms: N1_2  and  C2_3 
REMARK    2  A    between atoms: C3_4  and  C4_5 
REMARK    3  A    between atoms: C3_4  and  C6_8 
REMARK    4  A    between atoms: C8_12  and  C9_13 
REMARK    5  A    between atoms: C9_13  and  C10_14 
REMARK    6  A    between atoms: C10_14  and  O1_15 
REMARK    7  A    between atoms: O1_15  and  C11_16 
REMARK    8  A    between atoms: C11_16  and  C12_17 
ROOT
HETATM    1  C4  UNL     1      25.946   0.370  52.179  1.00  0.00     0.161 C 
HETATM    2  C5  UNL     1      26.617   1.536  51.598  1.00  0.00     0.063 C 
HETATM    3  N2  UNL     1      27.150   2.460  51.158  1.00  0.00    -0.197 NA
ENDROOT
BRANCH   1   4
HETATM    4  C3  UNL     1      25.675   0.664  53.579  1.00  0.00    -0.025 C 
HETATM    5  C2  UNL     1      26.437   0.139  54.523  1.00  0.00     0.121 C 
BRANCH   5   6
HETATM    6  N1  UNL     1      27.443  -0.666  53.971  1.00  0.00    -0.283 NA
HETATM    7  C1  UNL     1      28.703  -0.503  54.043  1.00  0.00     0.148 C 
ENDBRANCH   5   6
BRANCH   4   8
HETATM    8  C6  UNL     1      24.501   1.566  53.610  1.00  0.00     0.152 C 
HETATM    9  N3  UNL     1      24.776   2.885  53.173  1.00  0.00    -0.226 NA
HETATM   10  N4  UNL     1      23.723   3.591  52.615  1.00  0.00    -0.320 N 
HETATM   11  H7  UNL     1      25.218   3.494  53.924  1.00  0.00     0.147 HD
HETATM   12  C7  UNL     1      22.551   3.040  52.016  1.00  0.00     0.044 C 
HETATM   13  H8  UNL     1      23.773   4.644  52.623  1.00  0.00     0.181 HD
HETATM   14  C8  UNL     1      21.637   3.662  51.291  1.00  0.00     0.032 C 
HETATM   15  C18 UNL     1      22.408   1.603  52.283  1.00  0.00     0.052 C 
HETATM   16  C19 UNL     1      23.291   0.955  53.000  1.00  0.00     0.037 C 
HETATM   17 CL1  UNL     1      23.082  -0.760  53.294  1.00  0.00    -0.087 Cl
BRANCH  14  18
HETATM   18  C9  UNL     1      21.986   5.025  51.176  1.00  0.00     0.026 C 
BRANCH  18  19
HETATM   19  C10 UNL     1      22.454   6.201  51.027  1.00  0.00     0.135 C 
BRANCH  19  20
HETATM   20  O1  UNL     1      23.127   7.065  50.204  1.00  0.00    -0.359 OA
BRANCH  20  21
HETATM   21  C11 UNL     1      23.413   6.866  48.840  1.00  0.00     0.213 C 
BRANCH  21  22
HETATM   22  C12 UNL     1      24.839   6.433  48.728  1.00  0.00    -0.034 A 
HETATM   23  C13 UNL     1      25.785   7.341  48.253  1.00  0.00     0.012 A 
HETATM   24  C14 UNL     1      27.092   6.931  48.152  1.00  0.00     0.043 A 
HETATM   25  C15 UNL     1      27.431   5.635  48.524  1.00  0.00     0.116 A 
HETATM   26  F1  UNL     1      28.733   5.335  48.387  1.00  0.00    -0.206 F 
HETATM   27  C16 UNL     1      26.515   4.721  48.996  1.00  0.00     0.043 A 
HETATM   28  C17 UNL     1      25.200   5.151  49.091  1.00  0.00     0.012 A 
ENDBRANCH  21  22
ENDBRANCH  20  21
ENDBRANCH  19  20
ENDBRANCH  18  19
ENDBRANCH  14  18
ENDBRANCH   4   8
ENDBRANCH   1   4
TORSDOF 8
ENDMDL
