MODEL 1
REMARK VINA RESULT:      -7.0      0.000      0.000
REMARK  8 active torsions:
REMARK  status: ('A' for Active; 'I' for Inactive)
REMARK    1  A    between atoms: C5_5  and  S1_6 
REMARK    2  A    between atoms: S1_6  and  N1_8 
REMARK       I    between atoms: N1_8  and  C6_9 
REMARK    3  A    between atoms: C6_9  and  C7_11 
REMARK    4  A    between atoms: C7_11  and  C8_12 
REMARK    5  A    between atoms: C8_12  and  C9_13 
REMARK    6  A    between atoms: C10_14  and  C11_15 
REMARK    7  A    between atoms: C12_16  and  C13_17 
REMARK    8  A    between atoms: C13_17  and  C14_18 
ROOT
HETATM    1  N1  UNL     1      23.609   1.532  51.839  1.00  0.00    -0.272 N 
HETATM    2  C6  UNL     1      22.902   1.927  50.691  1.00  0.00     0.229 C 
HETATM    3  O2  UNL     1      23.528   2.887  50.127  1.00  0.00    -0.273 OA
HETATM    4  H6  UNL     1      23.309   0.752  52.496  1.00  0.00     0.179 HD
ENDROOT
BRANCH   1   5
HETATM    5  S1  UNL     1      25.094   2.360  52.249  1.00  0.00     0.153 S 
HETATM    6  O1  UNL     1      24.834   3.170  53.535  1.00  0.00    -0.230 OA
BRANCH   5   7
HETATM    7  C5  UNL     1      26.404   1.245  52.621  1.00  0.00     0.052 A 
HETATM    8  C4  UNL     1      26.496  -0.106  52.351  1.00  0.00     0.023 A 
HETATM    9  C3  UNL     1      27.619  -0.809  52.727  1.00  0.00     0.008 A 
HETATM   10  C2  UNL     1      28.665  -0.184  53.376  1.00  0.00    -0.062 A 
HETATM   11  C1  UNL     1      29.877  -0.962  53.777  1.00  0.00     0.048 C 
HETATM   12  C16 UNL     1      28.598   1.159  53.657  1.00  0.00     0.008 A 
HETATM   13  C15 UNL     1      27.465   1.870  53.277  1.00  0.00     0.023 A 
ENDBRANCH   5   7
ENDBRANCH   1   5
BRANCH   2  14
HETATM   14  C7  UNL     1      21.662   1.216  50.373  1.00  0.00     0.107 C 
BRANCH  14  15
HETATM   15  C8  UNL     1      21.361   0.041  51.263  1.00  0.00     0.036 C 
BRANCH  15  16
HETATM   16  C9  UNL     1      20.223   0.226  52.166  1.00  0.00    -0.026 C 
HETATM   17  C10 UNL     1      19.943  -0.264  53.344  1.00  0.00    -0.004 C 
BRANCH  17  18
HETATM   18  C11 UNL     1      20.839  -1.184  54.015  1.00  0.00    -0.004 C 
HETATM   19  C12 UNL     1      21.845  -0.693  54.709  1.00  0.00    -0.020 C 
BRANCH  19  20
HETATM   20  C13 UNL     1      22.891  -1.412  55.478  1.00  0.00     0.096 C 
BRANCH  20  21
HETATM   21  C14 UNL     1      24.231  -0.983  54.954  1.00  0.00     0.234 C 
HETATM   22  O3  UNL     1      25.281  -1.322  55.467  1.00  0.00    -0.307 OA
ENDBRANCH  20  21
ENDBRANCH  19  20
ENDBRANCH  17  18
ENDBRANCH  15  16
ENDBRANCH  14  15
ENDBRANCH   2  14
TORSDOF 8
ENDMDL
MODEL 2
REMARK VINA RESULT:      -6.9      3.608      5.488
REMARK  8 active torsions:
REMARK  status: ('A' for Active; 'I' for Inactive)
REMARK    1  A    between atoms: C5_5  and  S1_6 
REMARK    2  A    between atoms: S1_6  and  N1_8 
REMARK       I    between atoms: N1_8  and  C6_9 
REMARK    3  A    between atoms: C6_9  and  C7_11 
REMARK    4  A    between atoms: C7_11  and  C8_12 
REMARK    5  A    between atoms: C8_12  and  C9_13 
REMARK    6  A    between atoms: C10_14  and  C11_15 
REMARK    7  A    between atoms: C12_16  and  C13_17 
REMARK    8  A    between atoms: C13_17  and  C14_18 
ROOT
HETATM    1  N1  UNL     1      23.517   3.300  51.580  1.00  0.00    -0.272 N 
HETATM    2  C6  UNL     1      23.026   2.060  51.142  1.00  0.00     0.229 C 
HETATM    3  O2  UNL     1      22.657   2.166  49.923  1.00  0.00    -0.273 OA
HETATM    4  H6  UNL     1      23.890   3.493  52.558  1.00  0.00     0.179 HD
ENDROOT
BRANCH   1   5
HETATM    5  S1  UNL     1      23.532   4.649  50.469  1.00  0.00     0.153 S 
HETATM    6  O1  UNL     1      23.210   5.921  51.277  1.00  0.00    -0.230 OA
BRANCH   5   7
HETATM    7  C5  UNL     1      25.117   4.908  49.747  1.00  0.00     0.052 A 
HETATM    8  C4  UNL     1      26.122   3.992  49.512  1.00  0.00     0.023 A 
HETATM    9  C3  UNL     1      27.303   4.398  48.929  1.00  0.00     0.008 A 
HETATM   10  C2  UNL     1      27.502   5.717  48.573  1.00  0.00    -0.062 A 
HETATM   11  C1  UNL     1      28.789   6.140  47.941  1.00  0.00     0.048 C 
HETATM   12  C16 UNL     1      26.518   6.648  48.797  1.00  0.00     0.008 A 
HETATM   13  C15 UNL     1      25.326   6.239  49.384  1.00  0.00     0.023 A 
ENDBRANCH   5   7
ENDBRANCH   1   5
BRANCH   2  14
HETATM   14  C7  UNL     1      23.025   0.948  52.096  1.00  0.00     0.107 C 
BRANCH  14  15
HETATM   15  C8  UNL     1      24.256   0.852  52.955  1.00  0.00     0.036 C 
BRANCH  15  16
HETATM   16  C9  UNL     1      24.716  -0.512  53.226  1.00  0.00    -0.026 C 
HETATM   17  C10 UNL     1      25.899  -1.067  53.191  1.00  0.00    -0.004 C 
BRANCH  17  18
HETATM   18  C11 UNL     1      27.081  -0.312  52.829  1.00  0.00    -0.004 C 
HETATM   19  C12 UNL     1      28.066  -0.224  53.700  1.00  0.00    -0.020 C 
BRANCH  19  20
HETATM   20  C13 UNL     1      29.366   0.480  53.575  1.00  0.00     0.096 C 
BRANCH  20  21
HETATM   21  C14 UNL     1      29.172   1.898  54.029  1.00  0.00     0.234 C 
HETATM   22  O3  UNL     1      29.532   2.298  55.119  1.00  0.00    -0.307 OA
ENDBRANCH  20  21
ENDBRANCH  19  20
ENDBRANCH  17  18
ENDBRANCH  15  16
ENDBRANCH  14  15
ENDBRANCH   2  14
TORSDOF 8
ENDMDL
MODEL 3
REMARK VINA RESULT:      -6.8      1.784      5.811
REMARK  8 active torsions:
REMARK  status: ('A' for Active; 'I' for Inactive)
REMARK    1  A    between atoms: C5_5  and  S1_6 
REMARK    2  A    between atoms: S1_6  and  N1_8 
REMARK       I    between atoms: N1_8  and  C6_9 
REMARK    3  A    between atoms: C6_9  and  C7_11 
REMARK    4  A    between atoms: C7_11  and  C8_12 
REMARK    5  A    between atoms: C8_12  and  C9_13 
REMARK    6  A    between atoms: C10_14  and  C11_15 
REMARK    7  A    between atoms: C12_16  and  C13_17 
REMARK    8  A    between atoms: C13_17  and  C14_18 
ROOT
HETATM    1  N1  UNL     1      24.517   3.058  50.603  1.00  0.00    -0.272 N 
HETATM    2  C6  UNL     1      25.308   2.568  51.654  1.00  0.00     0.229 C 
HETATM    3  O2  UNL     1      24.750   2.859  52.766  1.00  0.00    -0.273 OA
HETATM    4  H6  UNL     1      24.751   2.955  49.570  1.00  0.00     0.179 HD
ENDROOT
BRANCH   1   5
HETATM    5  S1  UNL     1      23.036   3.908  50.978  1.00  0.00     0.153 S 
HETATM    6  O1  UNL     1      22.631   4.711  49.727  1.00  0.00    -0.230 OA
BRANCH   5   7
HETATM    7  C5  UNL     1      21.701   2.812  51.318  1.00  0.00     0.052 A 
HETATM    8  C4  UNL     1      20.663   2.961  52.216  1.00  0.00     0.023 A 
HETATM    9  C3  UNL     1      19.705   1.977  52.333  1.00  0.00     0.008 A 
HETATM   10  C2  UNL     1      19.763   0.834  51.562  1.00  0.00    -0.062 A 
HETATM   11  C1  UNL     1      18.716  -0.223  51.701  1.00  0.00     0.048 C 
HETATM   12  C16 UNL     1      20.786   0.661  50.661  1.00  0.00     0.008 A 
HETATM   13  C15 UNL     1      21.752   1.653  50.542  1.00  0.00     0.023 A 
ENDBRANCH   5   7
ENDBRANCH   1   5
BRANCH   2  14
HETATM   14  C7  UNL     1      26.544   1.860  51.309  1.00  0.00     0.107 C 
BRANCH  14  15
HETATM   15  C8  UNL     1      27.188   1.121  52.450  1.00  0.00     0.036 C 
BRANCH  15  16
HETATM   16  C9  UNL     1      26.985  -0.329  52.440  1.00  0.00    -0.026 C 
HETATM   17  C10 UNL     1      26.076  -1.096  52.981  1.00  0.00    -0.004 C 
BRANCH  17  18
HETATM   18  C11 UNL     1      24.997  -0.549  53.777  1.00  0.00    -0.004 C 
HETATM   19  C12 UNL     1      23.780  -0.542  53.271  1.00  0.00    -0.020 C 
BRANCH  19  20
HETATM   20  C13 UNL     1      22.518  -0.045  53.874  1.00  0.00     0.096 C 
BRANCH  20  21
HETATM   21  C14 UNL     1      21.629  -1.227  54.134  1.00  0.00     0.234 C 
HETATM   22  O3  UNL     1      21.663  -1.864  55.170  1.00  0.00    -0.307 OA
ENDBRANCH  20  21
ENDBRANCH  19  20
ENDBRANCH  17  18
ENDBRANCH  15  16
ENDBRANCH  14  15
ENDBRANCH   2  14
TORSDOF 8
ENDMDL
MODEL 4
REMARK VINA RESULT:      -6.8      1.148      1.629
REMARK  8 active torsions:
REMARK  status: ('A' for Active; 'I' for Inactive)
REMARK    1  A    between atoms: C5_5  and  S1_6 
REMARK    2  A    between atoms: S1_6  and  N1_8 
REMARK       I    between atoms: N1_8  and  C6_9 
REMARK    3  A    between atoms: C6_9  and  C7_11 
REMARK    4  A    between atoms: C7_11  and  C8_12 
REMARK    5  A    between atoms: C8_12  and  C9_13 
REMARK    6  A    between atoms: C10_14  and  C11_15 
REMARK    7  A    between atoms: C12_16  and  C13_17 
REMARK    8  A    between atoms: C13_17  and  C14_18 
ROOT
HETATM    1  N1  UNL     1      24.225   2.129  50.793  1.00  0.00    -0.272 N 
HETATM    2  C6  UNL     1      23.546   3.092  50.028  1.00  0.00     0.229 C 
HETATM    3  O2  UNL     1      23.833   4.255  50.474  1.00  0.00    -0.273 OA
HETATM    4  H6  UNL     1      24.164   1.079  50.637  1.00  0.00     0.179 HD
ENDROOT
BRANCH   1   5
HETATM    5  S1  UNL     1      25.253   2.657  52.105  1.00  0.00     0.153 S 
HETATM    6  O1  UNL     1      24.362   2.831  53.351  1.00  0.00    -0.230 OA
BRANCH   5   7
HETATM    7  C5  UNL     1      26.470   1.457  52.529  1.00  0.00     0.052 A 
HETATM    8  C4  UNL     1      26.407   0.083  52.420  1.00  0.00     0.023 A 
HETATM    9  C3  UNL     1      27.481  -0.689  52.809  1.00  0.00     0.008 A 
HETATM   10  C2  UNL     1      28.628  -0.109  53.311  1.00  0.00    -0.062 A 
HETATM   11  C1  UNL     1      29.782  -0.962  53.729  1.00  0.00     0.048 C 
HETATM   12  C16 UNL     1      28.715   1.256  53.431  1.00  0.00     0.008 A 
HETATM   13  C15 UNL     1      27.633   2.036  53.038  1.00  0.00     0.023 A 
ENDBRANCH   5   7
ENDBRANCH   1   5
BRANCH   2  14
HETATM   14  C7  UNL     1      22.692   2.621  48.935  1.00  0.00     0.107 C 
BRANCH  14  15
HETATM   15  C8  UNL     1      21.934   1.355  49.227  1.00  0.00     0.036 C 
BRANCH  15  16
HETATM   16  C9  UNL     1      20.790   1.514  50.128  1.00  0.00    -0.026 C 
HETATM   17  C10 UNL     1      20.459   0.924  51.246  1.00  0.00    -0.004 C 
BRANCH  17  18
HETATM   18  C11 UNL     1      21.286  -0.110  51.832  1.00  0.00    -0.004 C 
HETATM   19  C12 UNL     1      22.074   0.205  52.840  1.00  0.00    -0.020 C 
BRANCH  19  20
HETATM   20  C13 UNL     1      23.006  -0.658  53.605  1.00  0.00     0.096 C 
BRANCH  20  21
HETATM   21  C14 UNL     1      22.237  -1.292  54.729  1.00  0.00     0.234 C 
HETATM   22  O3  UNL     1      22.765  -1.686  55.751  1.00  0.00    -0.307 OA
ENDBRANCH  20  21
ENDBRANCH  19  20
ENDBRANCH  17  18
ENDBRANCH  15  16
ENDBRANCH  14  15
ENDBRANCH   2  14
TORSDOF 8
ENDMDL
MODEL 5
REMARK VINA RESULT:      -6.8      4.033      6.680
REMARK  8 active torsions:
REMARK  status: ('A' for Active; 'I' for Inactive)
REMARK    1  A    between atoms: C5_5  and  S1_6 
REMARK    2  A    between atoms: S1_6  and  N1_8 
REMARK       I    between atoms: N1_8  and  C6_9 
REMARK    3  A    between atoms: C6_9  and  C7_11 
REMARK    4  A    between atoms: C7_11  and  C8_12 
REMARK    5  A    between atoms: C8_12  and  C9_13 
REMARK    6  A    between atoms: C10_14  and  C11_15 
REMARK    7  A    between atoms: C12_16  and  C13_17 
REMARK    8  A    between atoms: C13_17  and  C14_18 
ROOT
HETATM    1  N1  UNL     1      23.701   1.344  51.491  1.00  0.00    -0.272 N 
HETATM    2  C6  UNL     1      23.719   2.732  51.278  1.00  0.00     0.229 C 
HETATM    3  O2  UNL     1      23.985   3.319  52.381  1.00  0.00    -0.273 OA
HETATM    4  H6  UNL     1      23.504   0.619  50.739  1.00  0.00     0.179 HD
ENDROOT
BRANCH   1   5
HETATM    5  S1  UNL     1      24.022   0.726  53.095  1.00  0.00     0.153 S 
HETATM    6  O1  UNL     1      23.277  -0.616  53.233  1.00  0.00    -0.230 OA
BRANCH   5   7
HETATM    7  C5  UNL     1      25.727   0.376  53.352  1.00  0.00     0.052 A 
HETATM    8  C4  UNL     1      26.669   1.112  54.042  1.00  0.00     0.023 A 
HETATM    9  C3  UNL     1      27.968   0.660  54.130  1.00  0.00     0.008 A 
HETATM   10  C2  UNL     1      28.350  -0.525  53.536  1.00  0.00    -0.062 A 
HETATM   11  C1  UNL     1      29.763  -1.001  53.642  1.00  0.00     0.048 C 
HETATM   12  C16 UNL     1      27.432  -1.276  52.843  1.00  0.00     0.008 A 
HETATM   13  C15 UNL     1      26.121  -0.821  52.754  1.00  0.00     0.023 A 
ENDBRANCH   5   7
ENDBRANCH   1   5
BRANCH   2  14
HETATM   14  C7  UNL     1      23.447   3.221  49.924  1.00  0.00     0.107 C 
BRANCH  14  15
HETATM   15  C8  UNL     1      24.530   4.081  49.333  1.00  0.00     0.036 C 
BRANCH  15  16
HETATM   16  C9  UNL     1      25.890   3.560  49.495  1.00  0.00    -0.026 C 
HETATM   17  C10 UNL     1      27.064   4.058  49.211  1.00  0.00    -0.004 C 
BRANCH  17  18
HETATM   18  C11 UNL     1      27.208   5.370  48.614  1.00  0.00    -0.004 C 
HETATM   19  C12 UNL     1      28.414   5.784  48.282  1.00  0.00    -0.020 C 
BRANCH  19  20
HETATM   20  C13 UNL     1      28.826   7.069  47.664  1.00  0.00     0.096 C 
BRANCH  20  21
HETATM   21  C14 UNL     1      29.800   7.738  48.590  1.00  0.00     0.234 C 
HETATM   22  O3  UNL     1      30.925   7.316  48.784  1.00  0.00    -0.307 OA
ENDBRANCH  20  21
ENDBRANCH  19  20
ENDBRANCH  17  18
ENDBRANCH  15  16
ENDBRANCH  14  15
ENDBRANCH   2  14
TORSDOF 8
ENDMDL
MODEL 6
REMARK VINA RESULT:      -6.6      4.268      5.407
REMARK  8 active torsions:
REMARK  status: ('A' for Active; 'I' for Inactive)
REMARK    1  A    between atoms: C5_5  and  S1_6 
REMARK    2  A    between atoms: S1_6  and  N1_8 
REMARK       I    between atoms: N1_8  and  C6_9 
REMARK    3  A    between atoms: C6_9  and  C7_11 
REMARK    4  A    between atoms: C7_11  and  C8_12 
REMARK    5  A    between atoms: C8_12  and  C9_13 
REMARK    6  A    between atoms: C10_14  and  C11_15 
REMARK    7  A    between atoms: C12_16  and  C13_17 
REMARK    8  A    between atoms: C13_17  and  C14_18 
ROOT
HETATM    1  N1  UNL     1      24.369   4.928  51.773  1.00  0.00    -0.272 N 
HETATM    2  C6  UNL     1      24.130   3.544  51.761  1.00  0.00     0.229 C 
HETATM    3  O2  UNL     1      23.929   3.167  50.557  1.00  0.00    -0.273 OA
HETATM    4  H6  UNL     1      24.566   5.501  52.647  1.00  0.00     0.179 HD
ENDROOT
BRANCH   1   5
HETATM    5  S1  UNL     1      24.348   5.807  50.262  1.00  0.00     0.153 S 
HETATM    6  O1  UNL     1      24.004   7.274  50.583  1.00  0.00    -0.230 OA
BRANCH   5   7
HETATM    7  C5  UNL     1      25.922   5.827  49.474  1.00  0.00     0.052 A 
HETATM    8  C4  UNL     1      26.728   4.764  49.121  1.00  0.00     0.023 A 
HETATM    9  C3  UNL     1      27.939   4.992  48.503  1.00  0.00     0.008 A 
HETATM   10  C2  UNL     1      28.366   6.276  48.229  1.00  0.00    -0.062 A 
HETATM   11  C1  UNL     1      29.682   6.505  47.558  1.00  0.00     0.048 C 
HETATM   12  C16 UNL     1      27.582   7.351  48.571  1.00  0.00     0.008 A 
HETATM   13  C15 UNL     1      26.360   7.121  49.193  1.00  0.00     0.023 A 
ENDBRANCH   5   7
ENDBRANCH   1   5
BRANCH   2  14
HETATM   14  C7  UNL     1      24.154   2.834  53.042  1.00  0.00     0.107 C 
BRANCH  14  15
HETATM   15  C8  UNL     1      25.477   2.211  53.395  1.00  0.00     0.036 C 
BRANCH  15  16
HETATM   16  C9  UNL     1      25.758   0.939  52.725  1.00  0.00    -0.026 C 
HETATM   17  C10 UNL     1      25.391  -0.290  52.976  1.00  0.00    -0.004 C 
BRANCH  17  18
HETATM   18  C11 UNL     1      24.542  -0.613  54.104  1.00  0.00    -0.004 C 
HETATM   19  C12 UNL     1      23.238  -0.662  53.918  1.00  0.00    -0.020 C 
BRANCH  19  20
HETATM   20  C13 UNL     1      22.164  -0.966  54.897  1.00  0.00     0.096 C 
BRANCH  20  21
HETATM   21  C14 UNL     1      20.961  -0.143  54.536  1.00  0.00     0.234 C 
HETATM   22  O3  UNL     1      20.107  -0.527  53.760  1.00  0.00    -0.307 OA
ENDBRANCH  20  21
ENDBRANCH  19  20
ENDBRANCH  17  18
ENDBRANCH  15  16
ENDBRANCH  14  15
ENDBRANCH   2  14
TORSDOF 8
ENDMDL
MODEL 7
REMARK VINA RESULT:      -6.5      5.076      6.324
REMARK  8 active torsions:
REMARK  status: ('A' for Active; 'I' for Inactive)
REMARK    1  A    between atoms: C5_5  and  S1_6 
REMARK    2  A    between atoms: S1_6  and  N1_8 
REMARK       I    between atoms: N1_8  and  C6_9 
REMARK    3  A    between atoms: C6_9  and  C7_11 
REMARK    4  A    between atoms: C7_11  and  C8_12 
REMARK    5  A    between atoms: C8_12  and  C9_13 
REMARK    6  A    between atoms: C10_14  and  C11_15 
REMARK    7  A    between atoms: C12_16  and  C13_17 
REMARK    8  A    between atoms: C13_17  and  C14_18 
ROOT
HETATM    1  N1  UNL     1      26.466   4.388  50.267  1.00  0.00    -0.272 N 
HETATM    2  C6  UNL     1      25.502   3.382  50.444  1.00  0.00     0.229 C 
HETATM    3  O2  UNL     1      24.460   3.681  49.767  1.00  0.00    -0.273 OA
HETATM    4  H6  UNL     1      27.429   4.391  50.719  1.00  0.00     0.179 HD
ENDROOT
BRANCH   1   5
HETATM    5  S1  UNL     1      26.093   5.751  49.237  1.00  0.00     0.153 S 
HETATM    6  O1  UNL     1      25.638   6.909  50.147  1.00  0.00    -0.230 OA
BRANCH   5   7
HETATM    7  C5  UNL     1      27.502   6.335  48.358  1.00  0.00     0.052 A 
HETATM    8  C4  UNL     1      27.634   7.474  47.590  1.00  0.00     0.023 A 
HETATM    9  C3  UNL     1      28.836   7.757  46.977  1.00  0.00     0.008 A 
HETATM   10  C2  UNL     1      29.921   6.915  47.119  1.00  0.00    -0.062 A 
HETATM   11  C1  UNL     1      31.217   7.238  46.447  1.00  0.00     0.048 C 
HETATM   12  C16 UNL     1      29.815   5.775  47.877  1.00  0.00     0.008 A 
HETATM   13  C15 UNL     1      28.603   5.489  48.496  1.00  0.00     0.023 A 
ENDBRANCH   5   7
ENDBRANCH   1   5
BRANCH   2  14
HETATM   14  C7  UNL     1      25.843   2.253  51.312  1.00  0.00     0.107 C 
BRANCH  14  15
HETATM   15  C8  UNL     1      24.877   2.009  52.440  1.00  0.00     0.036 C 
BRANCH  15  16
HETATM   16  C9  UNL     1      24.389   0.633  52.549  1.00  0.00    -0.026 C 
HETATM   17  C10 UNL     1      24.886  -0.437  53.111  1.00  0.00    -0.004 C 
BRANCH  17  18
HETATM   18  C11 UNL     1      26.161  -0.412  53.797  1.00  0.00    -0.004 C 
HETATM   19  C12 UNL     1      27.256  -0.649  53.104  1.00  0.00    -0.020 C 
BRANCH  19  20
HETATM   20  C13 UNL     1      28.667  -0.681  53.564  1.00  0.00     0.096 C 
BRANCH  20  21
HETATM   21  C14 UNL     1      28.759   0.112  54.836  1.00  0.00     0.234 C 
HETATM   22  O3  UNL     1      29.057   1.291  54.858  1.00  0.00    -0.307 OA
ENDBRANCH  20  21
ENDBRANCH  19  20
ENDBRANCH  17  18
ENDBRANCH  15  16
ENDBRANCH  14  15
ENDBRANCH   2  14
TORSDOF 8
ENDMDL
MODEL 8
REMARK VINA RESULT:      -6.5      2.471      4.634
REMARK  8 active torsions:
REMARK  status: ('A' for Active; 'I' for Inactive)
REMARK    1  A    between atoms: C5_5  and  S1_6 
REMARK    2  A    between atoms: S1_6  and  N1_8 
REMARK       I    between atoms: N1_8  and  C6_9 
REMARK    3  A    between atoms: C6_9  and  C7_11 
REMARK    4  A    between atoms: C7_11  and  C8_12 
REMARK    5  A    between atoms: C8_12  and  C9_13 
REMARK    6  A    between atoms: C10_14  and  C11_15 
REMARK    7  A    between atoms: C12_16  and  C13_17 
REMARK    8  A    between atoms: C13_17  and  C14_18 
ROOT
HETATM    1  N1  UNL     1      20.518   2.071  52.143  1.00  0.00    -0.272 N 
HETATM    2  C6  UNL     1      20.169   0.732  51.902  1.00  0.00     0.229 C 
HETATM    3  O2  UNL     1      20.016   0.563  50.644  1.00  0.00    -0.273 OA
HETATM    4  H6  UNL     1      20.704   2.484  53.105  1.00  0.00     0.179 HD
ENDROOT
BRANCH   1   5
HETATM    5  S1  UNL     1      20.666   3.168  50.789  1.00  0.00     0.153 S 
HETATM    6  O1  UNL     1      20.157   4.547  51.252  1.00  0.00    -0.230 OA
BRANCH   5   7
HETATM    7  C5  UNL     1      22.339   3.398  50.291  1.00  0.00     0.052 A 
HETATM    8  C4  UNL     1      22.846   4.231  49.314  1.00  0.00     0.023 A 
HETATM    9  C3  UNL     1      24.202   4.267  49.074  1.00  0.00     0.008 A 
HETATM   10  C2  UNL     1      25.073   3.479  49.800  1.00  0.00    -0.062 A 
HETATM   11  C1  UNL     1      26.542   3.530  49.527  1.00  0.00     0.048 C 
HETATM   12  C16 UNL     1      24.594   2.641  50.777  1.00  0.00     0.008 A 
HETATM   13  C15 UNL     1      23.225   2.604  51.020  1.00  0.00     0.023 A 
ENDBRANCH   5   7
ENDBRANCH   1   5
BRANCH   2  14
HETATM   14  C7  UNL     1      20.052  -0.163  53.055  1.00  0.00     0.107 C 
BRANCH  14  15
HETATM   15  C8  UNL     1      20.813   0.276  54.276  1.00  0.00     0.036 C 
BRANCH  15  16
HETATM   16  C9  UNL     1      21.695  -0.741  54.853  1.00  0.00    -0.026 C 
HETATM   17  C10 UNL     1      22.946  -1.049  54.638  1.00  0.00    -0.004 C 
BRANCH  17  18
HETATM   18  C11 UNL     1      23.746  -0.334  53.665  1.00  0.00    -0.004 C 
HETATM   19  C12 UNL     1      25.019  -0.652  53.537  1.00  0.00    -0.020 C 
BRANCH  19  20
HETATM   20  C13 UNL     1      26.040  -0.079  52.626  1.00  0.00     0.096 C 
BRANCH  20  21
HETATM   21  C14 UNL     1      27.395  -0.473  53.141  1.00  0.00     0.234 C 
HETATM   22  O3  UNL     1      27.613  -0.709  54.314  1.00  0.00    -0.307 OA
ENDBRANCH  20  21
ENDBRANCH  19  20
ENDBRANCH  17  18
ENDBRANCH  15  16
ENDBRANCH  14  15
ENDBRANCH   2  14
TORSDOF 8
ENDMDL
MODEL 9
REMARK VINA RESULT:      -6.5      3.123      4.300
REMARK  8 active torsions:
REMARK  status: ('A' for Active; 'I' for Inactive)
REMARK    1  A    between atoms: C5_5  and  S1_6 
REMARK    2  A    between atoms: S1_6  and  N1_8 
REMARK       I    between atoms: N1_8  and  C6_9 
REMARK    3  A    between atoms: C6_9  and  C7_11 
REMARK    4  A    between atoms: C7_11  and  C8_12 
REMARK    5  A    between atoms: C8_12  and  C9_13 
REMARK    6  A    between atoms: C10_14  and  C11_15 
REMARK    7  A    between atoms: C12_16  and  C13_17 
REMARK    8  A    between atoms: C13_17  and  C14_18 
ROOT
HETATM    1  N1  UNL     1      22.413   2.764  51.181  1.00  0.00    -0.272 N 
HETATM    2  C6  UNL     1      21.086   2.618  51.617  1.00  0.00     0.229 C 
HETATM    3  O2  UNL     1      20.721   3.692  52.206  1.00  0.00    -0.273 OA
HETATM    4  H6  UNL     1      22.964   2.018  50.661  1.00  0.00     0.179 HD
ENDROOT
BRANCH   1   5
HETATM    5  S1  UNL     1      23.251   4.265  51.498  1.00  0.00     0.153 S 
HETATM    6  O1  UNL     1      23.675   4.256  52.980  1.00  0.00    -0.230 OA
BRANCH   5   7
HETATM    7  C5  UNL     1      24.733   4.418  50.560  1.00  0.00     0.052 A 
HETATM    8  C4  UNL     1      25.632   3.437  50.194  1.00  0.00     0.023 A 
HETATM    9  C3  UNL     1      26.744   3.765  49.448  1.00  0.00     0.008 A 
HETATM   10  C2  UNL     1      26.977   5.067  49.055  1.00  0.00    -0.062 A 
HETATM   11  C1  UNL     1      28.188   5.405  48.245  1.00  0.00     0.048 C 
HETATM   12  C16 UNL     1      26.098   6.061  49.406  1.00  0.00     0.008 A 
HETATM   13  C15 UNL     1      24.976   5.732  50.159  1.00  0.00     0.023 A 
ENDBRANCH   5   7
ENDBRANCH   1   5
BRANCH   2  14
HETATM   14  C7  UNL     1      20.409   1.349  51.337  1.00  0.00     0.107 C 
BRANCH  14  15
HETATM   15  C8  UNL     1      21.248   0.122  51.564  1.00  0.00     0.036 C 
BRANCH  15  16
HETATM   16  C9  UNL     1      21.375  -0.289  52.964  1.00  0.00    -0.026 C 
HETATM   17  C10 UNL     1      22.412  -0.553  53.715  1.00  0.00    -0.004 C 
BRANCH  17  18
HETATM   18  C11 UNL     1      23.763  -0.465  53.201  1.00  0.00    -0.004 C 
HETATM   19  C12 UNL     1      24.430   0.659  53.365  1.00  0.00    -0.020 C 
BRANCH  19  20
HETATM   20  C13 UNL     1      25.809   1.000  52.938  1.00  0.00     0.096 C 
BRANCH  20  21
HETATM   21  C14 UNL     1      26.301   2.123  53.807  1.00  0.00     0.234 C 
HETATM   22  O3  UNL     1      27.478   2.302  54.051  1.00  0.00    -0.307 OA
ENDBRANCH  20  21
ENDBRANCH  19  20
ENDBRANCH  17  18
ENDBRANCH  15  16
ENDBRANCH  14  15
ENDBRANCH   2  14
TORSDOF 8
ENDMDL
