MODEL 1
REMARK VINA RESULT:      -8.3      0.000      0.000
REMARK  5 active torsions:
REMARK  status: ('A' for Active; 'I' for Inactive)
REMARK    1  A    between atoms: N1_1  and  C1_2 
REMARK    2  A    between atoms: N2_11  and  C10_12 
REMARK    3  A    between atoms: C10_12  and  C11_13 
REMARK    4  A    between atoms: C11_13  and  C12_14 
REMARK    5  A    between atoms: C12_14  and  C13_15 
ROOT
HETATM    1  C1  UNL     1      26.892   0.522  52.391  1.00  0.00     0.296 C 
HETATM    2  C2  UNL     1      26.777   1.627  51.519  1.00  0.00    -0.065 C 
HETATM    3  C3  UNL     1      26.668   2.490  50.841  1.00  0.00    -0.061 C 
HETATM    4  C4  UNL     1      26.511   3.541  50.026  1.00  0.00     0.056 C 
HETATM    5  C5  UNL     1      26.964   4.275  49.122  1.00  0.00     0.009 C 
HETATM    6  C6  UNL     1      26.439   5.428  48.875  1.00  0.00    -0.012 C 
HETATM    7  C7  UNL     1      25.321   5.792  49.484  1.00  0.00     0.015 C 
HETATM    8  C8  UNL     1      24.693   4.805  50.394  1.00  0.00     0.032 C 
HETATM    9  C9  UNL     1      25.205   3.608  50.754  1.00  0.00     0.050 C 
HETATM   10  N2  UNL     1      24.250   2.979  51.674  1.00  0.00    -0.380 N 
HETATM   11  C19 UNL     1      24.740   2.637  52.948  1.00  0.00     0.123 C 
HETATM   12  C20 UNL     1      24.784   1.287  53.495  1.00  0.00     0.023 C 
HETATM   13  C21 UNL     1      25.426   0.158  52.799  1.00  0.00     0.050 C 
ENDROOT
BRANCH  10  14
HETATM   14  C10 UNL     1      22.917   2.864  51.144  1.00  0.00     0.123 C 
BRANCH  14  15
HETATM   15  C11 UNL     1      22.647   1.546  50.454  1.00  0.00     0.024 C 
BRANCH  15  16
HETATM   16  C12 UNL     1      21.370   0.934  50.922  1.00  0.00     0.040 C 
BRANCH  16  17
HETATM   17  C13 UNL     1      21.330   0.462  52.299  1.00  0.00    -0.058 A 
HETATM   18  C14 UNL     1      20.732   1.076  53.400  1.00  0.00     0.007 A 
HETATM   19  C15 UNL     1      20.851   0.390  54.616  1.00  0.00     0.001 A 
HETATM   20  C16 UNL     1      21.501  -0.808  54.774  1.00  0.00     0.000 A 
HETATM   21  C17 UNL     1      22.088  -1.403  53.677  1.00  0.00     0.001 A 
HETATM   22  C18 UNL     1      21.985  -0.749  52.467  1.00  0.00     0.007 A 
ENDBRANCH  16  17
ENDBRANCH  15  16
ENDBRANCH  14  15
ENDBRANCH  10  14
BRANCH   1  23
HETATM   23  N1  UNL     1      27.570   0.793  53.636  1.00  0.00     0.094 N 
HETATM   24  H1  UNL     1      26.928   0.584  54.429  1.00  0.00     0.314 HD
HETATM   25  H2  UNL     1      27.866   1.793  53.618  1.00  0.00     0.314 HD
ENDBRANCH   1  23
TORSDOF 5
ENDMDL
MODEL 2
REMARK VINA RESULT:      -8.2      1.417      6.374
REMARK  5 active torsions:
REMARK  status: ('A' for Active; 'I' for Inactive)
REMARK    1  A    between atoms: N1_1  and  C1_2 
REMARK    2  A    between atoms: N2_11  and  C10_12 
REMARK    3  A    between atoms: C10_12  and  C11_13 
REMARK    4  A    between atoms: C11_13  and  C12_14 
REMARK    5  A    between atoms: C12_14  and  C13_15 
ROOT
HETATM    1  C1  UNL     1      27.674   0.205  54.561  1.00  0.00     0.296 C 
HETATM    2  C2  UNL     1      26.307  -0.148  54.603  1.00  0.00    -0.065 C 
HETATM    3  C3  UNL     1      25.236  -0.409  54.623  1.00  0.00    -0.061 C 
HETATM    4  C4  UNL     1      23.931  -0.710  54.629  1.00  0.00     0.056 C 
HETATM    5  C5  UNL     1      22.967  -1.298  55.164  1.00  0.00     0.009 C 
HETATM    6  C6  UNL     1      21.861  -1.482  54.524  1.00  0.00    -0.012 C 
HETATM    7  C7  UNL     1      21.682  -0.927  53.336  1.00  0.00     0.015 C 
HETATM    8  C8  UNL     1      22.768  -0.057  52.823  1.00  0.00     0.032 C 
HETATM    9  C9  UNL     1      23.974   0.139  53.396  1.00  0.00     0.050 C 
HETATM   10  N2  UNL     1      24.724   1.064  52.537  1.00  0.00    -0.380 N 
HETATM   11  C19 UNL     1      25.960   0.600  52.047  1.00  0.00     0.123 C 
HETATM   12  C20 UNL     1      27.252   1.217  52.314  1.00  0.00     0.023 C 
HETATM   13  C21 UNL     1      27.745   1.493  53.675  1.00  0.00     0.050 C 
ENDROOT
BRANCH  10  14
HETATM   14  C10 UNL     1      24.040   2.301  52.272  1.00  0.00     0.123 C 
BRANCH  14  15
HETATM   15  C11 UNL     1      24.036   2.696  50.813  1.00  0.00     0.024 C 
BRANCH  15  16
HETATM   16  C12 UNL     1      24.241   4.164  50.642  1.00  0.00     0.040 C 
BRANCH  16  17
HETATM   17  C13 UNL     1      25.418   4.584  49.895  1.00  0.00    -0.058 A 
HETATM   18  C14 UNL     1      26.528   3.816  49.539  1.00  0.00     0.007 A 
HETATM   19  C15 UNL     1      27.521   4.486  48.813  1.00  0.00     0.001 A 
HETATM   20  C16 UNL     1      27.461   5.808  48.448  1.00  0.00     0.000 A 
HETATM   21  C17 UNL     1      26.358   6.554  48.807  1.00  0.00     0.001 A 
HETATM   22  C18 UNL     1      25.365   5.918  49.522  1.00  0.00     0.007 A 
ENDBRANCH  16  17
ENDBRANCH  15  16
ENDBRANCH  14  15
ENDBRANCH  10  14
BRANCH   1  23
HETATM   23  N1  UNL     1      28.533  -0.750  53.901  1.00  0.00     0.094 N 
HETATM   24  H1  UNL     1      28.067  -1.681  53.890  1.00  0.00     0.314 HD
HETATM   25  H2  UNL     1      29.437  -0.766  54.421  1.00  0.00     0.314 HD
ENDBRANCH   1  23
TORSDOF 5
ENDMDL
MODEL 3
REMARK VINA RESULT:      -7.7      2.046      5.114
REMARK  5 active torsions:
REMARK  status: ('A' for Active; 'I' for Inactive)
REMARK    1  A    between atoms: N1_1  and  C1_2 
REMARK    2  A    between atoms: N2_11  and  C10_12 
REMARK    3  A    between atoms: C10_12  and  C11_13 
REMARK    4  A    between atoms: C11_13  and  C12_14 
REMARK    5  A    between atoms: C12_14  and  C13_15 
ROOT
HETATM    1  C1  UNL     1      25.485   2.933  50.641  1.00  0.00     0.296 C 
HETATM    2  C2  UNL     1      24.175   2.493  50.349  1.00  0.00    -0.065 C 
HETATM    3  C3  UNL     1      23.151   2.141  50.140  1.00  0.00    -0.061 C 
HETATM    4  C4  UNL     1      21.906   1.707  49.910  1.00  0.00     0.056 C 
HETATM    5  C5  UNL     1      20.991   1.449  49.099  1.00  0.00     0.009 C 
HETATM    6  C6  UNL     1      19.773   1.290  49.495  1.00  0.00    -0.012 C 
HETATM    7  C7  UNL     1      19.496   1.259  50.790  1.00  0.00     0.015 C 
HETATM    8  C8  UNL     1      20.639   1.355  51.731  1.00  0.00     0.032 C 
HETATM    9  C9  UNL     1      21.928   1.584  51.402  1.00  0.00     0.050 C 
HETATM   10  N2  UNL     1      22.702   1.609  52.649  1.00  0.00    -0.380 N 
HETATM   11  C19 UNL     1      23.428   2.786  52.913  1.00  0.00     0.123 C 
HETATM   12  C20 UNL     1      24.875   2.862  53.064  1.00  0.00     0.023 C 
HETATM   13  C21 UNL     1      25.817   2.349  52.054  1.00  0.00     0.050 C 
ENDROOT
BRANCH  10  14
HETATM   14  C10 UNL     1      22.547   0.428  53.457  1.00  0.00     0.123 C 
BRANCH  14  15
HETATM   15  C11 UNL     1      23.629  -0.606  53.241  1.00  0.00     0.024 C 
BRANCH  15  16
HETATM   16  C12 UNL     1      24.592  -0.638  54.380  1.00  0.00     0.040 C 
BRANCH  16  17
HETATM   17  C13 UNL     1      26.009  -0.626  54.046  1.00  0.00    -0.058 A 
HETATM   18  C14 UNL     1      26.645  -1.262  52.978  1.00  0.00     0.007 A 
HETATM   19  C15 UNL     1      28.031  -1.076  52.900  1.00  0.00     0.001 A 
HETATM   20  C16 UNL     1      28.768  -0.330  53.786  1.00  0.00     0.000 A 
HETATM   21  C17 UNL     1      28.126   0.292  54.836  1.00  0.00     0.001 A 
HETATM   22  C18 UNL     1      26.761   0.126  54.936  1.00  0.00     0.007 A 
ENDBRANCH  16  17
ENDBRANCH  15  16
ENDBRANCH  14  15
ENDBRANCH  10  14
BRANCH   1  23
HETATM   23  N1  UNL     1      25.633   4.362  50.783  1.00  0.00     0.094 N 
HETATM   24  H1  UNL     1      26.591   4.575  51.134  1.00  0.00     0.314 HD
HETATM   25  H2  UNL     1      24.890   4.688  51.438  1.00  0.00     0.314 HD
ENDBRANCH   1  23
TORSDOF 5
ENDMDL
MODEL 4
REMARK VINA RESULT:      -7.7      1.632      3.205
REMARK  5 active torsions:
REMARK  status: ('A' for Active; 'I' for Inactive)
REMARK    1  A    between atoms: N1_1  and  C1_2 
REMARK    2  A    between atoms: N2_11  and  C10_12 
REMARK    3  A    between atoms: C10_12  and  C11_13 
REMARK    4  A    between atoms: C11_13  and  C12_14 
REMARK    5  A    between atoms: C12_14  and  C13_15 
ROOT
HETATM    1  C1  UNL     1      27.257  -0.296  52.481  1.00  0.00     0.296 C 
HETATM    2  C2  UNL     1      26.850   0.827  51.727  1.00  0.00    -0.065 C 
HETATM    3  C3  UNL     1      26.515   1.703  51.149  1.00  0.00    -0.061 C 
HETATM    4  C4  UNL     1      26.088   2.770  50.461  1.00  0.00     0.056 C 
HETATM    5  C5  UNL     1      26.198   3.525  49.471  1.00  0.00     0.009 C 
HETATM    6  C6  UNL     1      25.627   4.681  49.447  1.00  0.00    -0.012 C 
HETATM    7  C7  UNL     1      24.796   5.031  50.417  1.00  0.00     0.015 C 
HETATM    8  C8  UNL     1      24.522   4.024  51.471  1.00  0.00     0.032 C 
HETATM    9  C9  UNL     1      25.121   2.821  51.603  1.00  0.00     0.050 C 
HETATM   10  N2  UNL     1      24.546   2.171  52.787  1.00  0.00    -0.380 N 
HETATM   11  C19 UNL     1      25.450   1.804  53.801  1.00  0.00     0.123 C 
HETATM   12  C20 UNL     1      25.675   0.443  54.270  1.00  0.00     0.023 C 
HETATM   13  C21 UNL     1      26.025  -0.670  53.371  1.00  0.00     0.050 C 
ENDROOT
BRANCH  10  14
HETATM   14  C10 UNL     1      23.111   2.065  52.757  1.00  0.00     0.123 C 
BRANCH  14  15
HETATM   15  C11 UNL     1      22.603   0.888  51.954  1.00  0.00     0.024 C 
BRANCH  15  16
HETATM   16  C12 UNL     1      21.416   1.259  51.131  1.00  0.00     0.040 C 
BRANCH  16  17
HETATM   17  C13 UNL     1      21.614   2.276  50.108  1.00  0.00    -0.058 A 
HETATM   18  C14 UNL     1      21.068   3.560  50.057  1.00  0.00     0.007 A 
HETATM   19  C15 UNL     1      21.435   4.330  48.945  1.00  0.00     0.001 A 
HETATM   20  C16 UNL     1      22.270   3.904  47.943  1.00  0.00     0.000 A 
HETATM   21  C17 UNL     1      22.802   2.633  48.007  1.00  0.00     0.001 A 
HETATM   22  C18 UNL     1      22.457   1.854  49.091  1.00  0.00     0.007 A 
ENDBRANCH  16  17
ENDBRANCH  15  16
ENDBRANCH  14  15
ENDBRANCH  10  14
BRANCH   1  23
HETATM   23  N1  UNL     1      28.331  -0.050  53.414  1.00  0.00     0.094 N 
HETATM   24  H1  UNL     1      28.920   0.733  53.061  1.00  0.00     0.314 HD
HETATM   25  H2  UNL     1      28.868  -0.938  53.511  1.00  0.00     0.314 HD
ENDBRANCH   1  23
TORSDOF 5
ENDMDL
MODEL 5
REMARK VINA RESULT:      -7.7      1.828      4.877
REMARK  5 active torsions:
REMARK  status: ('A' for Active; 'I' for Inactive)
REMARK    1  A    between atoms: N1_1  and  C1_2 
REMARK    2  A    between atoms: N2_11  and  C10_12 
REMARK    3  A    between atoms: C10_12  and  C11_13 
REMARK    4  A    between atoms: C11_13  and  C12_14 
REMARK    5  A    between atoms: C12_14  and  C13_15 
ROOT
HETATM    1  C1  UNL     1      27.520  -0.103  54.492  1.00  0.00     0.296 C 
HETATM    2  C2  UNL     1      26.125  -0.324  54.467  1.00  0.00    -0.065 C 
HETATM    3  C3  UNL     1      25.034  -0.479  54.435  1.00  0.00    -0.061 C 
HETATM    4  C4  UNL     1      23.707  -0.650  54.381  1.00  0.00     0.056 C 
HETATM    5  C5  UNL     1      22.676  -1.199  54.825  1.00  0.00     0.009 C 
HETATM    6  C6  UNL     1      21.577  -1.200  54.147  1.00  0.00    -0.012 C 
HETATM    7  C7  UNL     1      21.487  -0.496  53.029  1.00  0.00     0.015 C 
HETATM    8  C8  UNL     1      22.665   0.318  52.643  1.00  0.00     0.032 C 
HETATM    9  C9  UNL     1      23.867   0.327  53.258  1.00  0.00     0.050 C 
HETATM   10  N2  UNL     1      24.727   1.267  52.529  1.00  0.00    -0.380 N 
HETATM   11  C19 UNL     1      25.927   0.745  52.011  1.00  0.00     0.123 C 
HETATM   12  C20 UNL     1      27.264   1.198  52.373  1.00  0.00     0.023 C 
HETATM   13  C21 UNL     1      27.740   1.266  53.766  1.00  0.00     0.050 C 
ENDROOT
BRANCH  10  14
HETATM   14  C10 UNL     1      24.171   2.588  52.399  1.00  0.00     0.123 C 
BRANCH  14  15
HETATM   15  C11 UNL     1      24.432   3.230  51.055  1.00  0.00     0.024 C 
BRANCH  15  16
HETATM   16  C12 UNL     1      23.200   3.862  50.501  1.00  0.00     0.040 C 
BRANCH  16  17
HETATM   17  C13 UNL     1      22.044   2.996  50.309  1.00  0.00    -0.058 A 
HETATM   18  C14 UNL     1      20.796   3.081  50.926  1.00  0.00     0.007 A 
HETATM   19  C15 UNL     1      19.864   2.106  50.547  1.00  0.00     0.001 A 
HETATM   20  C16 UNL     1      20.107   1.110  49.635  1.00  0.00     0.000 A 
HETATM   21  C17 UNL     1      21.346   1.038  49.033  1.00  0.00     0.001 A 
HETATM   22  C18 UNL     1      22.281   1.986  49.388  1.00  0.00     0.007 A 
ENDBRANCH  16  17
ENDBRANCH  15  16
ENDBRANCH  14  15
ENDBRANCH  10  14
BRANCH   1  23
HETATM   23  N1  UNL     1      28.304  -1.054  53.741  1.00  0.00     0.094 N 
HETATM   24  H1  UNL     1      28.686  -1.774  54.390  1.00  0.00     0.314 HD
HETATM   25  H2  UNL     1      29.057  -0.521  53.254  1.00  0.00     0.314 HD
ENDBRANCH   1  23
TORSDOF 5
ENDMDL
MODEL 6
REMARK VINA RESULT:      -7.6      8.701     11.649
REMARK  5 active torsions:
REMARK  status: ('A' for Active; 'I' for Inactive)
REMARK    1  A    between atoms: N1_1  and  C1_2 
REMARK    2  A    between atoms: N2_11  and  C10_12 
REMARK    3  A    between atoms: C10_12  and  C11_13 
REMARK    4  A    between atoms: C11_13  and  C12_14 
REMARK    5  A    between atoms: C12_14  and  C13_15 
ROOT
HETATM    1  C1  UNL     1      29.563   6.648  48.103  1.00  0.00     0.296 C 
HETATM    2  C2  UNL     1      30.941   6.423  48.315  1.00  0.00    -0.065 C 
HETATM    3  C3  UNL     1      32.021   6.257  48.464  1.00  0.00    -0.061 C 
HETATM    4  C4  UNL     1      33.337   6.072  48.625  1.00  0.00     0.056 C 
HETATM    5  C5  UNL     1      34.276   5.454  49.174  1.00  0.00     0.009 C 
HETATM    6  C6  UNL     1      35.479   5.921  49.160  1.00  0.00    -0.012 C 
HETATM    7  C7  UNL     1      35.764   6.996  48.441  1.00  0.00     0.015 C 
HETATM    8  C8  UNL     1      34.669   7.581  47.630  1.00  0.00     0.032 C 
HETATM    9  C9  UNL     1      33.375   7.194  47.635  1.00  0.00     0.050 C 
HETATM   10  N2  UNL     1      32.655   8.056  46.691  1.00  0.00    -0.380 N 
HETATM   11  C19 UNL     1      31.573   8.790  47.214  1.00  0.00     0.123 C 
HETATM   12  C20 UNL     1      30.189   8.671  46.774  1.00  0.00     0.023 C 
HETATM   13  C21 UNL     1      29.468   7.387  46.727  1.00  0.00     0.050 C 
ENDROOT
BRANCH  10  14
HETATM   14  C10 UNL     1      33.214   8.068  45.366  1.00  0.00     0.123 C 
BRANCH  14  15
HETATM   15  C11 UNL     1      32.738   6.930  44.492  1.00  0.00     0.024 C 
BRANCH  15  16
HETATM   16  C12 UNL     1      33.820   5.932  44.253  1.00  0.00     0.040 C 
BRANCH  16  17
HETATM   17  C13 UNL     1      33.867   4.783  45.147  1.00  0.00    -0.058 A 
HETATM   18  C14 UNL     1      34.994   4.143  45.665  1.00  0.00     0.007 A 
HETATM   19  C15 UNL     1      34.739   3.053  46.508  1.00  0.00     0.001 A 
HETATM   20  C16 UNL     1      33.487   2.600  46.837  1.00  0.00     0.000 A 
HETATM   21  C17 UNL     1      32.382   3.242  46.317  1.00  0.00     0.001 A 
HETATM   22  C18 UNL     1      32.605   4.318  45.485  1.00  0.00     0.007 A 
ENDBRANCH  16  17
ENDBRANCH  15  16
ENDBRANCH  14  15
ENDBRANCH  10  14
BRANCH   1  23
HETATM   23  N1  UNL     1      28.936   7.540  49.049  1.00  0.00     0.094 N 
HETATM   24  H1  UNL     1      29.583   8.330  49.257  1.00  0.00     0.314 HD
HETATM   25  H2  UNL     1      28.708   6.981  49.900  1.00  0.00     0.314 HD
ENDBRANCH   1  23
TORSDOF 5
ENDMDL
MODEL 7
REMARK VINA RESULT:      -7.6      1.847      6.100
REMARK  5 active torsions:
REMARK  status: ('A' for Active; 'I' for Inactive)
REMARK    1  A    between atoms: N1_1  and  C1_2 
REMARK    2  A    between atoms: N2_11  and  C10_12 
REMARK    3  A    between atoms: C10_12  and  C11_13 
REMARK    4  A    between atoms: C11_13  and  C12_14 
REMARK    5  A    between atoms: C12_14  and  C13_15 
ROOT
HETATM    1  C1  UNL     1      23.397   2.896  49.412  1.00  0.00     0.296 C 
HETATM    2  C2  UNL     1      22.580   2.079  50.224  1.00  0.00    -0.065 C 
HETATM    3  C3  UNL     1      21.958   1.439  50.871  1.00  0.00    -0.061 C 
HETATM    4  C4  UNL     1      21.220   0.662  51.674  1.00  0.00     0.056 C 
HETATM    5  C5  UNL     1      20.212  -0.058  51.843  1.00  0.00     0.009 C 
HETATM    6  C6  UNL     1      19.811  -0.376  53.028  1.00  0.00    -0.012 C 
HETATM    7  C7  UNL     1      20.545  -0.059  54.084  1.00  0.00     0.015 C 
HETATM    8  C8  UNL     1      21.844   0.610  53.831  1.00  0.00     0.032 C 
HETATM    9  C9  UNL     1      22.308   1.031  52.634  1.00  0.00     0.050 C 
HETATM   10  N2  UNL     1      23.623   1.641  52.862  1.00  0.00    -0.380 N 
HETATM   11  C19 UNL     1      23.770   2.981  52.456  1.00  0.00     0.123 C 
HETATM   12  C20 UNL     1      24.721   3.454  51.458  1.00  0.00     0.023 C 
HETATM   13  C21 UNL     1      24.803   2.894  50.098  1.00  0.00     0.050 C 
ENDROOT
BRANCH  10  14
HETATM   14  C10 UNL     1      24.558   0.781  53.536  1.00  0.00     0.123 C 
BRANCH  14  15
HETATM   15  C11 UNL     1      25.090  -0.340  52.671  1.00  0.00     0.024 C 
BRANCH  15  16
HETATM   16  C12 UNL     1      26.350   0.055  51.977  1.00  0.00     0.040 C 
BRANCH  16  17
HETATM   17  C13 UNL     1      27.367   0.718  52.782  1.00  0.00    -0.058 A 
HETATM   18  C14 UNL     1      27.668   2.080  52.832  1.00  0.00     0.007 A 
HETATM   19  C15 UNL     1      28.704   2.440  53.704  1.00  0.00     0.001 A 
HETATM   20  C16 UNL     1      29.411   1.556  54.480  1.00  0.00     0.000 A 
HETATM   21  C17 UNL     1      29.102   0.213  54.420  1.00  0.00     0.001 A 
HETATM   22  C18 UNL     1      28.086  -0.168  53.570  1.00  0.00     0.007 A 
ENDBRANCH  16  17
ENDBRANCH  15  16
ENDBRANCH  14  15
ENDBRANCH  10  14
BRANCH   1  23
HETATM   23  N1  UNL     1      23.010   4.286  49.357  1.00  0.00     0.094 N 
HETATM   24  H1  UNL     1      22.015   4.354  49.059  1.00  0.00     0.314 HD
HETATM   25  H2  UNL     1      23.657   4.763  48.692  1.00  0.00     0.314 HD
ENDBRANCH   1  23
TORSDOF 5
ENDMDL
MODEL 8
REMARK VINA RESULT:      -7.3      2.018      5.539
REMARK  5 active torsions:
REMARK  status: ('A' for Active; 'I' for Inactive)
REMARK    1  A    between atoms: N1_1  and  C1_2 
REMARK    2  A    between atoms: N2_11  and  C10_12 
REMARK    3  A    between atoms: C10_12  and  C11_13 
REMARK    4  A    between atoms: C11_13  and  C12_14 
REMARK    5  A    between atoms: C12_14  and  C13_15 
ROOT
HETATM    1  C1  UNL     1      27.535  -0.066  54.526  1.00  0.00     0.296 C 
HETATM    2  C2  UNL     1      26.146  -0.202  54.306  1.00  0.00    -0.065 C 
HETATM    3  C3  UNL     1      25.063  -0.292  54.124  1.00  0.00    -0.061 C 
HETATM    4  C4  UNL     1      23.748  -0.381  53.887  1.00  0.00     0.056 C 
HETATM    5  C5  UNL     1      22.638  -0.886  54.164  1.00  0.00     0.009 C 
HETATM    6  C6  UNL     1      21.642  -0.795  53.349  1.00  0.00    -0.012 C 
HETATM    7  C7  UNL     1      21.741  -0.042  52.263  1.00  0.00     0.015 C 
HETATM    8  C8  UNL     1      23.002   0.715  52.075  1.00  0.00     0.032 C 
HETATM    9  C9  UNL     1      24.109   0.629  52.843  1.00  0.00     0.050 C 
HETATM   10  N2  UNL     1      25.108   1.545  52.279  1.00  0.00    -0.380 N 
HETATM   11  C19 UNL     1      26.337   0.973  51.899  1.00  0.00     0.123 C 
HETATM   12  C20 UNL     1      27.635   1.332  52.455  1.00  0.00     0.023 C 
HETATM   13  C21 UNL     1      27.923   1.315  53.901  1.00  0.00     0.050 C 
ENDROOT
BRANCH  10  14
HETATM   14  C10 UNL     1      24.646   2.900  52.139  1.00  0.00     0.123 C 
BRANCH  14  15
HETATM   15  C11 UNL     1      25.066   3.558  50.844  1.00  0.00     0.024 C 
BRANCH  15  16
HETATM   16  C12 UNL     1      23.977   4.408  50.283  1.00  0.00     0.040 C 
BRANCH  16  17
HETATM   17  C13 UNL     1      23.269   3.890  49.120  1.00  0.00    -0.058 A 
HETATM   18  C14 UNL     1      22.899   2.570  48.858  1.00  0.00     0.007 A 
HETATM   19  C15 UNL     1      22.220   2.358  47.650  1.00  0.00     0.001 A 
HETATM   20  C16 UNL     1      21.913   3.345  46.747  1.00  0.00     0.000 A 
HETATM   21  C17 UNL     1      22.286   4.645  47.019  1.00  0.00     0.001 A 
HETATM   22  C18 UNL     1      22.954   4.880  48.202  1.00  0.00     0.007 A 
ENDBRANCH  16  17
ENDBRANCH  15  16
ENDBRANCH  14  15
ENDBRANCH  10  14
BRANCH   1  23
HETATM   23  N1  UNL     1      28.361  -1.031  53.840  1.00  0.00     0.094 N 
HETATM   24  H1  UNL     1      29.355  -0.721  53.877  1.00  0.00     0.314 HD
HETATM   25  H2  UNL     1      28.005  -1.107  52.863  1.00  0.00     0.314 HD
ENDBRANCH   1  23
TORSDOF 5
ENDMDL
MODEL 9
REMARK VINA RESULT:      -7.3      2.059      6.536
REMARK  5 active torsions:
REMARK  status: ('A' for Active; 'I' for Inactive)
REMARK    1  A    between atoms: N1_1  and  C1_2 
REMARK    2  A    between atoms: N2_11  and  C10_12 
REMARK    3  A    between atoms: C10_12  and  C11_13 
REMARK    4  A    between atoms: C11_13  and  C12_14 
REMARK    5  A    between atoms: C12_14  and  C13_15 
ROOT
HETATM    1  C1  UNL     1      21.313   3.619  50.838  1.00  0.00     0.296 C 
HETATM    2  C2  UNL     1      21.342   2.435  51.608  1.00  0.00    -0.065 C 
HETATM    3  C3  UNL     1      21.385   1.509  52.205  1.00  0.00    -0.061 C 
HETATM    4  C4  UNL     1      21.462   0.386  52.930  1.00  0.00     0.056 C 
HETATM    5  C5  UNL     1      20.891  -0.590  53.464  1.00  0.00     0.009 C 
HETATM    6  C6  UNL     1      21.484  -1.298  54.364  1.00  0.00    -0.012 C 
HETATM    7  C7  UNL     1      22.763  -1.088  54.638  1.00  0.00     0.015 C 
HETATM    8  C8  UNL     1      23.469  -0.062  53.833  1.00  0.00     0.032 C 
HETATM    9  C9  UNL     1      22.911   0.762  52.920  1.00  0.00     0.050 C 
HETATM   10  N2  UNL     1      23.981   1.612  52.384  1.00  0.00    -0.380 N 
HETATM   11  C19 UNL     1      23.803   3.002  52.521  1.00  0.00     0.123 C 
HETATM   12  C20 UNL     1      23.722   3.949  51.417  1.00  0.00     0.023 C 
HETATM   13  C21 UNL     1      22.771   3.804  50.301  1.00  0.00     0.050 C 
ENDROOT
BRANCH  10  14
HETATM   14  C10 UNL     1      25.096   0.880  51.847  1.00  0.00     0.123 C 
BRANCH  14  15
HETATM   15  C11 UNL     1      26.436   1.530  52.108  1.00  0.00     0.024 C 
BRANCH  15  16
HETATM   16  C12 UNL     1      26.982   1.144  53.442  1.00  0.00     0.040 C 
BRANCH  16  17
HETATM   17  C13 UNL     1      28.003   0.106  53.460  1.00  0.00    -0.058 A 
HETATM   18  C14 UNL     1      29.345   0.228  53.822  1.00  0.00     0.007 A 
HETATM   19  C15 UNL     1      30.104  -0.948  53.745  1.00  0.00     0.001 A 
HETATM   20  C16 UNL     1      29.614  -2.166  53.347  1.00  0.00     0.000 A 
HETATM   21  C17 UNL     1      28.285  -2.272  52.992  1.00  0.00     0.001 A 
HETATM   22  C18 UNL     1      27.516  -1.130  53.059  1.00  0.00     0.007 A 
ENDBRANCH  16  17
ENDBRANCH  15  16
ENDBRANCH  14  15
ENDBRANCH  10  14
BRANCH   1  23
HETATM   23  N1  UNL     1      21.032   4.824  51.581  1.00  0.00     0.094 N 
HETATM   24  H1  UNL     1      21.923   5.338  51.752  1.00  0.00     0.314 HD
HETATM   25  H2  UNL     1      20.562   4.542  52.468  1.00  0.00     0.314 HD
ENDBRANCH   1  23
TORSDOF 5
ENDMDL
