MODEL 1
REMARK VINA RESULT:      -8.2      0.000      0.000
REMARK  5 active torsions:
REMARK  status: ('A' for Active; 'I' for Inactive)
REMARK    1  A    between atoms: O1_1  and  C1_2 
REMARK    2  A    between atoms: C5_6  and  N1_7 
REMARK    3  A    between atoms: N1_7  and  C6_8 
REMARK    4  A    between atoms: C6_8  and  C7_9 
REMARK    5  A    between atoms: C8_10  and  C9_12 
ROOT
HETATM    1  C1  UNL     1      19.536   0.213  51.825  1.00  0.00     0.202 C 
HETATM    2  C2  UNL     1      20.552   0.194  52.719  1.00  0.00     0.073 C 
HETATM    3  C3  UNL     1      21.801   0.826  52.259  1.00  0.00     0.104 C 
HETATM    4  C4  UNL     1      23.053   0.420  52.890  1.00  0.00    -0.007 C 
HETATM    5  C5  UNL     1      23.407  -0.528  53.719  1.00  0.00     0.131 C 
HETATM    6  N2  UNL     1      22.522  -1.371  54.427  1.00  0.00    -0.226 NA
HETATM    7  C10 UNL     1      21.284  -1.116  54.734  1.00  0.00     0.209 C 
HETATM    8  N3  UNL     1      20.278  -0.440  53.951  1.00  0.00    -0.350 N 
HETATM    9  C11 UNL     1      24.034   1.406  52.365  1.00  0.00     0.008 C 
HETATM   10  C12 UNL     1      24.232   2.161  51.320  1.00  0.00    -0.020 C 
HETATM   11  C13 UNL     1      23.296   2.203  50.159  1.00  0.00     0.020 C 
HETATM   12  C14 UNL     1      23.021   2.743  48.941  1.00  0.00    -0.002 C 
HETATM   13  C15 UNL     1      21.833   2.386  48.139  1.00  0.00     0.008 C 
HETATM   14  C16 UNL     1      20.919   1.370  48.703  1.00  0.00     0.027 C 
HETATM   15  C17 UNL     1      20.200   1.795  49.992  1.00  0.00     0.178 C 
HETATM   16  O2  UNL     1      19.524   0.731  50.556  1.00  0.00    -0.329 OA
HETATM   17  H11 UNL     1      19.280  -0.362  54.218  1.00  0.00     0.166 HD
ENDROOT
BRANCH   5  18
HETATM   18  N1  UNL     1      24.832  -0.563  53.787  1.00  0.00    -0.371 N 
HETATM   19  H4  UNL     1      25.329  -0.588  52.850  1.00  0.00     0.161 HD
BRANCH  18  20
HETATM   20  C6  UNL     1      25.572  -0.566  55.052  1.00  0.00     0.150 C 
BRANCH  20  21
HETATM   21  C7  UNL     1      26.794   0.302  54.947  1.00  0.00     0.013 C 
HETATM   22  C8  UNL     1      27.987   0.340  54.369  1.00  0.00     0.023 C 
HETATM   23 CL1  UNL     1      29.248   1.572  54.458  1.00  0.00    -0.088 Cl
BRANCH  22  24
HETATM   24  C9  UNL     1      28.440  -0.789  53.478  1.00  0.00     0.165 C 
HETATM   25 CL2  UNL     1      30.194  -0.895  53.589  1.00  0.00    -0.125 Cl
ENDBRANCH  22  24
ENDBRANCH  20  21
ENDBRANCH  18  20
ENDBRANCH   5  18
BRANCH   1  26
HETATM   26  O1  UNL     1      18.377  -0.393  52.309  1.00  0.00    -0.339 OA
HETATM   27  H1  UNL     1      18.228  -1.393  52.261  1.00  0.00     0.220 HD
ENDBRANCH   1  26
TORSDOF 5
ENDMDL
MODEL 2
REMARK VINA RESULT:      -8.0      3.612      5.866
REMARK  5 active torsions:
REMARK  status: ('A' for Active; 'I' for Inactive)
REMARK    1  A    between atoms: O1_1  and  C1_2 
REMARK    2  A    between atoms: C5_6  and  N1_7 
REMARK    3  A    between atoms: N1_7  and  C6_8 
REMARK    4  A    between atoms: C6_8  and  C7_9 
REMARK    5  A    between atoms: C8_10  and  C9_12 
ROOT
HETATM    1  C1  UNL     1      23.841  -1.180  55.132  1.00  0.00     0.202 C 
HETATM    2  C2  UNL     1      22.962  -0.753  54.196  1.00  0.00     0.073 C 
HETATM    3  C3  UNL     1      23.530   0.132  53.163  1.00  0.00     0.104 C 
HETATM    4  C4  UNL     1      22.626   1.031  52.453  1.00  0.00    -0.007 C 
HETATM    5  C5  UNL     1      21.376   1.389  52.595  1.00  0.00     0.131 C 
HETATM    6  N2  UNL     1      20.441   0.780  53.461  1.00  0.00    -0.226 NA
HETATM    7  C10 UNL     1      20.486  -0.436  53.921  1.00  0.00     0.209 C 
HETATM    8  N3  UNL     1      21.631  -1.201  54.349  1.00  0.00    -0.350 N 
HETATM    9  C11 UNL     1      23.476   1.572  51.359  1.00  0.00     0.008 C 
HETATM   10  C12 UNL     1      24.728   1.825  51.097  1.00  0.00    -0.020 C 
HETATM   11  C13 UNL     1      25.830   1.564  52.068  1.00  0.00     0.020 C 
HETATM   12  C14 UNL     1      27.167   1.617  52.309  1.00  0.00    -0.002 C 
HETATM   13  C15 UNL     1      27.786   1.188  53.580  1.00  0.00     0.008 C 
HETATM   14  C16 UNL     1      26.880   0.696  54.639  1.00  0.00     0.027 C 
HETATM   15  C17 UNL     1      26.139  -0.606  54.299  1.00  0.00     0.178 C 
HETATM   16  O2  UNL     1      25.176  -0.889  55.247  1.00  0.00    -0.329 OA
HETATM   17  H11 UNL     1      21.581  -2.131  54.803  1.00  0.00     0.166 HD
ENDROOT
BRANCH   5  18
HETATM   18  N1  UNL     1      21.119   2.492  51.727  1.00  0.00    -0.371 N 
HETATM   19  H4  UNL     1      21.182   2.278  50.690  1.00  0.00     0.161 HD
BRANCH  18  20
HETATM   20  C6  UNL     1      20.790   3.835  52.217  1.00  0.00     0.150 C 
BRANCH  20  21
HETATM   21  C7  UNL     1      21.985   4.740  52.108  1.00  0.00     0.013 C 
HETATM   22  C8  UNL     1      22.781   5.296  51.204  1.00  0.00     0.023 C 
HETATM   23 CL1  UNL     1      24.168   6.366  51.423  1.00  0.00    -0.088 Cl
BRANCH  22  24
HETATM   24  C9  UNL     1      22.558   5.045  49.734  1.00  0.00     0.165 C 
HETATM   25 CL2  UNL     1      24.127   4.739  48.994  1.00  0.00    -0.125 Cl
ENDBRANCH  22  24
ENDBRANCH  20  21
ENDBRANCH  18  20
ENDBRANCH   5  18
BRANCH   1  26
HETATM   26  O1  UNL     1      23.257  -2.018  56.082  1.00  0.00    -0.339 OA
HETATM   27  H1  UNL     1      22.898  -2.934  55.848  1.00  0.00     0.220 HD
ENDBRANCH   1  26
TORSDOF 5
ENDMDL
MODEL 3
REMARK VINA RESULT:      -7.9      4.103      6.138
REMARK  5 active torsions:
REMARK  status: ('A' for Active; 'I' for Inactive)
REMARK    1  A    between atoms: O1_1  and  C1_2 
REMARK    2  A    between atoms: C5_6  and  N1_7 
REMARK    3  A    between atoms: N1_7  and  C6_8 
REMARK    4  A    between atoms: C6_8  and  C7_9 
REMARK    5  A    between atoms: C8_10  and  C9_12 
ROOT
HETATM    1  C1  UNL     1      24.813  -0.421  54.183  1.00  0.00     0.202 C 
HETATM    2  C2  UNL     1      25.432   0.712  53.778  1.00  0.00     0.073 C 
HETATM    3  C3  UNL     1      24.559   1.703  53.124  1.00  0.00     0.104 C 
HETATM    4  C4  UNL     1      25.171   2.672  52.222  1.00  0.00    -0.007 C 
HETATM    5  C5  UNL     1      26.356   2.821  51.689  1.00  0.00     0.131 C 
HETATM    6  N2  UNL     1      27.514   2.096  52.047  1.00  0.00    -0.226 NA
HETATM    7  C10 UNL     1      27.740   1.505  53.183  1.00  0.00     0.209 C 
HETATM    8  N3  UNL     1      26.822   0.777  54.024  1.00  0.00    -0.350 N 
HETATM    9  C11 UNL     1      24.065   3.629  51.950  1.00  0.00     0.008 C 
HETATM   10  C12 UNL     1      22.763   3.664  51.900  1.00  0.00    -0.020 C 
HETATM   11  C13 UNL     1      21.907   2.471  52.166  1.00  0.00     0.020 C 
HETATM   12  C14 UNL     1      20.643   1.978  52.254  1.00  0.00    -0.002 C 
HETATM   13  C15 UNL     1      20.336   0.570  52.581  1.00  0.00     0.008 C 
HETATM   14  C16 UNL     1      21.483  -0.336  52.802  1.00  0.00     0.027 C 
HETATM   15  C17 UNL     1      22.342  -0.002  54.030  1.00  0.00     0.178 C 
HETATM   16  O2  UNL     1      23.491  -0.766  54.054  1.00  0.00    -0.329 OA
HETATM   17  H11 UNL     1      27.095   0.243  54.869  1.00  0.00     0.166 HD
ENDROOT
BRANCH   5  18
HETATM   18  N1  UNL     1      26.281   3.838  50.691  1.00  0.00    -0.371 N 
HETATM   19  H4  UNL     1      25.917   4.776  51.026  1.00  0.00     0.161 HD
BRANCH  18  20
HETATM   20  C6  UNL     1      26.673   3.619  49.295  1.00  0.00     0.150 C 
BRANCH  20  21
HETATM   21  C7  UNL     1      27.455   4.795  48.780  1.00  0.00     0.013 C 
HETATM   22  C8  UNL     1      27.307   6.072  48.454  1.00  0.00     0.023 C 
HETATM   23 CL1  UNL     1      28.493   7.231  47.849  1.00  0.00    -0.088 Cl
BRANCH  22  24
HETATM   24  C9  UNL     1      25.961   6.740  48.582  1.00  0.00     0.165 C 
HETATM   25 CL2  UNL     1      25.799   7.317  50.238  1.00  0.00    -0.125 Cl
ENDBRANCH  22  24
ENDBRANCH  20  21
ENDBRANCH  18  20
ENDBRANCH   5  18
BRANCH   1  26
HETATM   26  O1  UNL     1      25.680  -1.323  54.799  1.00  0.00    -0.339 OA
HETATM   27  H1  UNL     1      26.097  -1.140  55.703  1.00  0.00     0.220 HD
ENDBRANCH   1  26
TORSDOF 5
ENDMDL
MODEL 4
REMARK VINA RESULT:      -7.8      4.954      7.783
REMARK  5 active torsions:
REMARK  status: ('A' for Active; 'I' for Inactive)
REMARK    1  A    between atoms: O1_1  and  C1_2 
REMARK    2  A    between atoms: C5_6  and  N1_7 
REMARK    3  A    between atoms: N1_7  and  C6_8 
REMARK    4  A    between atoms: C6_8  and  C7_9 
REMARK    5  A    between atoms: C8_10  and  C9_12 
ROOT
HETATM    1  C1  UNL     1      26.465   3.186  50.699  1.00  0.00     0.202 C 
HETATM    2  C2  UNL     1      25.119   3.074  50.597  1.00  0.00     0.073 C 
HETATM    3  C3  UNL     1      24.502   2.100  51.513  1.00  0.00     0.104 C 
HETATM    4  C4  UNL     1      23.206   1.536  51.149  1.00  0.00    -0.007 C 
HETATM    5  C5  UNL     1      22.454   1.559  50.079  1.00  0.00     0.131 C 
HETATM    6  N2  UNL     1      22.657   2.384  48.952  1.00  0.00    -0.226 NA
HETATM    7  C10 UNL     1      23.301   3.514  48.921  1.00  0.00     0.209 C 
HETATM    8  N3  UNL     1      24.506   3.889  49.620  1.00  0.00    -0.350 N 
HETATM    9  C11 UNL     1      22.794   0.808  52.379  1.00  0.00     0.008 C 
HETATM   10  C12 UNL     1      23.320   0.206  53.409  1.00  0.00    -0.020 C 
HETATM   11  C13 UNL     1      24.794   0.092  53.618  1.00  0.00     0.020 C 
HETATM   12  C14 UNL     1      25.795  -0.364  54.417  1.00  0.00    -0.002 C 
HETATM   13  C15 UNL     1      27.229  -0.185  54.111  1.00  0.00     0.008 C 
HETATM   14  C16 UNL     1      27.569   0.513  52.853  1.00  0.00     0.027 C 
HETATM   15  C17 UNL     1      27.143   1.988  52.799  1.00  0.00     0.178 C 
HETATM   16  O2  UNL     1      27.317   2.508  51.533  1.00  0.00    -0.329 OA
HETATM   17  H11 UNL     1      25.021   4.775  49.469  1.00  0.00     0.166 HD
ENDROOT
BRANCH   5  18
HETATM   18  N1  UNL     1      21.397   0.614  50.246  1.00  0.00    -0.371 N 
HETATM   19  H4  UNL     1      21.700  -0.402  50.283  1.00  0.00     0.161 HD
BRANCH  18  20
HETATM   20  C6  UNL     1      19.988   1.003  50.360  1.00  0.00     0.150 C 
BRANCH  20  21
HETATM   21  C7  UNL     1      19.301   0.180  51.413  1.00  0.00     0.013 C 
HETATM   22  C8  UNL     1      18.089  -0.151  51.838  1.00  0.00     0.023 C 
HETATM   23 CL1  UNL     1      17.605  -1.196  53.176  1.00  0.00    -0.088 Cl
BRANCH  22  24
HETATM   24  C9  UNL     1      16.864   0.391  51.146  1.00  0.00     0.165 C 
HETATM   25 CL2  UNL     1      16.691  -0.456  49.612  1.00  0.00    -0.125 Cl
ENDBRANCH  22  24
ENDBRANCH  20  21
ENDBRANCH  18  20
ENDBRANCH   5  18
BRANCH   1  26
HETATM   26  O1  UNL     1      27.000   4.122  49.816  1.00  0.00    -0.339 OA
HETATM   27  H1  UNL     1      26.513   4.415  48.977  1.00  0.00     0.220 HD
ENDBRANCH   1  26
TORSDOF 5
ENDMDL
MODEL 5
REMARK VINA RESULT:      -7.7      3.788      6.352
REMARK  5 active torsions:
REMARK  status: ('A' for Active; 'I' for Inactive)
REMARK    1  A    between atoms: O1_1  and  C1_2 
REMARK    2  A    between atoms: C5_6  and  N1_7 
REMARK    3  A    between atoms: N1_7  and  C6_8 
REMARK    4  A    between atoms: C6_8  and  C7_9 
REMARK    5  A    between atoms: C8_10  and  C9_12 
ROOT
HETATM    1  C1  UNL     1      22.984  -0.829  54.391  1.00  0.00     0.202 C 
HETATM    2  C2  UNL     1      22.465   0.005  53.460  1.00  0.00     0.073 C 
HETATM    3  C3  UNL     1      23.446   0.872  52.781  1.00  0.00     0.104 C 
HETATM    4  C4  UNL     1      22.968   2.112  52.178  1.00  0.00    -0.007 C 
HETATM    5  C5  UNL     1      21.844   2.780  52.201  1.00  0.00     0.131 C 
HETATM    6  N2  UNL     1      20.621   2.310  52.729  1.00  0.00    -0.226 NA
HETATM    7  C10 UNL     1      20.265   1.068  52.877  1.00  0.00     0.209 C 
HETATM    8  N3  UNL     1      21.066  -0.062  53.283  1.00  0.00    -0.350 N 
HETATM    9  C11 UNL     1      24.145   2.587  51.402  1.00  0.00     0.008 C 
HETATM   10  C12 UNL     1      25.447   2.515  51.414  1.00  0.00    -0.020 C 
HETATM   11  C13 UNL     1      26.209   1.766  52.456  1.00  0.00     0.020 C 
HETATM   12  C14 UNL     1      27.432   1.385  52.913  1.00  0.00    -0.002 C 
HETATM   13  C15 UNL     1      27.630   0.560  54.123  1.00  0.00     0.008 C 
HETATM   14  C16 UNL     1      26.420   0.154  54.869  1.00  0.00     0.027 C 
HETATM   15  C17 UNL     1      25.478  -0.789  54.105  1.00  0.00     0.178 C 
HETATM   16  O2  UNL     1      24.291  -0.961  54.787  1.00  0.00    -0.329 OA
HETATM   17  H11 UNL     1      20.691  -1.008  53.479  1.00  0.00     0.166 HD
ENDROOT
BRANCH   5  18
HETATM   18  N1  UNL     1      22.062   4.056  51.601  1.00  0.00    -0.371 N 
HETATM   19  H4  UNL     1      22.952   4.551  51.900  1.00  0.00     0.161 HD
BRANCH  18  20
HETATM   20  C6  UNL     1      21.133   4.657  50.640  1.00  0.00     0.150 C 
BRANCH  20  21
HETATM   21  C7  UNL     1      21.518   4.285  49.236  1.00  0.00     0.013 C 
HETATM   22  C8  UNL     1      21.324   3.339  48.327  1.00  0.00     0.023 C 
HETATM   23 CL1  UNL     1      21.959   3.198  46.686  1.00  0.00    -0.088 Cl
BRANCH  22  24
HETATM   24  C9  UNL     1      20.442   2.155  48.636  1.00  0.00     0.165 C 
HETATM   25 CL2  UNL     1      21.482   0.821  49.128  1.00  0.00    -0.125 Cl
ENDBRANCH  22  24
ENDBRANCH  20  21
ENDBRANCH  18  20
ENDBRANCH   5  18
BRANCH   1  26
HETATM   26  O1  UNL     1      22.018  -1.630  55.000  1.00  0.00    -0.339 OA
HETATM   27  H1  UNL     1      21.136  -1.847  54.553  1.00  0.00     0.220 HD
ENDBRANCH   1  26
TORSDOF 5
ENDMDL
MODEL 6
REMARK VINA RESULT:      -7.4      4.956      7.377
REMARK  5 active torsions:
REMARK  status: ('A' for Active; 'I' for Inactive)
REMARK    1  A    between atoms: O1_1  and  C1_2 
REMARK    2  A    between atoms: C5_6  and  N1_7 
REMARK    3  A    between atoms: N1_7  and  C6_8 
REMARK    4  A    between atoms: C6_8  and  C7_9 
REMARK    5  A    between atoms: C8_10  and  C9_12 
ROOT
HETATM    1  C1  UNL     1      24.697   3.802  51.618  1.00  0.00     0.202 C 
HETATM    2  C2  UNL     1      23.458   3.515  52.082  1.00  0.00     0.073 C 
HETATM    3  C3  UNL     1      23.307   2.171  52.668  1.00  0.00     0.104 C 
HETATM    4  C4  UNL     1      21.971   1.585  52.712  1.00  0.00    -0.007 C 
HETATM    5  C5  UNL     1      20.806   1.897  52.205  1.00  0.00     0.131 C 
HETATM    6  N2  UNL     1      20.487   3.118  51.572  1.00  0.00    -0.226 NA
HETATM    7  C10 UNL     1      21.084   4.261  51.743  1.00  0.00     0.209 C 
HETATM    8  N3  UNL     1      22.490   4.531  51.924  1.00  0.00    -0.350 N 
HETATM    9  C11 UNL     1      22.158   0.377  53.559  1.00  0.00     0.008 C 
HETATM   10  C12 UNL     1      23.083  -0.481  53.888  1.00  0.00    -0.020 C 
HETATM   11  C13 UNL     1      24.475  -0.418  53.356  1.00  0.00     0.020 C 
HETATM   12  C14 UNL     1      25.716  -0.974  53.355  1.00  0.00    -0.002 C 
HETATM   13  C15 UNL     1      26.844  -0.452  52.556  1.00  0.00     0.008 C 
HETATM   14  C16 UNL     1      26.580   0.728  51.706  1.00  0.00     0.027 C 
HETATM   15  C17 UNL     1      26.236   2.012  52.475  1.00  0.00     0.178 C 
HETATM   16  O2  UNL     1      25.815   3.007  51.616  1.00  0.00    -0.329 OA
HETATM   17  H11 UNL     1      22.908   5.478  51.952  1.00  0.00     0.166 HD
ENDROOT
BRANCH   5  18
HETATM   18  N1  UNL     1      19.916   0.799  52.404  1.00  0.00    -0.371 N 
HETATM   19  H4  UNL     1      19.754   0.524  53.415  1.00  0.00     0.161 HD
BRANCH  18  20
HETATM   20  C6  UNL     1      19.265   0.088  51.299  1.00  0.00     0.150 C 
BRANCH  20  21
HETATM   21  C7  UNL     1      17.856  -0.280  51.671  1.00  0.00     0.013 C 
HETATM   22  C8  UNL     1      17.177  -1.060  52.501  1.00  0.00     0.023 C 
HETATM   23 CL1  UNL     1      15.434  -1.265  52.690  1.00  0.00    -0.088 Cl
BRANCH  22  24
HETATM   24  C9  UNL     1      17.904  -1.951  53.477  1.00  0.00     0.165 C 
HETATM   25 CL2  UNL     1      17.218  -3.568  53.347  1.00  0.00    -0.125 Cl
ENDBRANCH  22  24
ENDBRANCH  20  21
ENDBRANCH  18  20
ENDBRANCH   5  18
BRANCH   1  26
HETATM   26  O1  UNL     1      24.790   5.085  51.079  1.00  0.00    -0.339 OA
HETATM   27  H1  UNL     1      25.388   5.797  51.478  1.00  0.00     0.220 HD
ENDBRANCH   1  26
TORSDOF 5
ENDMDL
MODEL 7
REMARK VINA RESULT:      -7.4      4.340      6.605
REMARK  5 active torsions:
REMARK  status: ('A' for Active; 'I' for Inactive)
REMARK    1  A    between atoms: O1_1  and  C1_2 
REMARK    2  A    between atoms: C5_6  and  N1_7 
REMARK    3  A    between atoms: N1_7  and  C6_8 
REMARK    4  A    between atoms: C6_8  and  C7_9 
REMARK    5  A    between atoms: C8_10  and  C9_12 
ROOT
HETATM    1  C1  UNL     1      25.552  -0.136  54.615  1.00  0.00     0.202 C 
HETATM    2  C2  UNL     1      25.761   0.980  53.877  1.00  0.00     0.073 C 
HETATM    3  C3  UNL     1      24.588   1.463  53.129  1.00  0.00     0.104 C 
HETATM    4  C4  UNL     1      24.816   2.294  51.951  1.00  0.00    -0.007 C 
HETATM    5  C5  UNL     1      25.864   2.635  51.247  1.00  0.00     0.131 C 
HETATM    6  N2  UNL     1      27.208   2.400  51.612  1.00  0.00    -0.226 NA
HETATM    7  C10 UNL     1      27.668   2.223  52.815  1.00  0.00     0.209 C 
HETATM    8  N3  UNL     1      27.070   1.509  53.917  1.00  0.00    -0.350 N 
HETATM    9  C11 UNL     1      23.452   2.779  51.608  1.00  0.00     0.008 C 
HETATM   10  C12 UNL     1      22.204   2.419  51.722  1.00  0.00    -0.020 C 
HETATM   11  C13 UNL     1      21.783   1.143  52.371  1.00  0.00     0.020 C 
HETATM   12  C14 UNL     1      20.745   0.345  52.738  1.00  0.00    -0.002 C 
HETATM   13  C15 UNL     1      20.915  -0.952  53.424  1.00  0.00     0.008 C 
HETATM   14  C16 UNL     1      22.299  -1.393  53.701  1.00  0.00     0.027 C 
HETATM   15  C17 UNL     1      23.070  -0.510  54.693  1.00  0.00     0.178 C 
HETATM   16  O2  UNL     1      24.402  -0.871  54.745  1.00  0.00    -0.329 OA
HETATM   17  H11 UNL     1      27.541   1.322  54.821  1.00  0.00     0.166 HD
ENDROOT
BRANCH   5  18
HETATM   18  N1  UNL     1      25.420   3.283  50.056  1.00  0.00    -0.371 N 
HETATM   19  H4  UNL     1      24.602   2.820  49.566  1.00  0.00     0.161 HD
BRANCH  18  20
HETATM   20  C6  UNL     1      26.040   4.504  49.532  1.00  0.00     0.150 C 
BRANCH  20  21
HETATM   21  C7  UNL     1      25.382   5.721  50.121  1.00  0.00     0.013 C 
HETATM   22  C8  UNL     1      24.272   6.441  50.028  1.00  0.00     0.023 C 
HETATM   23 CL1  UNL     1      23.787   7.890  50.912  1.00  0.00    -0.088 Cl
BRANCH  22  24
HETATM   24  C9  UNL     1      23.190   6.054  49.052  1.00  0.00     0.165 C 
HETATM   25 CL2  UNL     1      21.762   5.603  49.978  1.00  0.00    -0.125 Cl
ENDBRANCH  22  24
ENDBRANCH  20  21
ENDBRANCH  18  20
ENDBRANCH   5  18
BRANCH   1  26
HETATM   26  O1  UNL     1      26.690  -0.549  55.308  1.00  0.00    -0.339 OA
HETATM   27  H1  UNL     1      27.613  -0.196  55.091  1.00  0.00     0.220 HD
ENDBRANCH   1  26
TORSDOF 5
ENDMDL
MODEL 8
REMARK VINA RESULT:      -7.4      1.837      3.032
REMARK  5 active torsions:
REMARK  status: ('A' for Active; 'I' for Inactive)
REMARK    1  A    between atoms: O1_1  and  C1_2 
REMARK    2  A    between atoms: C5_6  and  N1_7 
REMARK    3  A    between atoms: N1_7  and  C6_8 
REMARK    4  A    between atoms: C6_8  and  C7_9 
REMARK    5  A    between atoms: C8_10  and  C9_12 
ROOT
HETATM    1  C1  UNL     1      18.458  -1.331  53.270  1.00  0.00     0.202 C 
HETATM    2  C2  UNL     1      19.643  -0.707  53.463  1.00  0.00     0.073 C 
HETATM    3  C3  UNL     1      19.927   0.399  52.531  1.00  0.00     0.104 C 
HETATM    4  C4  UNL     1      21.319   0.775  52.310  1.00  0.00    -0.007 C 
HETATM    5  C5  UNL     1      22.479   0.264  52.635  1.00  0.00     0.131 C 
HETATM    6  N2  UNL     1      22.681  -0.801  53.540  1.00  0.00    -0.226 NA
HETATM    7  C10 UNL     1      21.884  -1.167  54.500  1.00  0.00     0.209 C 
HETATM    8  N3  UNL     1      20.442  -1.212  54.513  1.00  0.00    -0.350 N 
HETATM    9  C11 UNL     1      21.211   2.037  51.531  1.00  0.00     0.008 C 
HETATM   10  C12 UNL     1      20.403   2.633  50.699  1.00  0.00    -0.020 C 
HETATM   11  C13 UNL     1      19.115   2.031  50.246  1.00  0.00     0.020 C 
HETATM   12  C14 UNL     1      17.998   2.181  49.485  1.00  0.00    -0.002 C 
HETATM   13  C15 UNL     1      16.931   1.163  49.392  1.00  0.00     0.008 C 
HETATM   14  C16 UNL     1      17.120  -0.085  50.162  1.00  0.00     0.027 C 
HETATM   15  C17 UNL     1      17.127   0.094  51.687  1.00  0.00     0.178 C 
HETATM   16  O2  UNL     1      17.501  -1.074  52.321  1.00  0.00    -0.329 OA
HETATM   17  H11 UNL     1      19.873  -1.613  55.280  1.00  0.00     0.166 HD
ENDROOT
BRANCH   5  18
HETATM   18  N1  UNL     1      23.499   0.965  51.925  1.00  0.00    -0.371 N 
HETATM   19  H4  UNL     1      23.294   1.147  50.900  1.00  0.00     0.161 HD
BRANCH  18  20
HETATM   20  C6  UNL     1      24.748   1.409  52.550  1.00  0.00     0.150 C 
BRANCH  20  21
HETATM   21  C7  UNL     1      25.774   0.312  52.507  1.00  0.00     0.013 C 
HETATM   22  C8  UNL     1      26.687  -0.280  53.266  1.00  0.00     0.023 C 
HETATM   23 CL1  UNL     1      27.783  -1.611  52.888  1.00  0.00    -0.088 Cl
BRANCH  22  24
HETATM   24  C9  UNL     1      26.907   0.174  54.687  1.00  0.00     0.165 C 
HETATM   25 CL2  UNL     1      28.644   0.274  54.960  1.00  0.00    -0.125 Cl
ENDBRANCH  22  24
ENDBRANCH  20  21
ENDBRANCH  18  20
ENDBRANCH   5  18
BRANCH   1  26
HETATM   26  O1  UNL     1      18.235  -2.364  54.179  1.00  0.00    -0.339 OA
HETATM   27  H1  UNL     1      17.317  -2.763  54.331  1.00  0.00     0.220 HD
ENDBRANCH   1  26
TORSDOF 5
ENDMDL
MODEL 9
REMARK VINA RESULT:      -7.4      4.613      6.714
REMARK  5 active torsions:
REMARK  status: ('A' for Active; 'I' for Inactive)
REMARK    1  A    between atoms: O1_1  and  C1_2 
REMARK    2  A    between atoms: C5_6  and  N1_7 
REMARK    3  A    between atoms: N1_7  and  C6_8 
REMARK    4  A    between atoms: C6_8  and  C7_9 
REMARK    5  A    between atoms: C8_10  and  C9_12 
ROOT
HETATM    1  C1  UNL     1      25.338   0.684  53.703  1.00  0.00     0.202 C 
HETATM    2  C2  UNL     1      24.198  -0.047  53.701  1.00  0.00     0.073 C 
HETATM    3  C3  UNL     1      23.262   0.259  52.605  1.00  0.00     0.104 C 
HETATM    4  C4  UNL     1      21.852  -0.065  52.792  1.00  0.00    -0.007 C 
HETATM    5  C5  UNL     1      21.118  -0.455  53.802  1.00  0.00     0.131 C 
HETATM    6  N2  UNL     1      21.607  -0.881  55.056  1.00  0.00    -0.226 NA
HETATM    7  C10 UNL     1      22.787  -1.369  55.304  1.00  0.00     0.209 C 
HETATM    8  N3  UNL     1      24.062  -0.981  54.752  1.00  0.00    -0.350 N 
HETATM    9  C11 UNL     1      21.272   0.147  51.439  1.00  0.00     0.008 C 
HETATM   10  C12 UNL     1      21.475   0.856  50.363  1.00  0.00    -0.020 C 
HETATM   11  C13 UNL     1      22.595   1.833  50.234  1.00  0.00     0.020 C 
HETATM   12  C14 UNL     1      23.226   2.738  49.439  1.00  0.00    -0.002 C 
HETATM   13  C15 UNL     1      24.415   3.506  49.861  1.00  0.00     0.008 C 
HETATM   14  C16 UNL     1      24.917   3.275  51.232  1.00  0.00     0.027 C 
HETATM   15  C17 UNL     1      25.460   1.861  51.489  1.00  0.00     0.178 C 
HETATM   16  O2  UNL     1      25.723   1.668  52.830  1.00  0.00    -0.329 OA
HETATM   17  H11 UNL     1      24.977  -1.345  55.073  1.00  0.00     0.166 HD
ENDROOT
BRANCH   5  18
HETATM   18  N1  UNL     1      19.744  -0.378  53.421  1.00  0.00    -0.371 N 
HETATM   19  H4  UNL     1      19.423   0.571  53.074  1.00  0.00     0.161 HD
BRANCH  18  20
HETATM   20  C6  UNL     1      18.828  -1.520  53.498  1.00  0.00     0.150 C 
BRANCH  20  21
HETATM   21  C7  UNL     1      17.442  -1.109  53.088  1.00  0.00     0.013 C 
HETATM   22  C8  UNL     1      16.782  -0.572  52.071  1.00  0.00     0.023 C 
HETATM   23 CL1  UNL     1      15.064  -0.204  51.904  1.00  0.00    -0.088 Cl
BRANCH  22  24
HETATM   24  C9  UNL     1      17.512  -0.176  50.812  1.00  0.00     0.165 C 
HETATM   25 CL2  UNL     1      17.912   1.535  50.934  1.00  0.00    -0.125 Cl
ENDBRANCH  22  24
ENDBRANCH  20  21
ENDBRANCH  18  20
ENDBRANCH   5  18
BRANCH   1  26
HETATM   26  O1  UNL     1      26.191   0.354  54.756  1.00  0.00    -0.339 OA
HETATM   27  H1  UNL     1      27.065  -0.135  54.611  1.00  0.00     0.220 HD
ENDBRANCH   1  26
TORSDOF 5
ENDMDL
