MODEL 1
REMARK VINA RESULT:      -9.1      0.000      0.000
REMARK  4 active torsions:
REMARK  status: ('A' for Active; 'I' for Inactive)
REMARK    1  A    between atoms: O1_1  and  C1_2 
REMARK    2  A    between atoms: C4_5  and  C5_6 
REMARK    3  A    between atoms: C7_8  and  N1_9 
REMARK    4  A    between atoms: N1_9  and  C8_10 
ROOT
HETATM    1  C5  UNL     1      26.002  -0.387  53.964  1.00  0.00     0.072 C 
HETATM    2  C6  UNL     1      26.766   0.655  53.927  1.00  0.00     0.074 C 
HETATM    3  C7  UNL     1      26.755   2.092  53.841  1.00  0.00     0.145 C 
HETATM    4  N2  UNL     1      27.819   2.756  53.851  1.00  0.00    -0.223 NA
HETATM    5  C14 UNL     1      29.153   2.286  53.974  1.00  0.00     0.235 C 
HETATM    6  N3  UNL     1      29.548   1.026  54.146  1.00  0.00    -0.240 NA
HETATM    7  P1  UNL     1      28.508  -0.182  54.279  1.00  0.00     0.099 P 
HETATM    8  N4  UNL     1      28.239  -1.367  53.293  1.00  0.00    -0.092 NA
HETATM    9  N5  UNL     1      26.722  -1.596  53.632  1.00  0.00    -0.297 N 
HETATM   10  H10 UNL     1      28.265  -0.645  55.633  1.00  0.00     0.100 HD
HETATM   11  H11 UNL     1      26.462  -2.633  53.556  1.00  0.00     0.183 HD
ENDROOT
BRANCH   3  12
HETATM   12  N1  UNL     1      25.459   2.641  53.764  1.00  0.00    -0.340 N 
HETATM   13  H4  UNL     1      24.947   2.848  54.612  1.00  0.00     0.167 HD
BRANCH  12  14
HETATM   14  C8  UNL     1      24.882   2.890  52.484  1.00  0.00     0.035 A 
HETATM   15  C9  UNL     1      25.689   2.796  51.370  1.00  0.00     0.029 A 
HETATM   16  C10 UNL     1      25.289   3.002  50.070  1.00  0.00     0.004 A 
HETATM   17  C11 UNL     1      23.958   3.332  49.844  1.00  0.00     0.024 A 
HETATM   18  C12 UNL     1      23.110   3.437  50.926  1.00  0.00     0.036 A 
HETATM   19 CL1  UNL     1      21.416   3.854  50.686  1.00  0.00    -0.084 Cl
HETATM   20  C13 UNL     1      23.596   3.215  52.189  1.00  0.00     0.053 A 
ENDBRANCH  12  14
ENDBRANCH   3  12
BRANCH   1  21
HETATM   21  C4  UNL     1      24.586  -0.621  53.953  1.00  0.00    -0.007 A 
HETATM   22  C3  UNL     1      23.564  -0.403  53.070  1.00  0.00     0.016 A 
HETATM   23  C2  UNL     1      22.242  -0.688  53.305  1.00  0.00     0.037 A 
HETATM   24  C1  UNL     1      21.846  -1.239  54.503  1.00  0.00     0.065 A 
HETATM   25  C16 UNL     1      22.804  -1.492  55.448  1.00  0.00     0.037 A 
HETATM   26  C15 UNL     1      24.132  -1.184  55.160  1.00  0.00     0.016 A 
BRANCH  24  27
HETATM   27  O1  UNL     1      20.517  -1.529  54.747  1.00  0.00    -0.361 OA
HETATM   28  H1  UNL     1      20.244  -2.433  55.066  1.00  0.00     0.217 HD
ENDBRANCH  24  27
ENDBRANCH   1  21
TORSDOF 4
ENDMDL
MODEL 2
REMARK VINA RESULT:      -8.4      3.413      5.088
REMARK  4 active torsions:
REMARK  status: ('A' for Active; 'I' for Inactive)
REMARK    1  A    between atoms: O1_1  and  C1_2 
REMARK    2  A    between atoms: C4_5  and  C5_6 
REMARK    3  A    between atoms: C7_8  and  N1_9 
REMARK    4  A    between atoms: N1_9  and  C8_10 
ROOT
HETATM    1  C5  UNL     1      24.378  -0.731  54.193  1.00  0.00     0.072 C 
HETATM    2  C6  UNL     1      23.378  -0.273  53.515  1.00  0.00     0.074 C 
HETATM    3  C7  UNL     1      23.019   0.643  52.463  1.00  0.00     0.145 C 
HETATM    4  N2  UNL     1      21.831   0.770  52.084  1.00  0.00    -0.223 NA
HETATM    5  C14 UNL     1      20.678   0.077  52.540  1.00  0.00     0.235 C 
HETATM    6  N3  UNL     1      20.633  -0.893  53.451  1.00  0.00    -0.240 NA
HETATM    7  P1  UNL     1      21.950  -1.457  54.162  1.00  0.00     0.099 P 
HETATM    8  N4  UNL     1      22.398  -1.329  55.655  1.00  0.00    -0.092 NA
HETATM    9  N5  UNL     1      23.952  -1.361  55.424  1.00  0.00    -0.297 N 
HETATM   10  H10 UNL     1      22.448  -2.715  53.638  1.00  0.00     0.100 HD
HETATM   11  H11 UNL     1      24.453  -1.850  56.234  1.00  0.00     0.183 HD
ENDROOT
BRANCH   3  12
HETATM   12  N1  UNL     1      24.121   1.337  51.923  1.00  0.00    -0.340 N 
HETATM   13  H4  UNL     1      24.989   0.849  51.745  1.00  0.00     0.167 HD
BRANCH  12  14
HETATM   14  C8  UNL     1      23.996   2.730  51.639  1.00  0.00     0.035 A 
HETATM   15  C9  UNL     1      23.728   3.590  52.682  1.00  0.00     0.029 A 
HETATM   16  C10 UNL     1      23.581   4.955  52.578  1.00  0.00     0.004 A 
HETATM   17  C11 UNL     1      23.714   5.529  51.319  1.00  0.00     0.024 A 
HETATM   18  C12 UNL     1      23.984   4.710  50.244  1.00  0.00     0.036 A 
HETATM   19 CL1  UNL     1      24.159   5.394  48.631  1.00  0.00    -0.084 Cl
HETATM   20  C13 UNL     1      24.113   3.358  50.440  1.00  0.00     0.053 A 
ENDBRANCH  12  14
ENDBRANCH   3  12
BRANCH   1  21
HETATM   21  C4  UNL     1      25.797  -0.519  54.197  1.00  0.00    -0.007 A 
HETATM   22  C3  UNL     1      26.678   0.200  54.957  1.00  0.00     0.016 A 
HETATM   23  C2  UNL     1      28.032   0.278  54.739  1.00  0.00     0.037 A 
HETATM   24  C1  UNL     1      28.612  -0.400  53.691  1.00  0.00     0.065 A 
HETATM   25  C16 UNL     1      27.805  -1.148  52.876  1.00  0.00     0.037 A 
HETATM   26  C15 UNL     1      26.438  -1.193  53.141  1.00  0.00     0.016 A 
BRANCH  24  27
HETATM   27  O1  UNL     1      29.973  -0.328  53.465  1.00  0.00    -0.361 OA
HETATM   28  H1  UNL     1      30.581  -1.049  53.785  1.00  0.00     0.217 HD
ENDBRANCH  24  27
ENDBRANCH   1  21
TORSDOF 4
ENDMDL
MODEL 3
REMARK VINA RESULT:      -8.3      2.367      2.785
REMARK  4 active torsions:
REMARK  status: ('A' for Active; 'I' for Inactive)
REMARK    1  A    between atoms: O1_1  and  C1_2 
REMARK    2  A    between atoms: C4_5  and  C5_6 
REMARK    3  A    between atoms: C7_8  and  N1_9 
REMARK    4  A    between atoms: N1_9  and  C8_10 
ROOT
HETATM    1  C5  UNL     1      24.515   0.599  53.194  1.00  0.00     0.072 C 
HETATM    2  C6  UNL     1      25.658   1.153  52.958  1.00  0.00     0.074 C 
HETATM    3  C7  UNL     1      26.363   1.993  52.023  1.00  0.00     0.145 C 
HETATM    4  N2  UNL     1      27.560   2.317  52.209  1.00  0.00    -0.223 NA
HETATM    5  C14 UNL     1      28.406   1.987  53.301  1.00  0.00     0.235 C 
HETATM    6  N3  UNL     1      28.080   1.289  54.387  1.00  0.00    -0.240 NA
HETATM    7  P1  UNL     1      26.601   0.730  54.629  1.00  0.00     0.099 P 
HETATM    8  N4  UNL     1      26.095  -0.750  54.645  1.00  0.00    -0.092 NA
HETATM    9  N5  UNL     1      24.629  -0.488  54.142  1.00  0.00    -0.297 N 
HETATM   10  H10 UNL     1      25.787   1.505  55.547  1.00  0.00     0.100 HD
HETATM   11  H11 UNL     1      23.939  -1.175  54.589  1.00  0.00     0.183 HD
ENDROOT
BRANCH   3  12
HETATM   12  N1  UNL     1      25.573   2.403  50.930  1.00  0.00    -0.340 N 
HETATM   13  H4  UNL     1      24.874   1.779  50.549  1.00  0.00     0.167 HD
BRANCH  12  14
HETATM   14  C8  UNL     1      25.778   3.699  50.370  1.00  0.00     0.035 A 
HETATM   15  C9  UNL     1      26.730   3.845  49.384  1.00  0.00     0.029 A 
HETATM   16  C10 UNL     1      27.046   5.020  48.743  1.00  0.00     0.004 A 
HETATM   17  C11 UNL     1      26.351   6.168  49.108  1.00  0.00     0.024 A 
HETATM   18  C12 UNL     1      25.388   6.073  50.089  1.00  0.00     0.036 A 
HETATM   19 CL1  UNL     1      24.485   7.501  50.584  1.00  0.00    -0.084 Cl
HETATM   20  C13 UNL     1      25.139   4.859  50.676  1.00  0.00     0.053 A 
ENDBRANCH  12  14
ENDBRANCH   3  12
BRANCH   1  21
HETATM   21  C4  UNL     1      23.233   0.578  52.552  1.00  0.00    -0.007 A 
HETATM   22  C3  UNL     1      22.704   1.102  51.403  1.00  0.00     0.016 A 
HETATM   23  C2  UNL     1      21.397   0.973  51.003  1.00  0.00     0.037 A 
HETATM   24  C1  UNL     1      20.495   0.272  51.773  1.00  0.00     0.065 A 
HETATM   25  C16 UNL     1      20.937  -0.288  52.942  1.00  0.00     0.037 A 
HETATM   26  C15 UNL     1      22.274  -0.127  53.301  1.00  0.00     0.016 A 
BRANCH  24  27
HETATM   27  O1  UNL     1      19.178   0.138  51.378  1.00  0.00    -0.361 OA
HETATM   28  H1  UNL     1      18.475  -0.126  52.034  1.00  0.00     0.217 HD
ENDBRANCH  24  27
ENDBRANCH   1  21
TORSDOF 4
ENDMDL
MODEL 4
REMARK VINA RESULT:      -8.3      3.489      4.978
REMARK  4 active torsions:
REMARK  status: ('A' for Active; 'I' for Inactive)
REMARK    1  A    between atoms: O1_1  and  C1_2 
REMARK    2  A    between atoms: C4_5  and  C5_6 
REMARK    3  A    between atoms: C7_8  and  N1_9 
REMARK    4  A    between atoms: N1_9  and  C8_10 
ROOT
HETATM    1  C5  UNL     1      23.905   0.061  53.461  1.00  0.00     0.072 C 
HETATM    2  C6  UNL     1      23.079   0.979  53.081  1.00  0.00     0.074 C 
HETATM    3  C7  UNL     1      22.984   2.372  52.725  1.00  0.00     0.145 C 
HETATM    4  N2  UNL     1      21.894   2.885  52.376  1.00  0.00    -0.223 NA
HETATM    5  C14 UNL     1      20.628   2.258  52.233  1.00  0.00     0.235 C 
HETATM    6  N3  UNL     1      20.346   0.967  52.404  1.00  0.00    -0.240 NA
HETATM    7  P1  UNL     1      21.469  -0.107  52.780  1.00  0.00     0.099 P 
HETATM    8  N4  UNL     1      21.658  -0.915  54.106  1.00  0.00    -0.092 NA
HETATM    9  N5  UNL     1      23.221  -1.069  54.051  1.00  0.00    -0.297 N 
HETATM   10  H10 UNL     1      21.949  -0.917  51.676  1.00  0.00     0.100 HD
HETATM   11  H11 UNL     1      23.533  -2.003  54.473  1.00  0.00     0.183 HD
ENDROOT
BRANCH   3  12
HETATM   12  N1  UNL     1      24.215   3.055  52.797  1.00  0.00    -0.340 N 
HETATM   13  H4  UNL     1      24.615   3.281  53.697  1.00  0.00     0.167 HD
BRANCH  12  14
HETATM   14  C8  UNL     1      24.877   3.427  51.589  1.00  0.00     0.035 A 
HETATM   15  C9  UNL     1      25.936   2.658  51.158  1.00  0.00     0.029 A 
HETATM   16  C10 UNL     1      26.675   2.879  50.018  1.00  0.00     0.004 A 
HETATM   17  C11 UNL     1      26.335   3.967  49.223  1.00  0.00     0.024 A 
HETATM   18  C12 UNL     1      25.282   4.765  49.611  1.00  0.00     0.036 A 
HETATM   19 CL1  UNL     1      24.817   6.155  48.634  1.00  0.00    -0.084 Cl
HETATM   20  C13 UNL     1      24.600   4.471  50.765  1.00  0.00     0.053 A 
ENDBRANCH  12  14
ENDBRANCH   3  12
BRANCH   1  21
HETATM   21  C4  UNL     1      25.314  -0.005  53.725  1.00  0.00    -0.007 A 
HETATM   22  C3  UNL     1      26.155   0.486  54.686  1.00  0.00     0.016 A 
HETATM   23  C2  UNL     1      27.517   0.314  54.708  1.00  0.00     0.037 A 
HETATM   24  C1  UNL     1      28.149  -0.400  53.715  1.00  0.00     0.065 A 
HETATM   25  C16 UNL     1      27.384  -0.929  52.710  1.00  0.00     0.037 A 
HETATM   26  C15 UNL     1      26.006  -0.726  52.735  1.00  0.00     0.016 A 
BRANCH  24  27
HETATM   27  O1  UNL     1      29.519  -0.577  53.729  1.00  0.00    -0.361 OA
HETATM   28  H1  UNL     1      30.132   0.173  53.493  1.00  0.00     0.217 HD
ENDBRANCH  24  27
ENDBRANCH   1  21
TORSDOF 4
ENDMDL
MODEL 5
REMARK VINA RESULT:      -8.2      4.325      6.942
REMARK  4 active torsions:
REMARK  status: ('A' for Active; 'I' for Inactive)
REMARK    1  A    between atoms: O1_1  and  C1_2 
REMARK    2  A    between atoms: C4_5  and  C5_6 
REMARK    3  A    between atoms: C7_8  and  N1_9 
REMARK    4  A    between atoms: N1_9  and  C8_10 
ROOT
HETATM    1  C5  UNL     1      23.315   2.573  50.046  1.00  0.00     0.072 C 
HETATM    2  C6  UNL     1      22.814   1.983  51.081  1.00  0.00     0.074 C 
HETATM    3  C7  UNL     1      23.042   1.708  52.476  1.00  0.00     0.145 C 
HETATM    4  N2  UNL     1      22.217   1.053  53.157  1.00  0.00    -0.223 NA
HETATM    5  C14 UNL     1      20.968   0.512  52.752  1.00  0.00     0.235 C 
HETATM    6  N3  UNL     1      20.393   0.629  51.556  1.00  0.00    -0.240 NA
HETATM    7  P1  UNL     1      21.057   1.469  50.369  1.00  0.00     0.099 P 
HETATM    8  N4  UNL     1      21.653   0.963  49.014  1.00  0.00    -0.092 NA
HETATM    9  N5  UNL     1      22.732   2.088  48.814  1.00  0.00    -0.297 N 
HETATM   10  H10 UNL     1      20.503   2.795  50.162  1.00  0.00     0.100 HD
HETATM   11  H11 UNL     1      22.867   2.314  47.776  1.00  0.00     0.183 HD
ENDROOT
BRANCH   3  12
HETATM   12  N1  UNL     1      24.245   2.255  52.968  1.00  0.00    -0.340 N 
HETATM   13  H4  UNL     1      24.261   3.202  53.324  1.00  0.00     0.167 HD
BRANCH  12  14
HETATM   14  C8  UNL     1      25.431   1.463  52.947  1.00  0.00     0.035 A 
HETATM   15  C9  UNL     1      26.630   2.068  53.257  1.00  0.00     0.029 A 
HETATM   16  C10 UNL     1      27.857   1.447  53.286  1.00  0.00     0.004 A 
HETATM   17  C11 UNL     1      27.908   0.092  52.979  1.00  0.00     0.024 A 
HETATM   18  C12 UNL     1      26.734  -0.559  52.664  1.00  0.00     0.036 A 
HETATM   19 CL1  UNL     1      26.752  -2.274  52.268  1.00  0.00    -0.084 Cl
HETATM   20  C13 UNL     1      25.555   0.141  52.659  1.00  0.00     0.053 A 
ENDBRANCH  12  14
ENDBRANCH   3  12
BRANCH   1  21
HETATM   21  C4  UNL     1      24.490   3.352  49.779  1.00  0.00    -0.007 A 
HETATM   22  C3  UNL     1      25.830   3.099  49.669  1.00  0.00     0.016 A 
HETATM   23  C2  UNL     1      26.798   4.044  49.436  1.00  0.00     0.037 A 
HETATM   24  C1  UNL     1      26.460   5.371  49.288  1.00  0.00     0.065 A 
HETATM   25  C16 UNL     1      25.138   5.717  49.382  1.00  0.00     0.037 A 
HETATM   26  C15 UNL     1      24.196   4.719  49.620  1.00  0.00     0.016 A 
BRANCH  24  27
HETATM   27  O1  UNL     1      27.427   6.329  49.053  1.00  0.00    -0.361 OA
HETATM   28  H1  UNL     1      28.334   6.068  48.731  1.00  0.00     0.217 HD
ENDBRANCH  24  27
ENDBRANCH   1  21
TORSDOF 4
ENDMDL
MODEL 6
REMARK VINA RESULT:      -8.2      3.861      6.301
REMARK  4 active torsions:
REMARK  status: ('A' for Active; 'I' for Inactive)
REMARK    1  A    between atoms: O1_1  and  C1_2 
REMARK    2  A    between atoms: C4_5  and  C5_6 
REMARK    3  A    between atoms: C7_8  and  N1_9 
REMARK    4  A    between atoms: N1_9  and  C8_10 
ROOT
HETATM    1  C5  UNL     1      24.217   3.113  51.789  1.00  0.00     0.072 C 
HETATM    2  C6  UNL     1      23.011   3.126  51.327  1.00  0.00     0.074 C 
HETATM    3  C7  UNL     1      21.922   2.277  50.916  1.00  0.00     0.145 C 
HETATM    4  N2  UNL     1      20.836   2.756  50.512  1.00  0.00    -0.223 NA
HETATM    5  C14 UNL     1      20.454   4.120  50.409  1.00  0.00     0.235 C 
HETATM    6  N3  UNL     1      21.172   5.184  50.766  1.00  0.00    -0.240 NA
HETATM    7  P1  UNL     1      22.623   5.050  51.425  1.00  0.00     0.099 P 
HETATM    8  N4  UNL     1      24.016   5.452  50.836  1.00  0.00    -0.092 NA
HETATM    9  N5  UNL     1      24.889   4.377  51.580  1.00  0.00    -0.297 N 
HETATM   10  H10 UNL     1      22.668   5.214  52.866  1.00  0.00     0.100 HD
HETATM   11  H11 UNL     1      25.861   4.762  51.811  1.00  0.00     0.183 HD
ENDROOT
BRANCH   3  12
HETATM   12  N1  UNL     1      22.207   0.902  51.034  1.00  0.00    -0.340 N 
HETATM   13  H4  UNL     1      22.645   0.409  50.266  1.00  0.00     0.167 HD
BRANCH  12  14
HETATM   14  C8  UNL     1      21.864   0.220  52.239  1.00  0.00     0.035 A 
HETATM   15  C9  UNL     1      20.534  -0.042  52.490  1.00  0.00     0.029 A 
HETATM   16  C10 UNL     1      20.040  -0.689  53.598  1.00  0.00     0.004 A 
HETATM   17  C11 UNL     1      20.949  -1.125  54.556  1.00  0.00     0.024 A 
HETATM   18  C12 UNL     1      22.291  -0.887  54.350  1.00  0.00     0.036 A 
HETATM   19 CL1  UNL     1      23.477  -1.420  55.538  1.00  0.00    -0.084 Cl
HETATM   20  C13 UNL     1      22.695  -0.232  53.215  1.00  0.00     0.053 A 
ENDBRANCH  12  14
ENDBRANCH   3  12
BRANCH   1  21
HETATM   21  C4  UNL     1      25.154   2.100  52.179  1.00  0.00    -0.007 A 
HETATM   22  C3  UNL     1      25.824   1.088  51.546  1.00  0.00     0.016 A 
HETATM   23  C2  UNL     1      26.669   0.195  52.156  1.00  0.00     0.037 A 
HETATM   24  C1  UNL     1      26.907   0.269  53.510  1.00  0.00     0.065 A 
HETATM   25  C16 UNL     1      26.279   1.253  54.226  1.00  0.00     0.037 A 
HETATM   26  C15 UNL     1      25.431   2.134  53.558  1.00  0.00     0.016 A 
BRANCH  24  27
HETATM   27  O1  UNL     1      27.756  -0.625  54.132  1.00  0.00    -0.361 OA
HETATM   28  H1  UNL     1      27.908  -1.533  53.749  1.00  0.00     0.217 HD
ENDBRANCH  24  27
ENDBRANCH   1  21
TORSDOF 4
ENDMDL
MODEL 7
REMARK VINA RESULT:      -8.1      3.616      5.868
REMARK  4 active torsions:
REMARK  status: ('A' for Active; 'I' for Inactive)
REMARK    1  A    between atoms: O1_1  and  C1_2 
REMARK    2  A    between atoms: C4_5  and  C5_6 
REMARK    3  A    between atoms: C7_8  and  N1_9 
REMARK    4  A    between atoms: N1_9  and  C8_10 
ROOT
HETATM    1  C5  UNL     1      25.824   2.711  51.260  1.00  0.00     0.072 C 
HETATM    2  C6  UNL     1      24.612   2.926  50.865  1.00  0.00     0.074 C 
HETATM    3  C7  UNL     1      23.305   2.327  50.770  1.00  0.00     0.145 C 
HETATM    4  N2  UNL     1      22.333   2.954  50.287  1.00  0.00    -0.223 NA
HETATM    5  C14 UNL     1      22.294   4.288  49.800  1.00  0.00     0.235 C 
HETATM    6  N3  UNL     1      23.292   5.170  49.795  1.00  0.00    -0.240 NA
HETATM    7  P1  UNL     1      24.731   4.832  50.403  1.00  0.00     0.099 P 
HETATM    8  N4  UNL     1      26.100   4.659  49.664  1.00  0.00    -0.092 NA
HETATM    9  N5  UNL     1      26.759   3.635  50.656  1.00  0.00    -0.297 N 
HETATM   10  H10 UNL     1      24.988   5.367  51.727  1.00  0.00     0.100 HD
HETATM   11  H11 UNL     1      27.817   3.788  50.722  1.00  0.00     0.183 HD
ENDROOT
BRANCH   3  12
HETATM   12  N1  UNL     1      23.251   1.014  51.280  1.00  0.00    -0.340 N 
HETATM   13  H4  UNL     1      24.002   0.365  51.085  1.00  0.00     0.167 HD
BRANCH  12  14
HETATM   14  C8  UNL     1      22.126   0.616  52.061  1.00  0.00     0.035 A 
HETATM   15  C9  UNL     1      22.279   0.512  53.427  1.00  0.00     0.029 A 
HETATM   16  C10 UNL     1      21.296   0.145  54.318  1.00  0.00     0.004 A 
HETATM   17  C11 UNL     1      20.035  -0.148  53.812  1.00  0.00     0.024 A 
HETATM   18  C12 UNL     1      19.832  -0.057  52.452  1.00  0.00     0.036 A 
HETATM   19 CL1  UNL     1      18.251  -0.420  51.767  1.00  0.00    -0.084 Cl
HETATM   20  C13 UNL     1      20.870   0.316  51.637  1.00  0.00     0.053 A 
ENDBRANCH  12  14
ENDBRANCH   3  12
BRANCH   1  21
HETATM   21  C4  UNL     1      26.518   1.628  51.894  1.00  0.00    -0.007 A 
HETATM   22  C3  UNL     1      26.403   0.265  51.909  1.00  0.00     0.016 A 
HETATM   23  C2  UNL     1      27.188  -0.588  52.645  1.00  0.00     0.037 A 
HETATM   24  C1  UNL     1      28.190  -0.097  53.451  1.00  0.00     0.065 A 
HETATM   25  C16 UNL     1      28.379   1.258  53.498  1.00  0.00     0.037 A 
HETATM   26  C15 UNL     1      27.555   2.080  52.732  1.00  0.00     0.016 A 
BRANCH  24  27
HETATM   27  O1  UNL     1      28.985  -0.948  54.195  1.00  0.00    -0.361 OA
HETATM   28  H1  UNL     1      29.656  -0.586  54.838  1.00  0.00     0.217 HD
ENDBRANCH  24  27
ENDBRANCH   1  21
TORSDOF 4
ENDMDL
MODEL 8
REMARK VINA RESULT:      -7.8      3.423      5.073
REMARK  4 active torsions:
REMARK  status: ('A' for Active; 'I' for Inactive)
REMARK    1  A    between atoms: O1_1  and  C1_2 
REMARK    2  A    between atoms: C4_5  and  C5_6 
REMARK    3  A    between atoms: C7_8  and  N1_9 
REMARK    4  A    between atoms: N1_9  and  C8_10 
ROOT
HETATM    1  C5  UNL     1      24.162  -0.253  53.901  1.00  0.00     0.072 C 
HETATM    2  C6  UNL     1      22.961   0.148  53.649  1.00  0.00     0.074 C 
HETATM    3  C7  UNL     1      22.202   1.200  53.021  1.00  0.00     0.145 C 
HETATM    4  N2  UNL     1      20.949   1.179  52.999  1.00  0.00    -0.223 NA
HETATM    5  C14 UNL     1      20.072   0.186  53.511  1.00  0.00     0.235 C 
HETATM    6  N3  UNL     1      20.413  -0.963  54.093  1.00  0.00    -0.240 NA
HETATM    7  P1  UNL     1      21.937  -1.410  54.267  1.00  0.00     0.099 P 
HETATM    8  N4  UNL     1      22.781  -1.556  55.577  1.00  0.00    -0.092 NA
HETATM    9  N5  UNL     1      24.192  -1.228  54.969  1.00  0.00    -0.297 N 
HETATM   10  H10 UNL     1      22.412  -2.386  53.304  1.00  0.00     0.100 HD
HETATM   11  H11 UNL     1      24.963  -1.787  55.459  1.00  0.00     0.183 HD
ENDROOT
BRANCH   3  12
HETATM   12  N1  UNL     1      23.006   2.204  52.443  1.00  0.00    -0.340 N 
HETATM   13  H4  UNL     1      23.667   2.713  53.015  1.00  0.00     0.167 HD
BRANCH  12  14
HETATM   14  C8  UNL     1      22.868   2.494  51.054  1.00  0.00     0.035 A 
HETATM   15  C9  UNL     1      23.955   3.008  50.379  1.00  0.00     0.029 A 
HETATM   16  C10 UNL     1      23.987   3.337  49.044  1.00  0.00     0.004 A 
HETATM   17  C11 UNL     1      22.831   3.138  48.297  1.00  0.00     0.024 A 
HETATM   18  C12 UNL     1      21.718   2.625  48.926  1.00  0.00     0.036 A 
HETATM   19 CL1  UNL     1      20.232   2.359  48.019  1.00  0.00    -0.084 Cl
HETATM   20  C13 UNL     1      21.775   2.326  50.263  1.00  0.00     0.053 A 
ENDBRANCH  12  14
ENDBRANCH   3  12
BRANCH   1  21
HETATM   21  C4  UNL     1      25.484   0.225  53.614  1.00  0.00    -0.007 A 
HETATM   22  C3  UNL     1      26.108   0.794  52.537  1.00  0.00     0.016 A 
HETATM   23  C2  UNL     1      27.435   1.145  52.486  1.00  0.00     0.037 A 
HETATM   24  C1  UNL     1      28.257   0.936  53.571  1.00  0.00     0.065 A 
HETATM   25  C16 UNL     1      27.717   0.371  54.694  1.00  0.00     0.037 A 
HETATM   26  C15 UNL     1      26.365   0.033  54.695  1.00  0.00     0.016 A 
BRANCH  24  27
HETATM   27  O1  UNL     1      29.593   1.287  53.527  1.00  0.00    -0.361 OA
HETATM   28  H1  UNL     1      30.250   0.725  53.032  1.00  0.00     0.217 HD
ENDBRANCH  24  27
ENDBRANCH   1  21
TORSDOF 4
ENDMDL
MODEL 9
REMARK VINA RESULT:      -7.8      4.502      6.204
REMARK  4 active torsions:
REMARK  status: ('A' for Active; 'I' for Inactive)
REMARK    1  A    between atoms: O1_1  and  C1_2 
REMARK    2  A    between atoms: C4_5  and  C5_6 
REMARK    3  A    between atoms: C7_8  and  N1_9 
REMARK    4  A    between atoms: N1_9  and  C8_10 
ROOT
HETATM    1  C5  UNL     1      22.392   3.326  52.008  1.00  0.00     0.072 C 
HETATM    2  C6  UNL     1      22.219   4.468  51.431  1.00  0.00     0.074 C 
HETATM    3  C7  UNL     1      22.888   5.691  51.067  1.00  0.00     0.145 C 
HETATM    4  N2  UNL     1      22.290   6.605  50.451  1.00  0.00    -0.223 NA
HETATM    5  C14 UNL     1      20.949   6.626  49.984  1.00  0.00     0.235 C 
HETATM    6  N3  UNL     1      20.053   5.645  50.072  1.00  0.00    -0.240 NA
HETATM    7  P1  UNL     1      20.403   4.227  50.722  1.00  0.00     0.099 P 
HETATM    8  N4  UNL     1      19.873   3.590  52.049  1.00  0.00    -0.092 NA
HETATM    9  N5  UNL     1      21.136   2.723  52.398  1.00  0.00    -0.297 N 
HETATM   10  H10 UNL     1      20.672   3.160  49.776  1.00  0.00     0.100 HD
HETATM   11  H11 UNL     1      20.856   1.810  52.883  1.00  0.00     0.183 HD
ENDROOT
BRANCH   3  12
HETATM   12  N1  UNL     1      24.242   5.728  51.456  1.00  0.00    -0.340 N 
HETATM   13  H4  UNL     1      24.486   5.899  52.423  1.00  0.00     0.167 HD
BRANCH  12  14
HETATM   14  C8  UNL     1      25.256   5.530  50.472  1.00  0.00     0.035 A 
HETATM   15  C9  UNL     1      25.764   4.261  50.298  1.00  0.00     0.029 A 
HETATM   16  C10 UNL     1      26.737   3.904  49.394  1.00  0.00     0.004 A 
HETATM   17  C11 UNL     1      27.263   4.898  48.577  1.00  0.00     0.024 A 
HETATM   18  C12 UNL     1      26.786   6.184  48.712  1.00  0.00     0.036 A 
HETATM   19 CL1  UNL     1      27.424   7.476  47.699  1.00  0.00    -0.084 Cl
HETATM   20  C13 UNL     1      25.814   6.451  49.642  1.00  0.00     0.053 A 
ENDBRANCH  12  14
ENDBRANCH   3  12
BRANCH   1  21
HETATM   21  C4  UNL     1      23.494   2.645  52.626  1.00  0.00    -0.007 A 
HETATM   22  C3  UNL     1      24.591   3.017  53.354  1.00  0.00     0.016 A 
HETATM   23  C2  UNL     1      25.557   2.161  53.823  1.00  0.00     0.037 A 
HETATM   24  C1  UNL     1      25.474   0.808  53.577  1.00  0.00     0.065 A 
HETATM   25  C16 UNL     1      24.406   0.346  52.854  1.00  0.00     0.037 A 
HETATM   26  C15 UNL     1      23.454   1.257  52.402  1.00  0.00     0.016 A 
BRANCH  24  27
HETATM   27  O1  UNL     1      26.441  -0.060  54.044  1.00  0.00    -0.361 OA
HETATM   28  H1  UNL     1      26.186  -0.925  54.468  1.00  0.00     0.217 HD
ENDBRANCH  24  27
ENDBRANCH   1  21
TORSDOF 4
ENDMDL
