MODEL 1
REMARK VINA RESULT:      -7.9      0.000      0.000
REMARK  8 active torsions:
REMARK  status: ('A' for Active; 'I' for Inactive)
REMARK    1  A    between atoms: N1_1  and  C1_2 
REMARK    2  A    between atoms: C1_2  and  C2_4 
REMARK    3  A    between atoms: C2_4  and  C3_5 
REMARK    4  A    between atoms: C3_5  and  C4_6 
REMARK    5  A    between atoms: C4_6  and  C5_7 
REMARK    6  A    between atoms: C10_13  and  C11_14 
REMARK    7  A    between atoms: N2_17  and  C14_18 
REMARK    8  A    between atoms: C15_20  and  O1_21 
ROOT
HETATM    1  C5  UNL     1      22.623   1.624  50.437  1.00  0.00    -0.020 A 
HETATM    2  C6  UNL     1      22.118   2.282  49.339  1.00  0.00     0.031 A 
HETATM    3  C7  UNL     1      22.778   3.321  48.740  1.00  0.00     0.011 A 
HETATM    4 BR1  UNL     1      22.055   4.208  47.218  1.00  0.00    -0.051 Br
HETATM    5  C8  UNL     1      23.984   3.710  49.262  1.00  0.00     0.020 A 
HETATM    6  C9  UNL     1      24.460   3.028  50.366  1.00  0.00     0.011 A 
HETATM    7  C10 UNL     1      23.830   1.979  51.000  1.00  0.00    -0.028 A 
ENDROOT
BRANCH   7   8
HETATM    8  C11 UNL     1      24.447   1.284  52.169  1.00  0.00     0.112 C 
HETATM    9  C12 UNL     1      24.784   2.241  53.297  1.00  0.00     0.047 C 
HETATM   10  C13 UNL     1      26.171   1.904  53.762  1.00  0.00     0.147 C 
HETATM   11  N2  UNL     1      26.581   0.822  52.892  1.00  0.00    -0.290 N 
HETATM   12  N4  UNL     1      25.797   0.901  51.734  1.00  0.00    -0.227 NA
HETATM   13  H16 UNL     1      26.185   1.762  51.229  1.00  0.00     0.147 HD
BRANCH  11  14
HETATM   14  C14 UNL     1      27.551  -0.158  53.115  1.00  0.00     0.185 A 
HETATM   15  N3  UNL     1      27.643  -1.491  53.092  1.00  0.00    -0.199 NA
HETATM   16  C15 UNL     1      28.855  -1.943  53.434  1.00  0.00     0.171 A 
HETATM   17  C16 UNL     1      30.016  -1.142  53.810  1.00  0.00     0.111 A 
HETATM   18  S1  UNL     1      29.242   0.533  53.644  1.00  0.00    -0.058 SA
BRANCH  16  19
HETATM   19  O1  UNL     1      28.808  -3.349  53.364  1.00  0.00    -0.344 OA
HETATM   20  H14 UNL     1      28.074  -3.864  52.912  1.00  0.00     0.219 HD
ENDBRANCH  16  19
ENDBRANCH  11  14
ENDBRANCH   7   8
BRANCH   1  21
HETATM   21  C4  UNL     1      21.841   0.545  51.019  1.00  0.00     0.063 C 
BRANCH  21  22
HETATM   22  C3  UNL     1      21.182   0.916  52.099  1.00  0.00    -0.144 C 
BRANCH  22  23
HETATM   23  C2  UNL     1      20.678   1.214  53.280  1.00  0.00     0.140 C 
BRANCH  23  24
HETATM   24  C1  UNL     1      20.670   0.198  54.314  1.00  0.00     0.416 C 
HETATM   25  F1  UNL     1      21.928  -0.096  54.759  1.00  0.00    -0.215 F 
BRANCH  24  26
HETATM   26  N1  UNL     1      19.978  -1.027  53.987  1.00  0.00     0.113 N 
HETATM   27  H1  UNL     1      19.533  -1.498  54.794  1.00  0.00     0.316 HD
HETATM   28  H2  UNL     1      19.405  -0.971  53.137  1.00  0.00     0.316 HD
ENDBRANCH  24  26
ENDBRANCH  23  24
ENDBRANCH  22  23
ENDBRANCH  21  22
ENDBRANCH   1  21
TORSDOF 8
ENDMDL
MODEL 2
REMARK VINA RESULT:      -7.7      4.889      6.969
REMARK  8 active torsions:
REMARK  status: ('A' for Active; 'I' for Inactive)
REMARK    1  A    between atoms: N1_1  and  C1_2 
REMARK    2  A    between atoms: C1_2  and  C2_4 
REMARK    3  A    between atoms: C2_4  and  C3_5 
REMARK    4  A    between atoms: C3_5  and  C4_6 
REMARK    5  A    between atoms: C4_6  and  C5_7 
REMARK    6  A    between atoms: C10_13  and  C11_14 
REMARK    7  A    between atoms: N2_17  and  C14_18 
REMARK    8  A    between atoms: C15_20  and  O1_21 
ROOT
HETATM    1  C5  UNL     1      27.392   5.748  48.698  1.00  0.00    -0.020 A 
HETATM    2  C6  UNL     1      27.358   7.104  48.471  1.00  0.00     0.031 A 
HETATM    3  C7  UNL     1      26.304   7.886  48.859  1.00  0.00     0.011 A 
HETATM    4 BR1  UNL     1      26.289   9.762  48.533  1.00  0.00    -0.051 Br
HETATM    5  C8  UNL     1      25.251   7.284  49.496  1.00  0.00     0.020 A 
HETATM    6  C9  UNL     1      25.318   5.920  49.707  1.00  0.00     0.011 A 
HETATM    7  C10 UNL     1      26.358   5.096  49.334  1.00  0.00    -0.028 A 
ENDROOT
BRANCH   7   8
HETATM    8  C11 UNL     1      26.349   3.633  49.641  1.00  0.00     0.112 C 
HETATM    9  C12 UNL     1      24.954   3.112  49.922  1.00  0.00     0.047 C 
HETATM   10  C13 UNL     1      25.043   2.250  51.148  1.00  0.00     0.147 C 
HETATM   11  N2  UNL     1      26.436   2.332  51.534  1.00  0.00    -0.290 N 
HETATM   12  N4  UNL     1      26.954   3.506  50.974  1.00  0.00    -0.227 NA
HETATM   13  H16 UNL     1      26.506   4.281  51.562  1.00  0.00     0.147 HD
BRANCH  11  14
HETATM   14  C14 UNL     1      27.183   1.435  52.301  1.00  0.00     0.185 A 
HETATM   15  N3  UNL     1      27.284   0.113  52.469  1.00  0.00    -0.199 NA
HETATM   16  C15 UNL     1      28.182  -0.235  53.399  1.00  0.00     0.171 A 
HETATM   17  C16 UNL     1      29.010   0.664  54.198  1.00  0.00     0.111 A 
HETATM   18  S1  UNL     1      28.402   2.268  53.500  1.00  0.00    -0.058 SA
BRANCH  16  19
HETATM   19  O1  UNL     1      28.184  -1.641  53.469  1.00  0.00    -0.344 OA
HETATM   20  H14 UNL     1      27.355  -2.199  53.575  1.00  0.00     0.219 HD
ENDBRANCH  16  19
ENDBRANCH  11  14
ENDBRANCH   7   8
BRANCH   1  21
HETATM   21  C4  UNL     1      28.546   4.994  48.232  1.00  0.00     0.063 C 
BRANCH  21  22
HETATM   22  C3  UNL     1      29.651   5.713  48.213  1.00  0.00    -0.144 C 
BRANCH  22  23
HETATM   23  C2  UNL     1      30.755   6.411  48.393  1.00  0.00     0.140 C 
BRANCH  23  24
HETATM   24  C1  UNL     1      31.831   5.831  49.170  1.00  0.00     0.416 C 
HETATM   25  F1  UNL     1      32.237   4.625  48.673  1.00  0.00    -0.215 F 
BRANCH  24  26
HETATM   26  N1  UNL     1      31.587   5.706  50.589  1.00  0.00     0.113 N 
HETATM   27  H1  UNL     1      30.642   5.362  50.834  1.00  0.00     0.316 HD
HETATM   28  H2  UNL     1      32.361   5.280  51.112  1.00  0.00     0.316 HD
ENDBRANCH  24  26
ENDBRANCH  23  24
ENDBRANCH  22  23
ENDBRANCH  21  22
ENDBRANCH   1  21
TORSDOF 8
ENDMDL
MODEL 3
REMARK VINA RESULT:      -7.6      3.251      4.825
REMARK  8 active torsions:
REMARK  status: ('A' for Active; 'I' for Inactive)
REMARK    1  A    between atoms: N1_1  and  C1_2 
REMARK    2  A    between atoms: C1_2  and  C2_4 
REMARK    3  A    between atoms: C2_4  and  C3_5 
REMARK    4  A    between atoms: C3_5  and  C4_6 
REMARK    5  A    between atoms: C4_6  and  C5_7 
REMARK    6  A    between atoms: C10_13  and  C11_14 
REMARK    7  A    between atoms: N2_17  and  C14_18 
REMARK    8  A    between atoms: C15_20  and  O1_21 
ROOT
HETATM    1  C5  UNL     1      23.792   3.490  50.374  1.00  0.00    -0.020 A 
HETATM    2  C6  UNL     1      23.389   4.801  50.251  1.00  0.00     0.031 A 
HETATM    3  C7  UNL     1      22.545   5.395  51.149  1.00  0.00     0.011 A 
HETATM    4 BR1  UNL     1      22.009   7.212  50.952  1.00  0.00    -0.051 Br
HETATM    5  C8  UNL     1      22.092   4.648  52.205  1.00  0.00     0.020 A 
HETATM    6  C9  UNL     1      22.516   3.336  52.297  1.00  0.00     0.011 A 
HETATM    7  C10 UNL     1      23.363   2.698  51.417  1.00  0.00    -0.028 A 
ENDROOT
BRANCH   7   8
HETATM    8  C11 UNL     1      23.790   1.282  51.626  1.00  0.00     0.112 C 
HETATM    9  C12 UNL     1      23.019   0.606  52.743  1.00  0.00     0.047 C 
HETATM   10  C13 UNL     1      24.019  -0.121  53.594  1.00  0.00     0.147 C 
HETATM   11  N2  UNL     1      25.292   0.180  52.974  1.00  0.00    -0.290 N 
HETATM   12  N4  UNL     1      25.126   1.357  52.233  1.00  0.00    -0.227 NA
HETATM   13  H16 UNL     1      25.050   2.116  52.986  1.00  0.00     0.147 HD
BRANCH  11  14
HETATM   14  C14 UNL     1      26.489  -0.536  53.045  1.00  0.00     0.185 A 
HETATM   15  N3  UNL     1      26.902  -1.801  52.916  1.00  0.00    -0.199 NA
HETATM   16  C15 UNL     1      28.215  -1.953  53.126  1.00  0.00     0.171 A 
HETATM   17  C16 UNL     1      29.176  -0.907  53.466  1.00  0.00     0.111 A 
HETATM   18  S1  UNL     1      28.003   0.527  53.487  1.00  0.00    -0.058 SA
BRANCH  16  19
HETATM   19  O1  UNL     1      28.506  -3.320  52.957  1.00  0.00    -0.344 OA
HETATM   20  H14 UNL     1      28.516  -3.786  52.067  1.00  0.00     0.219 HD
ENDBRANCH  16  19
ENDBRANCH  11  14
ENDBRANCH   7   8
BRANCH   1  21
HETATM   21  C4  UNL     1      24.676   2.937  49.360  1.00  0.00     0.063 C 
BRANCH  21  22
HETATM   22  C3  UNL     1      25.797   3.619  49.232  1.00  0.00    -0.144 C 
BRANCH  22  23
HETATM   23  C2  UNL     1      26.969   4.219  49.279  1.00  0.00     0.140 C 
BRANCH  23  24
HETATM   24  C1  UNL     1      27.116   5.519  48.656  1.00  0.00     0.416 C 
HETATM   25  F1  UNL     1      28.301   5.641  47.986  1.00  0.00    -0.215 F 
BRANCH  24  26
HETATM   26  N1  UNL     1      26.938   6.658  49.526  1.00  0.00     0.113 N 
HETATM   27  H1  UNL     1      27.149   6.476  50.522  1.00  0.00     0.316 HD
HETATM   28  H2  UNL     1      27.314   7.537  49.149  1.00  0.00     0.316 HD
ENDBRANCH  24  26
ENDBRANCH  23  24
ENDBRANCH  22  23
ENDBRANCH  21  22
ENDBRANCH   1  21
TORSDOF 8
ENDMDL
MODEL 4
REMARK VINA RESULT:      -7.5      3.754      5.567
REMARK  8 active torsions:
REMARK  status: ('A' for Active; 'I' for Inactive)
REMARK    1  A    between atoms: N1_1  and  C1_2 
REMARK    2  A    between atoms: C1_2  and  C2_4 
REMARK    3  A    between atoms: C2_4  and  C3_5 
REMARK    4  A    between atoms: C3_5  and  C4_6 
REMARK    5  A    between atoms: C4_6  and  C5_7 
REMARK    6  A    between atoms: C10_13  and  C11_14 
REMARK    7  A    between atoms: N2_17  and  C14_18 
REMARK    8  A    between atoms: C15_20  and  O1_21 
ROOT
HETATM    1  C5  UNL     1      23.840   4.774  49.928  1.00  0.00    -0.020 A 
HETATM    2  C6  UNL     1      23.068   5.890  49.698  1.00  0.00     0.031 A 
HETATM    3  C7  UNL     1      22.059   6.269  50.541  1.00  0.00     0.011 A 
HETATM    4 BR1  UNL     1      21.011   7.821  50.197  1.00  0.00    -0.051 Br
HETATM    5  C8  UNL     1      21.818   5.501  51.651  1.00  0.00     0.020 A 
HETATM    6  C9  UNL     1      22.611   4.387  51.850  1.00  0.00     0.011 A 
HETATM    7  C10 UNL     1      23.636   3.969  51.029  1.00  0.00    -0.028 A 
ENDROOT
BRANCH   7   8
HETATM    8  C11 UNL     1      24.460   2.765  51.352  1.00  0.00     0.112 C 
HETATM    9  C12 UNL     1      23.669   1.710  52.102  1.00  0.00     0.047 C 
HETATM   10  C13 UNL     1      24.526   1.245  53.244  1.00  0.00     0.147 C 
HETATM   11  N2  UNL     1      25.726   2.047  53.133  1.00  0.00    -0.290 N 
HETATM   12  N4  UNL     1      25.392   3.196  52.403  1.00  0.00    -0.227 NA
HETATM   13  H16 UNL     1      24.798   3.763  53.091  1.00  0.00     0.147 HD
BRANCH  11  14
HETATM   14  C14 UNL     1      27.006   1.775  53.620  1.00  0.00     0.185 A 
HETATM   15  N3  UNL     1      28.040   2.448  54.134  1.00  0.00    -0.199 NA
HETATM   16  C15 UNL     1      29.089   1.669  54.419  1.00  0.00     0.171 A 
HETATM   17  C16 UNL     1      29.188   0.225  54.225  1.00  0.00     0.111 A 
HETATM   18  S1  UNL     1      27.501  -0.059  53.518  1.00  0.00    -0.058 SA
BRANCH  16  19
HETATM   19  O1  UNL     1      30.093   2.503  54.949  1.00  0.00    -0.344 OA
HETATM   20  H14 UNL     1      30.479   2.400  55.871  1.00  0.00     0.219 HD
ENDBRANCH  16  19
ENDBRANCH  11  14
ENDBRANCH   7   8
BRANCH   1  21
HETATM   21  C4  UNL     1      24.877   4.437  48.966  1.00  0.00     0.063 C 
BRANCH  21  22
HETATM   22  C3  UNL     1      25.794   5.378  48.854  1.00  0.00    -0.144 C 
BRANCH  22  23
HETATM   23  C2  UNL     1      26.743   6.288  48.935  1.00  0.00     0.140 C 
BRANCH  23  24
HETATM   24  C1  UNL     1      28.031   6.012  48.330  1.00  0.00     0.416 C 
HETATM   25  F1  UNL     1      28.291   4.672  48.257  1.00  0.00    -0.215 F 
BRANCH  24  26
HETATM   26  N1  UNL     1      29.163   6.688  48.922  1.00  0.00     0.113 N 
HETATM   27  H1  UNL     1      29.250   6.566  49.946  1.00  0.00     0.316 HD
HETATM   28  H2  UNL     1      30.036   6.588  48.390  1.00  0.00     0.316 HD
ENDBRANCH  24  26
ENDBRANCH  23  24
ENDBRANCH  22  23
ENDBRANCH  21  22
ENDBRANCH   1  21
TORSDOF 8
ENDMDL
MODEL 5
REMARK VINA RESULT:      -7.4      4.186      6.266
REMARK  8 active torsions:
REMARK  status: ('A' for Active; 'I' for Inactive)
REMARK    1  A    between atoms: N1_1  and  C1_2 
REMARK    2  A    between atoms: C1_2  and  C2_4 
REMARK    3  A    between atoms: C2_4  and  C3_5 
REMARK    4  A    between atoms: C3_5  and  C4_6 
REMARK    5  A    between atoms: C4_6  and  C5_7 
REMARK    6  A    between atoms: C10_13  and  C11_14 
REMARK    7  A    between atoms: N2_17  and  C14_18 
REMARK    8  A    between atoms: C15_20  and  O1_21 
ROOT
HETATM    1  C5  UNL     1      24.442   2.000  52.940  1.00  0.00    -0.020 A 
HETATM    2  C6  UNL     1      23.932   0.804  53.391  1.00  0.00     0.031 A 
HETATM    3  C7  UNL     1      22.853   0.200  52.804  1.00  0.00     0.011 A 
HETATM    4 BR1  UNL     1      22.173  -1.457  53.450  1.00  0.00    -0.051 Br
HETATM    5  C8  UNL     1      22.270   0.818  51.729  1.00  0.00     0.020 A 
HETATM    6  C9  UNL     1      22.807   2.018  51.303  1.00  0.00     0.011 A 
HETATM    7  C10 UNL     1      23.890   2.660  51.864  1.00  0.00    -0.028 A 
ENDROOT
BRANCH   7   8
HETATM    8  C11 UNL     1      24.418   3.942  51.305  1.00  0.00     0.112 C 
HETATM    9  C12 UNL     1      23.453   4.585  50.327  1.00  0.00     0.047 C 
HETATM   10  C13 UNL     1      24.254   5.009  49.131  1.00  0.00     0.147 C 
HETATM   11  N2  UNL     1      25.601   4.579  49.439  1.00  0.00    -0.290 N 
HETATM   12  N4  UNL     1      25.503   3.557  50.392  1.00  0.00    -0.227 NA
HETATM   13  H16 UNL     1      25.119   2.730  49.831  1.00  0.00     0.147 HD
BRANCH  11  14
HETATM   14  C14 UNL     1      26.809   5.063  48.933  1.00  0.00     0.185 A 
HETATM   15  N3  UNL     1      28.039   4.603  48.681  1.00  0.00    -0.199 NA
HETATM   16  C15 UNL     1      28.867   5.540  48.204  1.00  0.00     0.171 A 
HETATM   17  C16 UNL     1      28.552   6.943  47.953  1.00  0.00     0.111 A 
HETATM   18  S1  UNL     1      26.778   6.912  48.487  1.00  0.00    -0.058 SA
BRANCH  16  19
HETATM   19  O1  UNL     1      30.112   4.920  47.985  1.00  0.00    -0.344 OA
HETATM   20  H14 UNL     1      30.225   3.940  47.796  1.00  0.00     0.219 HD
ENDBRANCH  16  19
ENDBRANCH  11  14
ENDBRANCH   7   8
BRANCH   1  21
HETATM   21  C4  UNL     1      25.580   2.577  53.639  1.00  0.00     0.063 C 
BRANCH  21  22
HETATM   22  C3  UNL     1      26.703   1.925  53.413  1.00  0.00    -0.144 C 
BRANCH  22  23
HETATM   23  C2  UNL     1      27.709   1.129  53.112  1.00  0.00     0.140 C 
BRANCH  23  24
HETATM   24  C1  UNL     1      27.429  -0.241  52.731  1.00  0.00     0.416 C 
HETATM   25  F1  UNL     1      26.578  -0.317  51.664  1.00  0.00    -0.215 F 
BRANCH  24  26
HETATM   26  N1  UNL     1      26.952  -1.103  53.787  1.00  0.00     0.113 N 
HETATM   27  H1  UNL     1      27.696  -1.603  54.303  1.00  0.00     0.316 HD
HETATM   28  H2  UNL     1      26.215  -0.686  54.369  1.00  0.00     0.316 HD
ENDBRANCH  24  26
ENDBRANCH  23  24
ENDBRANCH  22  23
ENDBRANCH  21  22
ENDBRANCH   1  21
TORSDOF 8
ENDMDL
MODEL 6
REMARK VINA RESULT:      -7.4      4.914      6.608
REMARK  8 active torsions:
REMARK  status: ('A' for Active; 'I' for Inactive)
REMARK    1  A    between atoms: N1_1  and  C1_2 
REMARK    2  A    between atoms: C1_2  and  C2_4 
REMARK    3  A    between atoms: C2_4  and  C3_5 
REMARK    4  A    between atoms: C3_5  and  C4_6 
REMARK    5  A    between atoms: C4_6  and  C5_7 
REMARK    6  A    between atoms: C10_13  and  C11_14 
REMARK    7  A    between atoms: N2_17  and  C14_18 
REMARK    8  A    between atoms: C15_20  and  O1_21 
ROOT
HETATM    1  C5  UNL     1      24.392   1.679  52.301  1.00  0.00    -0.020 A 
HETATM    2  C6  UNL     1      24.968   0.489  52.685  1.00  0.00     0.031 A 
HETATM    3  C7  UNL     1      26.227   0.124  52.292  1.00  0.00     0.011 A 
HETATM    4 BR1  UNL     1      26.996  -1.528  52.843  1.00  0.00    -0.051 Br
HETATM    5  C8  UNL     1      26.930   0.984  51.490  1.00  0.00     0.020 A 
HETATM    6  C9  UNL     1      26.322   2.169  51.124  1.00  0.00     0.011 A 
HETATM    7  C10 UNL     1      25.058   2.576  51.494  1.00  0.00    -0.028 A 
ENDROOT
BRANCH   7   8
HETATM    8  C11 UNL     1      24.503   3.897  51.072  1.00  0.00     0.112 C 
HETATM    9  C12 UNL     1      23.790   3.822  49.735  1.00  0.00     0.047 C 
HETATM   10  C13 UNL     1      24.255   4.993  48.920  1.00  0.00     0.147 C 
HETATM   11  N2  UNL     1      25.212   5.660  49.777  1.00  0.00    -0.290 N 
HETATM   12  N4  UNL     1      25.668   4.716  50.705  1.00  0.00    -0.227 NA
HETATM   13  H16 UNL     1      26.291   4.071  50.119  1.00  0.00     0.147 HD
BRANCH  11  14
HETATM   14  C14 UNL     1      25.630   6.992  49.747  1.00  0.00     0.185 A 
HETATM   15  N3  UNL     1      26.315   7.838  50.524  1.00  0.00    -0.199 NA
HETATM   16  C15 UNL     1      26.405   9.071  50.011  1.00  0.00     0.171 A 
HETATM   17  C16 UNL     1      25.847   9.538  48.745  1.00  0.00     0.111 A 
HETATM   18  S1  UNL     1      25.067   7.948  48.203  1.00  0.00    -0.058 SA
BRANCH  16  19
HETATM   19  O1  UNL     1      27.146   9.847  50.924  1.00  0.00    -0.344 OA
HETATM   20  H14 UNL     1      27.434  10.793  50.751  1.00  0.00     0.219 HD
ENDBRANCH  16  19
ENDBRANCH  11  14
ENDBRANCH   7   8
BRANCH   1  21
HETATM   21  C4  UNL     1      23.040   1.973  52.751  1.00  0.00     0.063 C 
BRANCH  21  22
HETATM   22  C3  UNL     1      22.285   0.895  52.836  1.00  0.00    -0.144 C 
BRANCH  22  23
HETATM   23  C2  UNL     1      21.417  -0.095  52.782  1.00  0.00     0.140 C 
BRANCH  23  24
HETATM   24  C1  UNL     1      20.423  -0.211  53.829  1.00  0.00     0.416 C 
HETATM   25  F1  UNL     1      20.780   0.469  54.959  1.00  0.00    -0.215 F 
BRANCH  24  26
HETATM   26  N1  UNL     1      20.036  -1.558  54.183  1.00  0.00     0.113 N 
HETATM   27  H1  UNL     1      19.611  -1.651  55.122  1.00  0.00     0.316 HD
HETATM   28  H2  UNL     1      19.558  -2.068  53.430  1.00  0.00     0.316 HD
ENDBRANCH  24  26
ENDBRANCH  23  24
ENDBRANCH  22  23
ENDBRANCH  21  22
ENDBRANCH   1  21
TORSDOF 8
ENDMDL
MODEL 7
REMARK VINA RESULT:      -7.2      2.032      2.314
REMARK  8 active torsions:
REMARK  status: ('A' for Active; 'I' for Inactive)
REMARK    1  A    between atoms: N1_1  and  C1_2 
REMARK    2  A    between atoms: C1_2  and  C2_4 
REMARK    3  A    between atoms: C2_4  and  C3_5 
REMARK    4  A    between atoms: C3_5  and  C4_6 
REMARK    5  A    between atoms: C4_6  and  C5_7 
REMARK    6  A    between atoms: C10_13  and  C11_14 
REMARK    7  A    between atoms: N2_17  and  C14_18 
REMARK    8  A    between atoms: C15_20  and  O1_21 
ROOT
HETATM    1  C5  UNL     1      22.476   2.614  50.601  1.00  0.00    -0.020 A 
HETATM    2  C6  UNL     1      22.090   3.921  50.408  1.00  0.00     0.031 A 
HETATM    3  C7  UNL     1      22.479   4.931  51.246  1.00  0.00     0.011 A 
HETATM    4 BR1  UNL     1      21.931   6.730  50.949  1.00  0.00    -0.051 Br
HETATM    5  C8  UNL     1      23.283   4.617  52.310  1.00  0.00     0.020 A 
HETATM    6  C9  UNL     1      23.650   3.295  52.475  1.00  0.00     0.011 A 
HETATM    7  C10 UNL     1      23.282   2.248  51.658  1.00  0.00    -0.028 A 
ENDROOT
BRANCH   7   8
HETATM    8  C11 UNL     1      23.763   0.855  51.903  1.00  0.00     0.112 C 
HETATM    9  C12 UNL     1      23.098   0.219  53.108  1.00  0.00     0.047 C 
HETATM   10  C13 UNL     1      24.181  -0.439  53.914  1.00  0.00     0.147 C 
HETATM   11  N2  UNL     1      25.394  -0.140  53.183  1.00  0.00    -0.290 N 
HETATM   12  N4  UNL     1      25.139   0.994  52.400  1.00  0.00    -0.227 NA
HETATM   13  H16 UNL     1      25.099   1.788  53.118  1.00  0.00     0.147 HD
BRANCH  11  14
HETATM   14  C14 UNL     1      26.612  -0.822  53.197  1.00  0.00     0.185 A 
HETATM   15  N3  UNL     1      27.049  -2.082  53.103  1.00  0.00    -0.199 NA
HETATM   16  C15 UNL     1      28.378  -2.191  53.216  1.00  0.00     0.171 A 
HETATM   17  C16 UNL     1      29.333  -1.105  53.422  1.00  0.00     0.111 A 
HETATM   18  S1  UNL     1      28.126   0.299  53.460  1.00  0.00    -0.058 SA
BRANCH  16  19
HETATM   19  O1  UNL     1      28.694  -3.558  53.097  1.00  0.00    -0.344 OA
HETATM   20  H14 UNL     1      28.571  -4.228  53.835  1.00  0.00     0.219 HD
ENDBRANCH  16  19
ENDBRANCH  11  14
ENDBRANCH   7   8
BRANCH   1  21
HETATM   21  C4  UNL     1      21.997   1.604  49.671  1.00  0.00     0.063 C 
BRANCH  21  22
HETATM   22  C3  UNL     1      20.780   1.184  49.956  1.00  0.00    -0.144 C 
BRANCH  22  23
HETATM   23  C2  UNL     1      19.556   0.706  50.051  1.00  0.00     0.140 C 
BRANCH  23  24
HETATM   24  C1  UNL     1      18.977   0.520  51.366  1.00  0.00     0.416 C 
HETATM   25  F1  UNL     1      19.913   0.176  52.300  1.00  0.00    -0.215 F 
BRANCH  24  26
HETATM   26  N1  UNL     1      17.866  -0.400  51.441  1.00  0.00     0.113 N 
HETATM   27  H1  UNL     1      17.771  -0.887  52.349  1.00  0.00     0.316 HD
HETATM   28  H2  UNL     1      16.992  -0.036  51.041  1.00  0.00     0.316 HD
ENDBRANCH  24  26
ENDBRANCH  23  24
ENDBRANCH  22  23
ENDBRANCH  21  22
ENDBRANCH   1  21
TORSDOF 8
ENDMDL
MODEL 8
REMARK VINA RESULT:      -7.2      4.839      7.591
REMARK  8 active torsions:
REMARK  status: ('A' for Active; 'I' for Inactive)
REMARK    1  A    between atoms: N1_1  and  C1_2 
REMARK    2  A    between atoms: C1_2  and  C2_4 
REMARK    3  A    between atoms: C2_4  and  C3_5 
REMARK    4  A    between atoms: C3_5  and  C4_6 
REMARK    5  A    between atoms: C4_6  and  C5_7 
REMARK    6  A    between atoms: C10_13  and  C11_14 
REMARK    7  A    between atoms: N2_17  and  C14_18 
REMARK    8  A    between atoms: C15_20  and  O1_21 
ROOT
HETATM    1  C5  UNL     1      25.634   2.393  51.289  1.00  0.00    -0.020 A 
HETATM    2  C6  UNL     1      26.915   2.434  51.791  1.00  0.00     0.031 A 
HETATM    3  C7  UNL     1      27.207   2.090  53.083  1.00  0.00     0.011 A 
HETATM    4 BR1  UNL     1      28.991   2.154  53.745  1.00  0.00    -0.051 Br
HETATM    5  C8  UNL     1      26.178   1.691  53.896  1.00  0.00     0.020 A 
HETATM    6  C9  UNL     1      24.905   1.663  53.360  1.00  0.00     0.011 A 
HETATM    7  C10 UNL     1      24.566   2.001  52.067  1.00  0.00    -0.028 A 
ENDROOT
BRANCH   7   8
HETATM    8  C11 UNL     1      23.159   1.902  51.573  1.00  0.00     0.112 C 
HETATM    9  C12 UNL     1      22.417   3.221  51.681  1.00  0.00     0.047 C 
HETATM   10  C13 UNL     1      21.069   2.922  52.270  1.00  0.00     0.147 C 
HETATM   11  N2  UNL     1      21.096   1.493  52.503  1.00  0.00    -0.290 N 
HETATM   12  N4  UNL     1      22.441   1.110  52.581  1.00  0.00    -0.227 NA
HETATM   13  H16 UNL     1      22.757   1.504  53.526  1.00  0.00     0.147 HD
BRANCH  11  14
HETATM   14  C14 UNL     1      20.023   0.607  52.617  1.00  0.00     0.185 A 
HETATM   15  N3  UNL     1      19.617  -0.365  53.441  1.00  0.00    -0.199 NA
HETATM   16  C15 UNL     1      18.476  -0.944  53.054  1.00  0.00     0.171 A 
HETATM   17  C16 UNL     1      17.684  -0.619  51.870  1.00  0.00     0.111 A 
HETATM   18  S1  UNL     1      18.753   0.740  51.208  1.00  0.00    -0.058 SA
BRANCH  16  19
HETATM   19  O1  UNL     1      18.170  -1.937  54.005  1.00  0.00    -0.344 OA
HETATM   20  H14 UNL     1      18.580  -1.980  54.921  1.00  0.00     0.219 HD
ENDBRANCH  16  19
ENDBRANCH  11  14
ENDBRANCH   7   8
BRANCH   1  21
HETATM   21  C4  UNL     1      25.415   2.796  49.909  1.00  0.00     0.063 C 
BRANCH  21  22
HETATM   22  C3  UNL     1      25.647   4.079  49.709  1.00  0.00    -0.144 C 
BRANCH  22  23
HETATM   23  C2  UNL     1      26.000   5.300  49.364  1.00  0.00     0.140 C 
BRANCH  23  24
HETATM   24  C1  UNL     1      27.199   5.485  48.572  1.00  0.00     0.416 C 
HETATM   25  F1  UNL     1      27.939   4.340  48.479  1.00  0.00    -0.215 F 
BRANCH  24  26
HETATM   26  N1  UNL     1      28.056   6.578  48.972  1.00  0.00     0.113 N 
HETATM   27  H1  UNL     1      28.828   6.782  48.314  1.00  0.00     0.316 HD
HETATM   28  H2  UNL     1      27.551   7.398  49.327  1.00  0.00     0.316 HD
ENDBRANCH  24  26
ENDBRANCH  23  24
ENDBRANCH  22  23
ENDBRANCH  21  22
ENDBRANCH   1  21
TORSDOF 8
ENDMDL
MODEL 9
REMARK VINA RESULT:      -7.1      5.002      7.627
REMARK  8 active torsions:
REMARK  status: ('A' for Active; 'I' for Inactive)
REMARK    1  A    between atoms: N1_1  and  C1_2 
REMARK    2  A    between atoms: C1_2  and  C2_4 
REMARK    3  A    between atoms: C2_4  and  C3_5 
REMARK    4  A    between atoms: C3_5  and  C4_6 
REMARK    5  A    between atoms: C4_6  and  C5_7 
REMARK    6  A    between atoms: C10_13  and  C11_14 
REMARK    7  A    between atoms: N2_17  and  C14_18 
REMARK    8  A    between atoms: C15_20  and  O1_21 
ROOT
HETATM    1  C5  UNL     1      24.405   0.966  52.235  1.00  0.00    -0.020 A 
HETATM    2  C6  UNL     1      24.005   0.058  53.188  1.00  0.00     0.031 A 
HETATM    3  C7  UNL     1      22.696  -0.083  53.562  1.00  0.00     0.011 A 
HETATM    4 BR1  UNL     1      22.174  -1.352  54.883  1.00  0.00    -0.051 Br
HETATM    5  C8  UNL     1      21.760   0.714  52.957  1.00  0.00     0.020 A 
HETATM    6  C9  UNL     1      22.197   1.615  52.005  1.00  0.00     0.011 A 
HETATM    7  C10 UNL     1      23.502   1.790  51.599  1.00  0.00    -0.028 A 
ENDROOT
BRANCH   7   8
HETATM    8  C11 UNL     1      23.867   2.771  50.532  1.00  0.00     0.112 C 
HETATM    9  C12 UNL     1      23.878   4.199  51.042  1.00  0.00     0.047 C 
HETATM   10  C13 UNL     1      23.152   5.035  50.029  1.00  0.00     0.147 C 
HETATM   11  N2  UNL     1      22.734   4.083  49.022  1.00  0.00    -0.290 N 
HETATM   12  N4  UNL     1      22.710   2.820  49.628  1.00  0.00    -0.227 NA
HETATM   13  H16 UNL     1      21.854   2.869  50.270  1.00  0.00     0.147 HD
BRANCH  11  14
HETATM   14  C14 UNL     1      22.419   4.312  47.681  1.00  0.00     0.185 A 
HETATM   15  N3  UNL     1      22.046   3.604  46.610  1.00  0.00    -0.199 NA
HETATM   16  C15 UNL     1      21.900   4.348  45.508  1.00  0.00     0.171 A 
HETATM   17  C16 UNL     1      22.106   5.789  45.389  1.00  0.00     0.111 A 
HETATM   18  S1  UNL     1      22.585   6.130  47.145  1.00  0.00    -0.058 SA
BRANCH  16  19
HETATM   19  O1  UNL     1      21.507   3.481  44.471  1.00  0.00    -0.344 OA
HETATM   20  H14 UNL     1      20.783   2.790  44.561  1.00  0.00     0.219 HD
ENDBRANCH  16  19
ENDBRANCH  11  14
ENDBRANCH   7   8
BRANCH   1  21
HETATM   21  C4  UNL     1      25.821   1.060  51.916  1.00  0.00     0.063 C 
BRANCH  21  22
HETATM   22  C3  UNL     1      26.506   0.009  52.323  1.00  0.00    -0.144 C 
BRANCH  22  23
HETATM   23  C2  UNL     1      27.352  -0.938  52.675  1.00  0.00     0.140 C 
BRANCH  23  24
HETATM   24  C1  UNL     1      28.552  -0.571  53.399  1.00  0.00     0.416 C 
HETATM   25  F1  UNL     1      29.542  -1.504  53.269  1.00  0.00    -0.215 F 
BRANCH  24  26
HETATM   26  N1  UNL     1      28.372  -0.257  54.798  1.00  0.00     0.113 N 
HETATM   27  H1  UNL     1      27.392  -0.074  55.075  1.00  0.00     0.316 HD
HETATM   28  H2  UNL     1      28.906  -0.860  55.436  1.00  0.00     0.316 HD
ENDBRANCH  24  26
ENDBRANCH  23  24
ENDBRANCH  22  23
ENDBRANCH  21  22
ENDBRANCH   1  21
TORSDOF 8
ENDMDL
