MODEL 1
REMARK VINA RESULT:      -8.8      0.000      0.000
REMARK  5 active torsions:
REMARK  status: ('A' for Active; 'I' for Inactive)
REMARK    1  A    between atoms: C6_7  and  C7_8 
REMARK       I    between atoms: C7_8  and  N1_10 
REMARK    2  A    between atoms: C8_12  and  C9_13 
REMARK    3  A    between atoms: C12_16  and  S1_17 
REMARK    4  A    between atoms: S1_17  and  N3_18 
REMARK    5  A    between atoms: C15_25  and  N5_26 
ROOT
HETATM    1  C7  UNL     1      25.499  -0.506  54.080  1.00  0.00     0.298 C 
HETATM    2  O1  UNL     1      25.206  -1.236  55.090  1.00  0.00    -0.265 OA
HETATM    3  N1  UNL     1      24.525   0.071  53.239  1.00  0.00    -0.021 N 
HETATM    4  N2  UNL     1      24.546   0.839  52.166  1.00  0.00    -0.128 NA
HETATM    5  C8  UNL     1      23.342   1.139  51.705  1.00  0.00     0.202 A 
HETATM    6  N4  UNL     1      22.489   0.527  52.532  1.00  0.00    -0.041 NA
HETATM    7  C15 UNL     1      23.194  -0.123  53.466  1.00  0.00     0.726 A 
ENDROOT
BRANCH   5   8
HETATM    8  C9  UNL     1      23.014   1.958  50.548  1.00  0.00     0.053 A 
HETATM    9  C10 UNL     1      23.607   3.162  50.338  1.00  0.00     0.020 A 
HETATM   10  C11 UNL     1      23.338   3.989  49.255  1.00  0.00     0.026 A 
HETATM   11  C12 UNL     1      22.396   3.513  48.358  1.00  0.00     0.077 A 
HETATM   12  C13 UNL     1      21.772   2.289  48.544  1.00  0.00     0.068 A 
HETATM   13  C14 UNL     1      22.080   1.511  49.639  1.00  0.00     0.132 A 
HETATM   14  F2  UNL     1      21.495   0.305  49.861  1.00  0.00    -0.205 F 
BRANCH  11  15
HETATM   15  S1  UNL     1      21.923   4.406  46.939  1.00  0.00     0.239 S 
HETATM   16  O2  UNL     1      22.694   5.703  46.874  1.00  0.00    -0.206 OA
HETATM   17  O3  UNL     1      20.466   4.752  47.004  1.00  0.00    -0.206 OA
BRANCH  15  18
HETATM   18  N3  UNL     1      22.161   3.498  45.488  1.00  0.00    -0.225 NA
HETATM   19  H8  UNL     1      21.474   3.870  44.785  1.00  0.00     0.136 HD
HETATM   20  H9  UNL     1      21.888   2.501  45.665  1.00  0.00     0.136 HD
ENDBRANCH  15  18
ENDBRANCH  11  15
ENDBRANCH   5   8
BRANCH   7  21
HETATM   21  N5  UNL     1      22.542  -0.874  54.496  1.00  0.00    -0.231 N 
HETATM   22  H11 UNL     1      22.333  -1.824  54.119  1.00  0.00     0.174 HD
HETATM   23  H12 UNL     1      22.313  -0.534  55.461  1.00  0.00     0.174 HD
ENDBRANCH   7  21
BRANCH   1  24
HETATM   24  C6  UNL     1      26.935  -0.341  53.897  1.00  0.00     0.073 A 
HETATM   25  C5  UNL     1      27.682  -1.330  53.294  1.00  0.00     0.132 A 
HETATM   26  C4  UNL     1      29.063  -1.207  53.102  1.00  0.00     0.044 A 
HETATM   27  F1  UNL     1      27.136  -2.484  52.847  1.00  0.00    -0.205 F 
HETATM   28  C3  UNL     1      29.730  -0.083  53.514  1.00  0.00     0.010 A 
HETATM   29  C2  UNL     1      29.018   0.930  54.122  1.00  0.00    -0.061 A 
HETATM   30  C1  UNL     1      29.722   2.158  54.576  1.00  0.00     0.048 C 
HETATM   31  C16 UNL     1      27.662   0.760  54.287  1.00  0.00     0.027 A 
ENDBRANCH   1  24
TORSDOF 5
ENDMDL
MODEL 2
REMARK VINA RESULT:      -8.8      1.985      2.402
REMARK  5 active torsions:
REMARK  status: ('A' for Active; 'I' for Inactive)
REMARK    1  A    between atoms: C6_7  and  C7_8 
REMARK       I    between atoms: C7_8  and  N1_10 
REMARK    2  A    between atoms: C8_12  and  C9_13 
REMARK    3  A    between atoms: C12_16  and  S1_17 
REMARK    4  A    between atoms: S1_17  and  N3_18 
REMARK    5  A    between atoms: C15_25  and  N5_26 
ROOT
HETATM    1  C7  UNL     1      25.216  -0.273  54.399  1.00  0.00     0.298 C 
HETATM    2  O1  UNL     1      25.206  -1.025  55.436  1.00  0.00    -0.265 OA
HETATM    3  N1  UNL     1      24.064  -0.003  53.632  1.00  0.00    -0.021 N 
HETATM    4  N2  UNL     1      23.799   0.711  52.554  1.00  0.00    -0.128 NA
HETATM    5  C8  UNL     1      22.529   0.663  52.186  1.00  0.00     0.202 A 
HETATM    6  N4  UNL     1      21.935  -0.131  53.082  1.00  0.00    -0.041 NA
HETATM    7  C15 UNL     1      22.855  -0.541  53.964  1.00  0.00     0.726 A 
ENDROOT
BRANCH   5   8
HETATM    8  C9  UNL     1      21.909   1.329  51.051  1.00  0.00     0.053 A 
HETATM    9  C10 UNL     1      21.613   0.658  49.907  1.00  0.00     0.020 A 
HETATM   10  C11 UNL     1      21.022   1.237  48.791  1.00  0.00     0.026 A 
HETATM   11  C12 UNL     1      20.734   2.588  48.898  1.00  0.00     0.077 A 
HETATM   12  C13 UNL     1      21.024   3.301  50.052  1.00  0.00     0.068 A 
HETATM   13  C14 UNL     1      21.611   2.673  51.128  1.00  0.00     0.132 A 
HETATM   14  F2  UNL     1      21.913   3.331  52.278  1.00  0.00    -0.205 F 
BRANCH  11  15
HETATM   15  S1  UNL     1      19.994   3.490  47.606  1.00  0.00     0.239 S 
HETATM   16  O2  UNL     1      20.968   3.631  46.460  1.00  0.00    -0.206 OA
HETATM   17  O3  UNL     1      19.645   4.872  48.071  1.00  0.00    -0.206 OA
BRANCH  15  18
HETATM   18  N3  UNL     1      18.528   2.759  47.056  1.00  0.00    -0.225 NA
HETATM   19  H8  UNL     1      18.094   2.290  47.890  1.00  0.00     0.136 HD
HETATM   20  H9  UNL     1      18.765   1.995  46.378  1.00  0.00     0.136 HD
ENDBRANCH  15  18
ENDBRANCH  11  15
ENDBRANCH   5   8
BRANCH   7  21
HETATM   21  N5  UNL     1      22.507  -1.410  55.047  1.00  0.00    -0.231 N 
HETATM   22  H11 UNL     1      23.192  -1.253  55.818  1.00  0.00     0.174 HD
HETATM   23  H12 UNL     1      21.706  -2.086  55.067  1.00  0.00     0.174 HD
ENDBRANCH   7  21
BRANCH   1  24
HETATM   24  C6  UNL     1      26.537   0.266  54.105  1.00  0.00     0.073 A 
HETATM   25  C5  UNL     1      26.729   1.625  53.989  1.00  0.00     0.132 A 
HETATM   26  C4  UNL     1      27.984   2.179  53.706  1.00  0.00     0.044 A 
HETATM   27  F1  UNL     1      25.723   2.518  54.139  1.00  0.00    -0.205 F 
HETATM   28  C3  UNL     1      29.079   1.377  53.531  1.00  0.00     0.010 A 
HETATM   29  C2  UNL     1      28.930   0.010  53.639  1.00  0.00    -0.061 A 
HETATM   30  C1  UNL     1      30.106  -0.879  53.454  1.00  0.00     0.048 C 
HETATM   31  C16 UNL     1      27.676  -0.484  53.919  1.00  0.00     0.027 A 
ENDBRANCH   1  24
TORSDOF 5
ENDMDL
MODEL 3
REMARK VINA RESULT:      -8.8      4.826      5.893
REMARK  5 active torsions:
REMARK  status: ('A' for Active; 'I' for Inactive)
REMARK    1  A    between atoms: C6_7  and  C7_8 
REMARK       I    between atoms: C7_8  and  N1_10 
REMARK    2  A    between atoms: C8_12  and  C9_13 
REMARK    3  A    between atoms: C12_16  and  S1_17 
REMARK    4  A    between atoms: S1_17  and  N3_18 
REMARK    5  A    between atoms: C15_25  and  N5_26 
ROOT
HETATM    1  C7  UNL     1      24.116   1.741  51.409  1.00  0.00     0.298 C 
HETATM    2  O1  UNL     1      23.055   1.037  51.273  1.00  0.00    -0.265 OA
HETATM    3  N1  UNL     1      24.311   2.973  50.750  1.00  0.00    -0.021 N 
HETATM    4  N2  UNL     1      25.274   3.875  50.711  1.00  0.00    -0.128 NA
HETATM    5  C8  UNL     1      25.003   4.905  49.927  1.00  0.00     0.202 A 
HETATM    6  N4  UNL     1      23.789   4.656  49.428  1.00  0.00    -0.041 NA
HETATM    7  C15 UNL     1      23.359   3.487  49.920  1.00  0.00     0.726 A 
ENDROOT
BRANCH   5   8
HETATM    8  C9  UNL     1      25.844   6.063  49.662  1.00  0.00     0.053 A 
HETATM    9  C10 UNL     1      26.863   6.011  48.764  1.00  0.00     0.020 A 
HETATM   10  C11 UNL     1      27.699   7.080  48.467  1.00  0.00     0.026 A 
HETATM   11  C12 UNL     1      27.440   8.253  49.156  1.00  0.00     0.077 A 
HETATM   12  C13 UNL     1      26.407   8.339  50.079  1.00  0.00     0.068 A 
HETATM   13  C14 UNL     1      25.610   7.244  50.332  1.00  0.00     0.132 A 
HETATM   14  F2  UNL     1      24.588   7.281  51.226  1.00  0.00    -0.205 F 
BRANCH  11  15
HETATM   15  S1  UNL     1      28.379   9.701  48.922  1.00  0.00     0.239 S 
HETATM   16  O2  UNL     1      27.536  10.912  49.249  1.00  0.00    -0.206 OA
HETATM   17  O3  UNL     1      28.799   9.821  47.488  1.00  0.00    -0.206 OA
BRANCH  15  18
HETATM   18  N3  UNL     1      29.822   9.704  49.872  1.00  0.00    -0.225 NA
HETATM   19  H8  UNL     1      30.580   9.298  49.268  1.00  0.00     0.136 HD
HETATM   20  H9  UNL     1      29.699   9.041  50.675  1.00  0.00     0.136 HD
ENDBRANCH  15  18
ENDBRANCH  11  15
ENDBRANCH   5   8
BRANCH   7  21
HETATM   21  N5  UNL     1      22.079   2.958  49.559  1.00  0.00    -0.231 N 
HETATM   22  H11 UNL     1      22.170   1.923  49.473  1.00  0.00     0.174 HD
HETATM   23  H12 UNL     1      21.200   3.510  49.408  1.00  0.00     0.174 HD
ENDBRANCH   7  21
BRANCH   1  24
HETATM   24  C6  UNL     1      25.088   1.133  52.307  1.00  0.00     0.073 A 
HETATM   25  C5  UNL     1      25.466   1.773  53.467  1.00  0.00     0.132 A 
HETATM   26  C4  UNL     1      26.397   1.220  54.354  1.00  0.00     0.044 A 
HETATM   27  F1  UNL     1      24.966   2.977  53.830  1.00  0.00    -0.205 F 
HETATM   28  C3  UNL     1      26.974   0.005  54.095  1.00  0.00     0.010 A 
HETATM   29  C2  UNL     1      26.622  -0.669  52.944  1.00  0.00    -0.061 A 
HETATM   30  C1  UNL     1      27.236  -1.990  52.644  1.00  0.00     0.048 C 
HETATM   31  C16 UNL     1      25.703  -0.082  52.105  1.00  0.00     0.027 A 
ENDBRANCH   1  24
TORSDOF 5
ENDMDL
MODEL 4
REMARK VINA RESULT:      -8.6      4.083      5.398
REMARK  5 active torsions:
REMARK  status: ('A' for Active; 'I' for Inactive)
REMARK    1  A    between atoms: C6_7  and  C7_8 
REMARK       I    between atoms: C7_8  and  N1_10 
REMARK    2  A    between atoms: C8_12  and  C9_13 
REMARK    3  A    between atoms: C12_16  and  S1_17 
REMARK    4  A    between atoms: S1_17  and  N3_18 
REMARK    5  A    between atoms: C15_25  and  N5_26 
ROOT
HETATM    1  C7  UNL     1      26.223   2.072  51.640  1.00  0.00     0.298 C 
HETATM    2  O1  UNL     1      26.956   2.973  51.100  1.00  0.00    -0.265 OA
HETATM    3  N1  UNL     1      24.822   2.026  51.484  1.00  0.00    -0.021 N 
HETATM    4  N2  UNL     1      23.855   1.236  51.914  1.00  0.00    -0.128 NA
HETATM    5  C8  UNL     1      22.652   1.597  51.496  1.00  0.00     0.202 A 
HETATM    6  N4  UNL     1      22.853   2.686  50.749  1.00  0.00    -0.041 NA
HETATM    7  C15 UNL     1      24.165   2.956  50.734  1.00  0.00     0.726 A 
ENDROOT
BRANCH   5   8
HETATM    8  C9  UNL     1      21.382   0.949  51.786  1.00  0.00     0.053 A 
HETATM    9  C10 UNL     1      20.423   0.808  50.833  1.00  0.00     0.020 A 
HETATM   10  C11 UNL     1      19.192   0.200  51.047  1.00  0.00     0.026 A 
HETATM   11  C12 UNL     1      18.974  -0.278  52.328  1.00  0.00     0.077 A 
HETATM   12  C13 UNL     1      19.933  -0.150  53.322  1.00  0.00     0.068 A 
HETATM   13  C14 UNL     1      21.136   0.464  53.051  1.00  0.00     0.132 A 
HETATM   14  F2  UNL     1      22.105   0.611  53.994  1.00  0.00    -0.205 F 
BRANCH  11  15
HETATM   15  S1  UNL     1      17.493  -1.070  52.790  1.00  0.00     0.239 S 
HETATM   16  O2  UNL     1      16.799  -1.607  51.561  1.00  0.00    -0.206 OA
HETATM   17  O3  UNL     1      16.562  -0.092  53.441  1.00  0.00    -0.206 OA
BRANCH  15  18
HETATM   18  N3  UNL     1      17.762  -2.343  53.928  1.00  0.00    -0.225 NA
HETATM   19  H8  UNL     1      18.633  -2.092  54.459  1.00  0.00     0.136 HD
HETATM   20  H9  UNL     1      17.980  -3.225  53.403  1.00  0.00     0.136 HD
ENDBRANCH  15  18
ENDBRANCH  11  15
ENDBRANCH   5   8
BRANCH   7  21
HETATM   21  N5  UNL     1      24.682   4.076  50.009  1.00  0.00    -0.231 N 
HETATM   22  H11 UNL     1      25.381   4.558  50.614  1.00  0.00     0.174 HD
HETATM   23  H12 UNL     1      24.409   4.365  49.038  1.00  0.00     0.174 HD
ENDBRANCH   7  21
BRANCH   1  24
HETATM   24  C6  UNL     1      26.989   1.114  52.424  1.00  0.00     0.073 A 
HETATM   25  C5  UNL     1      27.814   1.542  53.441  1.00  0.00     0.132 A 
HETATM   26  C4  UNL     1      28.566   0.650  54.216  1.00  0.00     0.044 A 
HETATM   27  F1  UNL     1      27.956   2.849  53.763  1.00  0.00    -0.205 F 
HETATM   28  C3  UNL     1      28.507  -0.699  53.986  1.00  0.00     0.010 A 
HETATM   29  C2  UNL     1      27.692  -1.169  52.977  1.00  0.00    -0.061 A 
HETATM   30  C1  UNL     1      27.612  -2.628  52.710  1.00  0.00     0.048 C 
HETATM   31  C16 UNL     1      26.974  -0.251  52.244  1.00  0.00     0.027 A 
ENDBRANCH   1  24
TORSDOF 5
ENDMDL
MODEL 5
REMARK VINA RESULT:      -8.5      4.082      7.888
REMARK  5 active torsions:
REMARK  status: ('A' for Active; 'I' for Inactive)
REMARK    1  A    between atoms: C6_7  and  C7_8 
REMARK       I    between atoms: C7_8  and  N1_10 
REMARK    2  A    between atoms: C8_12  and  C9_13 
REMARK    3  A    between atoms: C12_16  and  S1_17 
REMARK    4  A    between atoms: S1_17  and  N3_18 
REMARK    5  A    between atoms: C15_25  and  N5_26 
ROOT
HETATM    1  C7  UNL     1      19.978   0.341  51.983  1.00  0.00     0.298 C 
HETATM    2  O1  UNL     1      18.915  -0.299  52.301  1.00  0.00    -0.265 OA
HETATM    3  N1  UNL     1      21.216   0.147  52.631  1.00  0.00    -0.021 N 
HETATM    4  N2  UNL     1      22.429   0.653  52.510  1.00  0.00    -0.128 NA
HETATM    5  C8  UNL     1      23.301   0.148  53.368  1.00  0.00     0.202 A 
HETATM    6  N4  UNL     1      22.610  -0.741  54.087  1.00  0.00    -0.041 NA
HETATM    7  C15 UNL     1      21.345  -0.751  53.650  1.00  0.00     0.726 A 
ENDROOT
BRANCH   5   8
HETATM    8  C9  UNL     1      24.710   0.485  53.501  1.00  0.00     0.053 A 
HETATM    9  C10 UNL     1      25.662  -0.476  53.630  1.00  0.00     0.020 A 
HETATM   10  C11 UNL     1      27.021  -0.220  53.760  1.00  0.00     0.026 A 
HETATM   11  C12 UNL     1      27.381   1.118  53.753  1.00  0.00     0.077 A 
HETATM   12  C13 UNL     1      26.435   2.123  53.623  1.00  0.00     0.068 A 
HETATM   13  C14 UNL     1      25.099   1.807  53.497  1.00  0.00     0.132 A 
HETATM   14  F2  UNL     1      24.137   2.757  53.367  1.00  0.00    -0.205 F 
BRANCH  11  15
HETATM   15  S1  UNL     1      29.036   1.640  53.906  1.00  0.00     0.239 S 
HETATM   16  O2  UNL     1      29.320   2.015  55.341  1.00  0.00    -0.206 OA
HETATM   17  O3  UNL     1      29.274   2.860  53.067  1.00  0.00    -0.206 OA
BRANCH  15  18
HETATM   18  N3  UNL     1      30.153   0.435  53.371  1.00  0.00    -0.225 NA
HETATM   19  H8  UNL     1      30.169   0.485  52.321  1.00  0.00     0.136 HD
HETATM   20  H9  UNL     1      29.772  -0.511  53.614  1.00  0.00     0.136 HD
ENDBRANCH  15  18
ENDBRANCH  11  15
ENDBRANCH   5   8
BRANCH   7  21
HETATM   21  N5  UNL     1      20.365  -1.612  54.238  1.00  0.00    -0.231 N 
HETATM   22  H11 UNL     1      20.701  -1.882  55.188  1.00  0.00     0.174 HD
HETATM   23  H12 UNL     1      19.466  -1.921  53.797  1.00  0.00     0.174 HD
ENDBRANCH   7  21
BRANCH   1  24
HETATM   24  C6  UNL     1      19.768   1.280  50.890  1.00  0.00     0.073 A 
HETATM   25  C5  UNL     1      20.486   1.166  49.720  1.00  0.00     0.132 A 
HETATM   26  C4  UNL     1      20.311   2.050  48.649  1.00  0.00     0.044 A 
HETATM   27  F1  UNL     1      21.407   0.194  49.523  1.00  0.00    -0.205 F 
HETATM   28  C3  UNL     1      19.407   3.076  48.729  1.00  0.00     0.010 A 
HETATM   29  C2  UNL     1      18.667   3.225  49.883  1.00  0.00    -0.061 A 
HETATM   30  C1  UNL     1      17.680   4.331  49.991  1.00  0.00     0.048 C 
HETATM   31  C16 UNL     1      18.877   2.330  50.907  1.00  0.00     0.027 A 
ENDBRANCH   1  24
TORSDOF 5
ENDMDL
MODEL 6
REMARK VINA RESULT:      -8.4      3.604      4.395
REMARK  5 active torsions:
REMARK  status: ('A' for Active; 'I' for Inactive)
REMARK    1  A    between atoms: C6_7  and  C7_8 
REMARK       I    between atoms: C7_8  and  N1_10 
REMARK    2  A    between atoms: C8_12  and  C9_13 
REMARK    3  A    between atoms: C12_16  and  S1_17 
REMARK    4  A    between atoms: S1_17  and  N3_18 
REMARK    5  A    between atoms: C15_25  and  N5_26 
ROOT
HETATM    1  C7  UNL     1      25.209   0.504  52.604  1.00  0.00     0.298 C 
HETATM    2  O1  UNL     1      24.310  -0.361  52.894  1.00  0.00    -0.265 OA
HETATM    3  N1  UNL     1      24.955   1.641  51.810  1.00  0.00    -0.021 N 
HETATM    4  N2  UNL     1      25.672   2.659  51.371  1.00  0.00    -0.128 NA
HETATM    5  C8  UNL     1      24.982   3.513  50.632  1.00  0.00     0.202 A 
HETATM    6  N4  UNL     1      23.742   3.017  50.590  1.00  0.00    -0.041 NA
HETATM    7  C15 UNL     1      23.713   1.883  51.301  1.00  0.00     0.726 A 
ENDROOT
BRANCH   5   8
HETATM    8  C9  UNL     1      25.466   4.730  49.999  1.00  0.00     0.053 A 
HETATM    9  C10 UNL     1      24.857   5.928  50.203  1.00  0.00     0.020 A 
HETATM   10  C11 UNL     1      25.270   7.124  49.629  1.00  0.00     0.026 A 
HETATM   11  C12 UNL     1      26.378   7.040  48.803  1.00  0.00     0.077 A 
HETATM   12  C13 UNL     1      27.022   5.834  48.574  1.00  0.00     0.068 A 
HETATM   13  C14 UNL     1      26.566   4.679  49.171  1.00  0.00     0.132 A 
HETATM   14  F2  UNL     1      27.165   3.474  48.976  1.00  0.00    -0.205 F 
BRANCH  11  15
HETATM   15  S1  UNL     1      27.046   8.430  47.992  1.00  0.00     0.239 S 
HETATM   16  O2  UNL     1      26.437   9.691  48.560  1.00  0.00    -0.206 OA
HETATM   17  O3  UNL     1      26.712   8.389  46.531  1.00  0.00    -0.206 OA
BRANCH  15  18
HETATM   18  N3  UNL     1      28.768   8.491  48.113  1.00  0.00    -0.225 NA
HETATM   19  H8  UNL     1      29.008   8.252  49.108  1.00  0.00     0.136 HD
HETATM   20  H9  UNL     1      29.083   9.480  47.965  1.00  0.00     0.136 HD
ENDBRANCH  15  18
ENDBRANCH  11  15
ENDBRANCH   5   8
BRANCH   7  21
HETATM   21  N5  UNL     1      22.507   1.124  51.435  1.00  0.00    -0.231 N 
HETATM   22  H11 UNL     1      22.689   0.344  52.104  1.00  0.00     0.174 HD
HETATM   23  H12 UNL     1      21.597   1.314  50.950  1.00  0.00     0.174 HD
ENDBRANCH   7  21
BRANCH   1  24
HETATM   24  C6  UNL     1      26.508   0.184  53.180  1.00  0.00     0.073 A 
HETATM   25  C5  UNL     1      27.109   1.042  54.074  1.00  0.00     0.132 A 
HETATM   26  C4  UNL     1      28.357   0.768  54.647  1.00  0.00     0.044 A 
HETATM   27  F1  UNL     1      26.538   2.207  54.460  1.00  0.00    -0.205 F 
HETATM   28  C3  UNL     1      29.034  -0.380  54.332  1.00  0.00     0.010 A 
HETATM   29  C2  UNL     1      28.466  -1.267  53.441  1.00  0.00    -0.061 A 
HETATM   30  C1  UNL     1      29.184  -2.520  53.087  1.00  0.00     0.048 C 
HETATM   31  C16 UNL     1      27.238  -0.951  52.906  1.00  0.00     0.027 A 
ENDBRANCH   1  24
TORSDOF 5
ENDMDL
MODEL 7
REMARK VINA RESULT:      -8.2      3.304      5.145
REMARK  5 active torsions:
REMARK  status: ('A' for Active; 'I' for Inactive)
REMARK    1  A    between atoms: C6_7  and  C7_8 
REMARK       I    between atoms: C7_8  and  N1_10 
REMARK    2  A    between atoms: C8_12  and  C9_13 
REMARK    3  A    between atoms: C12_16  and  S1_17 
REMARK    4  A    between atoms: S1_17  and  N3_18 
REMARK    5  A    between atoms: C15_25  and  N5_26 
ROOT
HETATM    1  C7  UNL     1      24.902  -0.232  53.308  1.00  0.00     0.298 C 
HETATM    2  O1  UNL     1      25.559  -1.145  53.920  1.00  0.00    -0.265 OA
HETATM    3  N1  UNL     1      25.520   0.797  52.568  1.00  0.00    -0.021 N 
HETATM    4  N2  UNL     1      25.099   1.830  51.863  1.00  0.00    -0.128 NA
HETATM    5  C8  UNL     1      26.080   2.543  51.330  1.00  0.00     0.202 A 
HETATM    6  N4  UNL     1      27.204   1.932  51.714  1.00  0.00    -0.041 NA
HETATM    7  C15 UNL     1      26.878   0.872  52.465  1.00  0.00     0.726 A 
ENDROOT
BRANCH   5   8
HETATM    8  C9  UNL     1      25.962   3.734  50.504  1.00  0.00     0.053 A 
HETATM    9  C10 UNL     1      26.861   4.011  49.523  1.00  0.00     0.020 A 
HETATM   10  C11 UNL     1      26.803   5.130  48.702  1.00  0.00     0.026 A 
HETATM   11  C12 UNL     1      25.743   5.991  48.936  1.00  0.00     0.077 A 
HETATM   12  C13 UNL     1      24.809   5.738  49.929  1.00  0.00     0.068 A 
HETATM   13  C14 UNL     1      24.919   4.610  50.714  1.00  0.00     0.132 A 
HETATM   14  F2  UNL     1      24.027   4.321  51.698  1.00  0.00    -0.205 F 
BRANCH  11  15
HETATM   15  S1  UNL     1      25.501   7.447  48.011  1.00  0.00     0.239 S 
HETATM   16  O2  UNL     1      26.726   7.727  47.173  1.00  0.00    -0.206 OA
HETATM   17  O3  UNL     1      25.306   8.618  48.927  1.00  0.00    -0.206 OA
BRANCH  15  18
HETATM   18  N3  UNL     1      24.099   7.356  47.006  1.00  0.00    -0.225 NA
HETATM   19  H8  UNL     1      24.349   7.821  46.097  1.00  0.00     0.136 HD
HETATM   20  H9  UNL     1      23.338   7.937  47.433  1.00  0.00     0.136 HD
ENDBRANCH  15  18
ENDBRANCH  11  15
ENDBRANCH   5   8
BRANCH   7  21
HETATM   21  N5  UNL     1      27.886   0.021  53.020  1.00  0.00    -0.231 N 
HETATM   22  H11 UNL     1      27.408  -0.772  53.502  1.00  0.00     0.174 HD
HETATM   23  H12 UNL     1      28.923   0.164  52.957  1.00  0.00     0.174 HD
ENDBRANCH   7  21
BRANCH   1  24
HETATM   24  C6  UNL     1      23.460  -0.373  53.461  1.00  0.00     0.073 A 
HETATM   25  C5  UNL     1      22.927  -0.908  54.613  1.00  0.00     0.132 A 
HETATM   26  C4  UNL     1      21.547  -1.060  54.795  1.00  0.00     0.044 A 
HETATM   27  F1  UNL     1      23.696  -1.323  55.647  1.00  0.00    -0.205 F 
HETATM   28  C3  UNL     1      20.666  -0.677  53.819  1.00  0.00     0.010 A 
HETATM   29  C2  UNL     1      21.159  -0.136  52.650  1.00  0.00    -0.061 A 
HETATM   30  C1  UNL     1      20.220   0.287  51.578  1.00  0.00     0.048 C 
HETATM   31  C16 UNL     1      22.523  -0.008  52.520  1.00  0.00     0.027 A 
ENDBRANCH   1  24
TORSDOF 5
ENDMDL
MODEL 8
REMARK VINA RESULT:      -8.2      5.046      8.378
REMARK  5 active torsions:
REMARK  status: ('A' for Active; 'I' for Inactive)
REMARK    1  A    between atoms: C6_7  and  C7_8 
REMARK       I    between atoms: C7_8  and  N1_10 
REMARK    2  A    between atoms: C8_12  and  C9_13 
REMARK    3  A    between atoms: C12_16  and  S1_17 
REMARK    4  A    between atoms: S1_17  and  N3_18 
REMARK    5  A    between atoms: C15_25  and  N5_26 
ROOT
HETATM    1  C7  UNL     1      25.537   6.810  48.503  1.00  0.00     0.298 C 
HETATM    2  O1  UNL     1      24.746   7.405  47.690  1.00  0.00    -0.265 OA
HETATM    3  N1  UNL     1      25.207   5.604  49.155  1.00  0.00    -0.021 N 
HETATM    4  N2  UNL     1      25.812   4.803  50.012  1.00  0.00    -0.128 NA
HETATM    5  C8  UNL     1      25.088   3.750  50.355  1.00  0.00     0.202 A 
HETATM    6  N4  UNL     1      23.944   3.877  49.678  1.00  0.00    -0.041 NA
HETATM    7  C15 UNL     1      24.003   4.996  48.946  1.00  0.00     0.726 A 
ENDROOT
BRANCH   5   8
HETATM    8  C9  UNL     1      25.455   2.683  51.273  1.00  0.00     0.053 A 
HETATM    9  C10 UNL     1      26.401   1.761  50.949  1.00  0.00     0.020 A 
HETATM   10  C11 UNL     1      26.795   0.720  51.780  1.00  0.00     0.026 A 
HETATM   11  C12 UNL     1      26.155   0.657  53.007  1.00  0.00     0.077 A 
HETATM   12  C13 UNL     1      25.187   1.582  53.367  1.00  0.00     0.068 A 
HETATM   13  C14 UNL     1      24.836   2.594  52.500  1.00  0.00     0.132 A 
HETATM   14  F2  UNL     1      23.893   3.522  52.811  1.00  0.00    -0.205 F 
BRANCH  11  15
HETATM   15  S1  UNL     1      26.513  -0.576  54.184  1.00  0.00     0.239 S 
HETATM   16  O2  UNL     1      27.643  -0.116  55.075  1.00  0.00    -0.206 OA
HETATM   17  O3  UNL     1      26.962  -1.832  53.500  1.00  0.00    -0.206 OA
BRANCH  15  18
HETATM   18  N3  UNL     1      25.132  -0.988  55.137  1.00  0.00    -0.225 NA
HETATM   19  H8  UNL     1      25.089  -0.290  55.922  1.00  0.00     0.136 HD
HETATM   20  H9  UNL     1      25.296  -1.923  55.584  1.00  0.00     0.136 HD
ENDBRANCH  15  18
ENDBRANCH  11  15
ENDBRANCH   5   8
BRANCH   7  21
HETATM   21  N5  UNL     1      22.912   5.394  48.111  1.00  0.00    -0.231 N 
HETATM   22  H11 UNL     1      22.128   5.701  48.727  1.00  0.00     0.174 HD
HETATM   23  H12 UNL     1      22.897   5.382  47.062  1.00  0.00     0.174 HD
ENDBRANCH   7  21
BRANCH   1  24
HETATM   24  C6  UNL     1      26.800   7.513  48.679  1.00  0.00     0.073 A 
HETATM   25  C5  UNL     1      26.897   8.574  49.553  1.00  0.00     0.132 A 
HETATM   26  C4  UNL     1      28.094   9.273  49.747  1.00  0.00     0.044 A 
HETATM   27  F1  UNL     1      25.846   9.013  50.283  1.00  0.00    -0.205 F 
HETATM   28  C3  UNL     1      29.228   8.922  49.064  1.00  0.00     0.010 A 
HETATM   29  C2  UNL     1      29.174   7.865  48.179  1.00  0.00    -0.061 A 
HETATM   30  C1  UNL     1      30.393   7.467  47.428  1.00  0.00     0.048 C 
HETATM   31  C16 UNL     1      27.973   7.211  48.024  1.00  0.00     0.027 A 
ENDBRANCH   1  24
TORSDOF 5
ENDMDL
MODEL 9
REMARK VINA RESULT:      -8.2      4.433      5.912
REMARK  5 active torsions:
REMARK  status: ('A' for Active; 'I' for Inactive)
REMARK    1  A    between atoms: C6_7  and  C7_8 
REMARK       I    between atoms: C7_8  and  N1_10 
REMARK    2  A    between atoms: C8_12  and  C9_13 
REMARK    3  A    between atoms: C12_16  and  S1_17 
REMARK    4  A    between atoms: S1_17  and  N3_18 
REMARK    5  A    between atoms: C15_25  and  N5_26 
ROOT
HETATM    1  C7  UNL     1      24.599   0.201  53.844  1.00  0.00     0.298 C 
HETATM    2  O1  UNL     1      25.569  -0.112  54.619  1.00  0.00    -0.265 OA
HETATM    3  N1  UNL     1      23.298  -0.322  53.990  1.00  0.00    -0.021 N 
HETATM    4  N2  UNL     1      22.150  -0.176  53.355  1.00  0.00    -0.128 NA
HETATM    5  C8  UNL     1      21.165  -0.894  53.869  1.00  0.00     0.202 A 
HETATM    6  N4  UNL     1      21.708  -1.545  54.901  1.00  0.00    -0.041 NA
HETATM    7  C15 UNL     1      23.001  -1.207  54.985  1.00  0.00     0.726 A 
ENDROOT
BRANCH   5   8
HETATM    8  C9  UNL     1      19.785  -0.962  53.412  1.00  0.00     0.053 A 
HETATM    9  C10 UNL     1      18.946  -1.946  53.829  1.00  0.00     0.020 A 
HETATM   10  C11 UNL     1      17.621  -2.066  53.430  1.00  0.00     0.026 A 
HETATM   11  C12 UNL     1      17.171  -1.097  52.548  1.00  0.00     0.077 A 
HETATM   12  C13 UNL     1      18.002  -0.079  52.104  1.00  0.00     0.068 A 
HETATM   13  C14 UNL     1      19.309  -0.012  52.535  1.00  0.00     0.132 A 
HETATM   14  F2  UNL     1      20.160   0.966  52.126  1.00  0.00    -0.205 F 
BRANCH  11  15
HETATM   15  S1  UNL     1      15.541  -1.077  51.934  1.00  0.00     0.239 S 
HETATM   16  O2  UNL     1      15.556  -1.332  50.445  1.00  0.00    -0.206 OA
HETATM   17  O3  UNL     1      14.920   0.270  52.153  1.00  0.00    -0.206 OA
BRANCH  15  18
HETATM   18  N3  UNL     1      14.530  -2.232  52.727  1.00  0.00    -0.225 NA
HETATM   19  H8  UNL     1      14.487  -3.074  52.100  1.00  0.00     0.136 HD
HETATM   20  H9  UNL     1      13.554  -1.851  52.776  1.00  0.00     0.136 HD
ENDBRANCH  15  18
ENDBRANCH  11  15
ENDBRANCH   5   8
BRANCH   7  21
HETATM   21  N5  UNL     1      23.845  -1.753  56.003  1.00  0.00    -0.231 N 
HETATM   22  H11 UNL     1      24.764  -1.987  55.570  1.00  0.00     0.174 HD
HETATM   23  H12 UNL     1      23.589  -1.895  57.010  1.00  0.00     0.174 HD
ENDBRANCH   7  21
BRANCH   1  24
HETATM   24  C6  UNL     1      24.987   1.147  52.807  1.00  0.00     0.073 A 
HETATM   25  C5  UNL     1      26.052   0.878  51.975  1.00  0.00     0.132 A 
HETATM   26  C4  UNL     1      26.453   1.764  50.968  1.00  0.00     0.044 A 
HETATM   27  F1  UNL     1      26.782  -0.257  52.072  1.00  0.00    -0.205 F 
HETATM   28  C3  UNL     1      25.792   2.947  50.772  1.00  0.00     0.010 A 
HETATM   29  C2  UNL     1      24.720   3.255  51.583  1.00  0.00    -0.061 A 
HETATM   30  C1  UNL     1      23.987   4.533  51.387  1.00  0.00     0.048 C 
HETATM   31  C16 UNL     1      24.365   2.350  52.559  1.00  0.00     0.027 A 
ENDBRANCH   1  24
TORSDOF 5
ENDMDL
