MODEL 1
REMARK VINA RESULT:      -8.0      0.000      0.000
REMARK  4 active torsions:
REMARK  status: ('A' for Active; 'I' for Inactive)
REMARK    1  A    between atoms: C2_2  and  C3_3 
REMARK    2  A    between atoms: C5_6  and  C6_7 
REMARK    3  A    between atoms: C7_8  and  C8_9 
REMARK    4  A    between atoms: C17_19  and  O1_20 
ROOT
HETATM    1  C6  UNL     1      23.996   0.326  53.692  1.00  0.00     0.033 C 
HETATM    2  C7  UNL     1      24.908   0.508  52.762  1.00  0.00     0.016 C 
ENDROOT
BRANCH   1   3
HETATM    3  C5  UNL     1      22.573   0.091  53.366  1.00  0.00     0.068 A 
HETATM    4  N1  UNL     1      21.779   0.501  52.242  1.00  0.00    -0.352 N 
HETATM    5  C4  UNL     1      20.634  -0.130  52.746  1.00  0.00     0.064 A 
HETATM    6  H7  UNL     1      21.950   1.057  51.365  1.00  0.00     0.166 HD
HETATM    7  C3  UNL     1      19.372  -0.291  52.374  1.00  0.00     0.005 C 
HETATM    8  C17 UNL     1      21.498  -0.507  53.848  1.00  0.00     0.119 A 
BRANCH   7   9
HETATM    9  C2  UNL     1      18.433  -1.059  53.223  1.00  0.00     0.025 C 
HETATM   10  C1  UNL     1      17.010  -1.027  52.709  1.00  0.00     0.009 C 
ENDBRANCH   7   9
BRANCH   8  11
HETATM   11  O1  UNL     1      21.298  -1.237  55.014  1.00  0.00    -0.356 OA
HETATM   12  H16 UNL     1      20.367  -1.358  55.359  1.00  0.00     0.218 HD
ENDBRANCH   8  11
ENDBRANCH   1   3
BRANCH   2  13
HETATM   13  C8  UNL     1      26.315   0.742  53.065  1.00  0.00    -0.006 A 
HETATM   14  C9  UNL     1      26.818   1.990  53.353  1.00  0.00     0.014 A 
HETATM   15  C10 UNL     1      28.149   2.214  53.639  1.00  0.00     0.002 A 
HETATM   16  C11 UNL     1      29.037   1.154  53.643  1.00  0.00     0.014 A 
HETATM   17  C12 UNL     1      28.549  -0.118  53.354  1.00  0.00    -0.006 A 
HETATM   18  C13 UNL     1      29.401  -1.206  53.347  1.00  0.00     0.015 A 
HETATM   19  C16 UNL     1      27.207  -0.284  53.074  1.00  0.00     0.076 A 
HETATM   20  C14 UNL     1      28.945  -2.476  53.062  1.00  0.00     0.020 A 
HETATM   21  C15 UNL     1      27.588  -2.565  52.793  1.00  0.00     0.117 A 
HETATM   22  N2  UNL     1      26.732  -1.523  52.791  1.00  0.00    -0.259 NA
ENDBRANCH   2  13
TORSDOF 4
ENDMDL
MODEL 2
REMARK VINA RESULT:      -8.0      2.270      7.847
REMARK  4 active torsions:
REMARK  status: ('A' for Active; 'I' for Inactive)
REMARK    1  A    between atoms: C2_2  and  C3_3 
REMARK    2  A    between atoms: C5_6  and  C6_7 
REMARK    3  A    between atoms: C7_8  and  C8_9 
REMARK    4  A    between atoms: C17_19  and  O1_20 
ROOT
HETATM    1  C6  UNL     1      23.861  -0.568  53.678  1.00  0.00     0.033 C 
HETATM    2  C7  UNL     1      23.127   0.337  53.067  1.00  0.00     0.016 C 
ENDROOT
BRANCH   1   3
HETATM    3  C5  UNL     1      25.297  -0.362  53.958  1.00  0.00     0.068 A 
HETATM    4  N1  UNL     1      26.010  -0.222  55.197  1.00  0.00    -0.352 N 
HETATM    5  C4  UNL     1      27.239  -0.076  54.540  1.00  0.00     0.064 A 
HETATM    6  H7  UNL     1      25.750  -0.223  56.215  1.00  0.00     0.166 HD
HETATM    7  C3  UNL     1      28.506   0.109  54.883  1.00  0.00     0.005 C 
HETATM    8  C17 UNL     1      26.453  -0.225  53.331  1.00  0.00     0.119 A 
BRANCH   7   9
HETATM    9  C2  UNL     1      29.555   0.218  53.844  1.00  0.00     0.025 C 
HETATM   10  C1  UNL     1      30.050  -1.129  53.361  1.00  0.00     0.009 C 
ENDBRANCH   7   9
BRANCH   8  11
HETATM   11  O1  UNL     1      26.769  -0.228  51.977  1.00  0.00    -0.356 OA
HETATM   12  H16 UNL     1      26.079  -0.526  51.317  1.00  0.00     0.218 HD
ENDBRANCH   8  11
ENDBRANCH   1   3
BRANCH   2  13
HETATM   13  C8  UNL     1      21.710   0.150  52.782  1.00  0.00    -0.006 A 
HETATM   14  C9  UNL     1      20.847  -0.464  53.661  1.00  0.00     0.014 A 
HETATM   15  C10 UNL     1      19.506  -0.642  53.394  1.00  0.00     0.002 A 
HETATM   16  C11 UNL     1      18.979  -0.192  52.197  1.00  0.00     0.014 A 
HETATM   17  C12 UNL     1      19.834   0.432  51.292  1.00  0.00    -0.006 A 
HETATM   18  C13 UNL     1      19.352   0.896  50.084  1.00  0.00     0.015 A 
HETATM   19  C16 UNL     1      21.170   0.583  51.612  1.00  0.00     0.076 A 
HETATM   20  C14 UNL     1      20.176   1.517  49.169  1.00  0.00     0.020 A 
HETATM   21  C15 UNL     1      21.501   1.633  49.559  1.00  0.00     0.117 A 
HETATM   22  N2  UNL     1      22.003   1.190  50.730  1.00  0.00    -0.259 NA
ENDBRANCH   2  13
TORSDOF 4
ENDMDL
MODEL 3
REMARK VINA RESULT:      -7.9      3.940      7.846
REMARK  4 active torsions:
REMARK  status: ('A' for Active; 'I' for Inactive)
REMARK    1  A    between atoms: C2_2  and  C3_3 
REMARK    2  A    between atoms: C5_6  and  C6_7 
REMARK    3  A    between atoms: C7_8  and  C8_9 
REMARK    4  A    between atoms: C17_19  and  O1_20 
ROOT
HETATM    1  C6  UNL     1      24.159   2.095  52.156  1.00  0.00     0.033 C 
HETATM    2  C7  UNL     1      23.335   1.139  51.785  1.00  0.00     0.016 C 
ENDROOT
BRANCH   1   3
HETATM    3  C5  UNL     1      24.879   2.939  51.178  1.00  0.00     0.068 A 
HETATM    4  N1  UNL     1      24.399   3.754  50.097  1.00  0.00    -0.352 N 
HETATM    5  C4  UNL     1      25.696   4.153  49.747  1.00  0.00     0.064 A 
HETATM    6  H7  UNL     1      23.456   3.986  49.695  1.00  0.00     0.166 HD
HETATM    7  C3  UNL     1      26.257   4.933  48.833  1.00  0.00     0.005 C 
HETATM    8  C17 UNL     1      26.105   3.311  50.854  1.00  0.00     0.119 A 
BRANCH   7   9
HETATM    9  C2  UNL     1      27.727   5.101  48.793  1.00  0.00     0.025 C 
HETATM   10  C1  UNL     1      28.157   6.380  48.105  1.00  0.00     0.009 C 
ENDBRANCH   7   9
BRANCH   8  11
HETATM   11  O1  UNL     1      27.339   2.987  51.405  1.00  0.00    -0.356 OA
HETATM   12  H16 UNL     1      27.382   2.690  52.360  1.00  0.00     0.218 HD
ENDBRANCH   8  11
ENDBRANCH   1   3
BRANCH   2  13
HETATM   13  C8  UNL     1      22.618   0.297  52.735  1.00  0.00    -0.006 A 
HETATM   14  C9  UNL     1      23.235  -0.322  53.798  1.00  0.00     0.014 A 
HETATM   15  C10 UNL     1      22.559  -1.119  54.697  1.00  0.00     0.002 A 
HETATM   16  C11 UNL     1      21.199  -1.322  54.546  1.00  0.00     0.014 A 
HETATM   17  C12 UNL     1      20.553  -0.706  53.477  1.00  0.00    -0.006 A 
HETATM   18  C13 UNL     1      19.197  -0.882  53.288  1.00  0.00     0.015 A 
HETATM   19  C16 UNL     1      21.281   0.082  52.606  1.00  0.00     0.076 A 
HETATM   20  C14 UNL     1      18.533  -0.284  52.236  1.00  0.00     0.020 A 
HETATM   21  C15 UNL     1      19.327   0.491  51.407  1.00  0.00     0.117 A 
HETATM   22  N2  UNL     1      20.653   0.681  51.564  1.00  0.00    -0.259 NA
ENDBRANCH   2  13
TORSDOF 4
ENDMDL
MODEL 4
REMARK VINA RESULT:      -7.7      3.928      7.229
REMARK  4 active torsions:
REMARK  status: ('A' for Active; 'I' for Inactive)
REMARK    1  A    between atoms: C2_2  and  C3_3 
REMARK    2  A    between atoms: C5_6  and  C6_7 
REMARK    3  A    between atoms: C7_8  and  C8_9 
REMARK    4  A    between atoms: C17_19  and  O1_20 
ROOT
HETATM    1  C6  UNL     1      23.845   2.839  51.558  1.00  0.00     0.033 C 
HETATM    2  C7  UNL     1      23.751   1.527  51.538  1.00  0.00     0.016 C 
ENDROOT
BRANCH   1   3
HETATM    3  C5  UNL     1      24.777   3.576  50.679  1.00  0.00     0.068 A 
HETATM    4  N1  UNL     1      24.537   4.525  49.629  1.00  0.00    -0.352 N 
HETATM    5  C4  UNL     1      25.907   4.682  49.378  1.00  0.00     0.064 A 
HETATM    6  H7  UNL     1      23.685   4.958  49.190  1.00  0.00     0.166 HD
HETATM    7  C3  UNL     1      26.667   5.384  48.550  1.00  0.00     0.005 C 
HETATM    8  C17 UNL     1      26.071   3.719  50.449  1.00  0.00     0.119 A 
BRANCH   7   9
HETATM    9  C2  UNL     1      28.142   5.264  48.603  1.00  0.00     0.025 C 
HETATM   10  C1  UNL     1      28.854   6.505  48.107  1.00  0.00     0.009 C 
ENDBRANCH   7   9
BRANCH   8  11
HETATM   11  O1  UNL     1      27.180   3.132  51.047  1.00  0.00    -0.356 OA
HETATM   12  H16 UNL     1      28.095   3.379  50.724  1.00  0.00     0.218 HD
ENDBRANCH   8  11
ENDBRANCH   1   3
BRANCH   2  13
HETATM   13  C8  UNL     1      22.839   0.783  52.397  1.00  0.00    -0.006 A 
HETATM   14  C9  UNL     1      21.477   0.762  52.199  1.00  0.00     0.014 A 
HETATM   15  C10 UNL     1      20.611   0.059  53.010  1.00  0.00     0.002 A 
HETATM   16  C11 UNL     1      21.109  -0.666  54.078  1.00  0.00     0.014 A 
HETATM   17  C12 UNL     1      22.484  -0.659  54.299  1.00  0.00    -0.006 A 
HETATM   18  C13 UNL     1      23.024  -1.368  55.353  1.00  0.00     0.015 A 
HETATM   19  C16 UNL     1      23.304   0.064  53.453  1.00  0.00     0.076 A 
HETATM   20  C14 UNL     1      24.382  -1.378  55.595  1.00  0.00     0.020 A 
HETATM   21  C15 UNL     1      25.141  -0.632  54.706  1.00  0.00     0.117 A 
HETATM   22  N2  UNL     1      24.644   0.071  53.668  1.00  0.00    -0.259 NA
ENDBRANCH   2  13
TORSDOF 4
ENDMDL
MODEL 5
REMARK VINA RESULT:      -7.6      5.015      7.811
REMARK  4 active torsions:
REMARK  status: ('A' for Active; 'I' for Inactive)
REMARK    1  A    between atoms: C2_2  and  C3_3 
REMARK    2  A    between atoms: C5_6  and  C6_7 
REMARK    3  A    between atoms: C7_8  and  C8_9 
REMARK    4  A    between atoms: C17_19  and  O1_20 
ROOT
HETATM    1  C6  UNL     1      26.442   2.953  50.009  1.00  0.00     0.033 C 
HETATM    2  C7  UNL     1      26.023   2.794  51.245  1.00  0.00     0.016 C 
ENDROOT
BRANCH   1   3
HETATM    3  C5  UNL     1      26.525   4.283  49.369  1.00  0.00     0.068 A 
HETATM    4  N1  UNL     1      25.500   5.190  48.935  1.00  0.00    -0.352 N 
HETATM    5  C4  UNL     1      26.438   6.126  48.483  1.00  0.00     0.064 A 
HETATM    6  H7  UNL     1      24.448   5.189  48.937  1.00  0.00     0.166 HD
HETATM    7  C3  UNL     1      26.418   7.321  47.908  1.00  0.00     0.005 C 
HETATM    8  C17 UNL     1      27.417   5.161  48.945  1.00  0.00     0.119 A 
BRANCH   7   9
HETATM    9  C2  UNL     1      27.683   8.013  47.573  1.00  0.00     0.025 C 
HETATM   10  C1  UNL     1      28.268   8.774  48.744  1.00  0.00     0.009 C 
ENDBRANCH   7   9
BRANCH   8  11
HETATM   11  O1  UNL     1      28.807   5.136  48.954  1.00  0.00    -0.356 OA
HETATM   12  H16 UNL     1      29.305   5.936  49.291  1.00  0.00     0.218 HD
ENDBRANCH   8  11
ENDBRANCH   1   3
BRANCH   2  13
HETATM   13  C8  UNL     1      25.934   1.490  51.892  1.00  0.00    -0.006 A 
HETATM   14  C9  UNL     1      27.008   0.634  51.997  1.00  0.00     0.014 A 
HETATM   15  C10 UNL     1      26.926  -0.599  52.608  1.00  0.00     0.002 A 
HETATM   16  C11 UNL     1      25.724  -1.018  53.149  1.00  0.00     0.014 A 
HETATM   17  C12 UNL     1      24.625  -0.169  53.055  1.00  0.00    -0.006 A 
HETATM   18  C13 UNL     1      23.405  -0.547  53.580  1.00  0.00     0.015 A 
HETATM   19  C16 UNL     1      24.764   1.056  52.431  1.00  0.00     0.076 A 
HETATM   20  C14 UNL     1      22.300   0.274  53.500  1.00  0.00     0.020 A 
HETATM   21  C15 UNL     1      22.515   1.486  52.862  1.00  0.00     0.117 A 
HETATM   22  N2  UNL     1      23.693   1.883  52.338  1.00  0.00    -0.259 NA
ENDBRANCH   2  13
TORSDOF 4
ENDMDL
MODEL 6
REMARK VINA RESULT:      -7.4      6.407      8.076
REMARK  4 active torsions:
REMARK  status: ('A' for Active; 'I' for Inactive)
REMARK    1  A    between atoms: C2_2  and  C3_3 
REMARK    2  A    between atoms: C5_6  and  C6_7 
REMARK    3  A    between atoms: C7_8  and  C8_9 
REMARK    4  A    between atoms: C17_19  and  O1_20 
ROOT
HETATM    1  C6  UNL     1      26.129   4.686  49.484  1.00  0.00     0.033 C 
HETATM    2  C7  UNL     1      27.373   4.938  49.142  1.00  0.00     0.016 C 
ENDROOT
BRANCH   1   3
HETATM    3  C5  UNL     1      25.765   3.543  50.349  1.00  0.00     0.068 A 
HETATM    4  N1  UNL     1      24.545   2.794  50.464  1.00  0.00    -0.352 N 
HETATM    5  C4  UNL     1      25.080   1.965  51.459  1.00  0.00     0.064 A 
HETATM    6  H7  UNL     1      23.601   2.824  50.003  1.00  0.00     0.166 HD
HETATM    7  C3  UNL     1      24.669   0.941  52.194  1.00  0.00     0.005 C 
HETATM    8  C17 UNL     1      26.277   2.765  51.287  1.00  0.00     0.119 A 
BRANCH   7   9
HETATM    9  C2  UNL     1      25.578   0.313  53.179  1.00  0.00     0.025 C 
HETATM   10  C1  UNL     1      26.504  -0.712  52.560  1.00  0.00     0.009 C 
ENDBRANCH   7   9
BRANCH   8  11
HETATM   11  O1  UNL     1      27.534   2.748  51.880  1.00  0.00    -0.356 OA
HETATM   12  H16 UNL     1      28.032   3.610  51.990  1.00  0.00     0.218 HD
ENDBRANCH   8  11
ENDBRANCH   1   3
BRANCH   2  13
HETATM   13  C8  UNL     1      27.751   6.059  48.290  1.00  0.00    -0.006 A 
HETATM   14  C9  UNL     1      26.857   7.027  47.890  1.00  0.00     0.014 A 
HETATM   15  C10 UNL     1      27.211   8.088  47.084  1.00  0.00     0.002 A 
HETATM   16  C11 UNL     1      28.517   8.209  46.644  1.00  0.00     0.014 A 
HETATM   17  C12 UNL     1      29.439   7.241  47.035  1.00  0.00    -0.006 A 
HETATM   18  C13 UNL     1      30.753   7.321  46.618  1.00  0.00     0.015 A 
HETATM   19  C16 UNL     1      29.028   6.199  47.844  1.00  0.00     0.076 A 
HETATM   20  C14 UNL     1      31.686   6.376  46.990  1.00  0.00     0.020 A 
HETATM   21  C15 UNL     1      31.201   5.362  47.802  1.00  0.00     0.117 A 
HETATM   22  N2  UNL     1      29.925   5.255  48.224  1.00  0.00    -0.259 NA
ENDBRANCH   2  13
TORSDOF 4
ENDMDL
MODEL 7
REMARK VINA RESULT:      -7.4      5.306      7.629
REMARK  4 active torsions:
REMARK  status: ('A' for Active; 'I' for Inactive)
REMARK    1  A    between atoms: C2_2  and  C3_3 
REMARK    2  A    between atoms: C5_6  and  C6_7 
REMARK    3  A    between atoms: C7_8  and  C8_9 
REMARK    4  A    between atoms: C17_19  and  O1_20 
ROOT
HETATM    1  C6  UNL     1      25.634   3.642  50.249  1.00  0.00     0.033 C 
HETATM    2  C7  UNL     1      26.447   3.056  51.101  1.00  0.00     0.016 C 
ENDROOT
BRANCH   1   3
HETATM    3  C5  UNL     1      26.058   4.784  49.411  1.00  0.00     0.068 A 
HETATM    4  N1  UNL     1      25.300   5.829  48.782  1.00  0.00    -0.352 N 
HETATM    5  C4  UNL     1      26.450   6.417  48.240  1.00  0.00     0.064 A 
HETATM    6  H7  UNL     1      24.282   6.087  48.726  1.00  0.00     0.166 HD
HETATM    7  C3  UNL     1      26.739   7.466  47.483  1.00  0.00     0.005 C 
HETATM    8  C17 UNL     1      27.148   5.332  48.904  1.00  0.00     0.119 A 
BRANCH   7   9
HETATM    9  C2  UNL     1      28.142   7.759  47.113  1.00  0.00     0.025 C 
HETATM   10  C1  UNL     1      28.271   8.400  45.748  1.00  0.00     0.009 C 
ENDBRANCH   7   9
BRANCH   8  11
HETATM   11  O1  UNL     1      28.486   4.968  48.994  1.00  0.00    -0.356 OA
HETATM   12  H16 UNL     1      29.167   5.484  48.472  1.00  0.00     0.218 HD
ENDBRANCH   8  11
ENDBRANCH   1   3
BRANCH   2  13
HETATM   13  C8  UNL     1      26.047   1.930  51.935  1.00  0.00    -0.006 A 
HETATM   14  C9  UNL     1      24.786   1.380  51.891  1.00  0.00     0.014 A 
HETATM   15  C10 UNL     1      24.405   0.314  52.679  1.00  0.00     0.002 A 
HETATM   16  C11 UNL     1      25.312  -0.245  53.562  1.00  0.00     0.014 A 
HETATM   17  C12 UNL     1      26.594   0.296  53.623  1.00  0.00    -0.006 A 
HETATM   18  C13 UNL     1      27.531  -0.231  54.490  1.00  0.00     0.015 A 
HETATM   19  C16 UNL     1      26.921   1.364  52.810  1.00  0.00     0.076 A 
HETATM   20  C14 UNL     1      28.808   0.286  54.571  1.00  0.00     0.020 A 
HETATM   21  C15 UNL     1      29.062   1.354  53.726  1.00  0.00     0.117 A 
HETATM   22  N2  UNL     1      28.169   1.891  52.870  1.00  0.00    -0.259 NA
ENDBRANCH   2  13
TORSDOF 4
ENDMDL
MODEL 8
REMARK VINA RESULT:      -7.3      6.394      9.568
REMARK  4 active torsions:
REMARK  status: ('A' for Active; 'I' for Inactive)
REMARK    1  A    between atoms: C2_2  and  C3_3 
REMARK    2  A    between atoms: C5_6  and  C6_7 
REMARK    3  A    between atoms: C7_8  and  C8_9 
REMARK    4  A    between atoms: C17_19  and  O1_20 
ROOT
HETATM    1  C6  UNL     1      26.797   5.410  48.813  1.00  0.00     0.033 C 
HETATM    2  C7  UNL     1      26.882   4.184  49.282  1.00  0.00     0.016 C 
ENDROOT
BRANCH   1   3
HETATM    3  C5  UNL     1      27.965   6.126  48.260  1.00  0.00     0.068 A 
HETATM    4  N1  UNL     1      28.062   7.139  47.247  1.00  0.00    -0.352 N 
HETATM    5  C4  UNL     1      29.455   7.216  47.375  1.00  0.00     0.064 A 
HETATM    6  H7  UNL     1      27.381   7.648  46.628  1.00  0.00     0.166 HD
HETATM    7  C3  UNL     1      30.444   7.906  46.823  1.00  0.00     0.005 C 
HETATM    8  C17 UNL     1      29.279   6.193  48.387  1.00  0.00     0.119 A 
BRANCH   7   9
HETATM    9  C2  UNL     1      31.843   7.686  47.254  1.00  0.00     0.025 C 
HETATM   10  C1  UNL     1      32.222   8.505  48.469  1.00  0.00     0.009 C 
ENDBRANCH   7   9
BRANCH   8  11
HETATM   11  O1  UNL     1      30.158   5.505  49.216  1.00  0.00    -0.356 OA
HETATM   12  H16 UNL     1      30.533   5.969  50.020  1.00  0.00     0.218 HD
ENDBRANCH   8  11
ENDBRANCH   1   3
BRANCH   2  13
HETATM   13  C8  UNL     1      25.741   3.462  49.832  1.00  0.00    -0.006 A 
HETATM   14  C9  UNL     1      24.477   3.542  49.292  1.00  0.00     0.014 A 
HETATM   15  C10 UNL     1      23.396   2.860  49.810  1.00  0.00     0.002 A 
HETATM   16  C11 UNL     1      23.562   2.055  50.922  1.00  0.00     0.014 A 
HETATM   17  C12 UNL     1      24.832   1.960  51.486  1.00  0.00    -0.006 A 
HETATM   18  C13 UNL     1      25.044   1.167  52.597  1.00  0.00     0.015 A 
HETATM   19  C16 UNL     1      25.880   2.665  50.924  1.00  0.00     0.076 A 
HETATM   20  C14 UNL     1      26.291   1.056  53.175  1.00  0.00     0.020 A 
HETATM   21  C15 UNL     1      27.291   1.790  52.558  1.00  0.00     0.117 A 
HETATM   22  N2  UNL     1      27.117   2.573  51.474  1.00  0.00    -0.259 NA
ENDBRANCH   2  13
TORSDOF 4
ENDMDL
MODEL 9
REMARK VINA RESULT:      -7.3      4.832      5.965
REMARK  4 active torsions:
REMARK  status: ('A' for Active; 'I' for Inactive)
REMARK    1  A    between atoms: C2_2  and  C3_3 
REMARK    2  A    between atoms: C5_6  and  C6_7 
REMARK    3  A    between atoms: C7_8  and  C8_9 
REMARK    4  A    between atoms: C17_19  and  O1_20 
ROOT
HETATM    1  C6  UNL     1      23.928   3.884  52.641  1.00  0.00     0.033 C 
HETATM    2  C7  UNL     1      24.726   2.939  52.195  1.00  0.00     0.016 C 
ENDROOT
BRANCH   1   3
HETATM    3  C5  UNL     1      23.704   5.142  51.897  1.00  0.00     0.068 A 
HETATM    4  N1  UNL     1      24.247   6.459  52.081  1.00  0.00    -0.352 N 
HETATM    5  C4  UNL     1      23.524   6.971  50.995  1.00  0.00     0.064 A 
HETATM    6  H7  UNL     1      24.922   6.906  52.751  1.00  0.00     0.166 HD
HETATM    7  C3  UNL     1      23.384   8.141  50.388  1.00  0.00     0.005 C 
HETATM    8  C17 UNL     1      23.019   5.618  50.872  1.00  0.00     0.119 A 
BRANCH   7   9
HETATM    9  C2  UNL     1      22.482   8.277  49.221  1.00  0.00     0.025 C 
HETATM   10  C1  UNL     1      21.054   8.593  49.612  1.00  0.00     0.009 C 
ENDBRANCH   7   9
BRANCH   8  11
HETATM   11  O1  UNL     1      22.129   5.003  49.999  1.00  0.00    -0.356 OA
HETATM   12  H16 UNL     1      21.866   5.479  49.158  1.00  0.00     0.218 HD
ENDBRANCH   8  11
ENDBRANCH   1   3
BRANCH   2  13
HETATM   13  C8  UNL     1      24.960   1.692  52.915  1.00  0.00    -0.006 A 
HETATM   14  C9  UNL     1      23.968   0.765  53.142  1.00  0.00     0.014 A 
HETATM   15  C10 UNL     1      24.186  -0.414  53.822  1.00  0.00     0.002 A 
HETATM   16  C11 UNL     1      25.449  -0.702  54.308  1.00  0.00     0.014 A 
HETATM   17  C12 UNL     1      26.467   0.221  54.090  1.00  0.00    -0.006 A 
HETATM   18  C13 UNL     1      27.743  -0.025  54.557  1.00  0.00     0.015 A 
HETATM   19  C16 UNL     1      26.192   1.387  53.401  1.00  0.00     0.076 A 
HETATM   20  C14 UNL     1      28.771   0.873  54.356  1.00  0.00     0.020 A 
HETATM   21  C15 UNL     1      28.420   2.018  53.658  1.00  0.00     0.117 A 
HETATM   22  N2  UNL     1      27.184   2.288  53.190  1.00  0.00    -0.259 NA
ENDBRANCH   2  13
TORSDOF 4
ENDMDL
