MODEL 1
REMARK VINA RESULT:      -7.8      0.000      0.000
REMARK  8 active torsions:
REMARK  status: ('A' for Active; 'I' for Inactive)
REMARK    1  A    between atoms: N1_1  and  C1_2 
REMARK    2  A    between atoms: C1_2  and  C2_3 
REMARK    3  A    between atoms: C7_8  and  C8_9 
REMARK    4  A    between atoms: C11_12  and  C12_13 
REMARK    5  A    between atoms: C12_13  and  C13_14 
REMARK    6  A    between atoms: C14_15  and  C15_16 
REMARK    7  A    between atoms: C15_16  and  C16_18 
REMARK    8  A    between atoms: C16_18  and  N2_19 
ROOT
HETATM    1  C8  UNL     1      25.524   0.092  53.043  1.00  0.00     0.040 C 
HETATM    2  C9  UNL     1      24.643   0.797  52.360  1.00  0.00     0.039 C 
HETATM    3  C10 UNL     1      23.271   0.338  52.475  1.00  0.00    -0.030 C 
HETATM    4  C11 UNL     1      22.010  -0.037  52.499  1.00  0.00    -0.066 C 
HETATM    5  C17 UNL     1      22.110  -0.842  53.772  1.00  0.00     0.065 C 
HETATM    6  C18 UNL     1      23.407  -0.184  53.895  1.00  0.00     0.119 C 
HETATM    7  N3  UNL     1      24.658  -0.892  53.683  1.00  0.00    -0.380 N 
HETATM    8  H22 UNL     1      24.917  -1.898  53.928  1.00  0.00     0.160 HD
ENDROOT
BRANCH   1   9
HETATM    9  C7  UNL     1      26.954   0.114  53.267  1.00  0.00    -0.002 A 
HETATM   10  C2  UNL     1      27.846  -0.913  53.119  1.00  0.00    -0.018 A 
HETATM   11  C3  UNL     1      29.206  -0.769  53.377  1.00  0.00     0.010 A 
HETATM   12  C4  UNL     1      29.728   0.425  53.799  1.00  0.00     0.001 A 
HETATM   13  C5  UNL     1      28.860   1.468  53.955  1.00  0.00     0.001 A 
HETATM   14  C6  UNL     1      27.540   1.288  53.693  1.00  0.00     0.014 A 
BRANCH  10  15
HETATM   15  C1  UNL     1      27.396  -2.251  52.686  1.00  0.00     0.306 C 
BRANCH  15  16
HETATM   16  N1  UNL     1      28.327  -3.304  53.064  1.00  0.00     0.082 N 
HETATM   17  H1  UNL     1      29.271  -3.201  52.628  1.00  0.00     0.313 HD
HETATM   18  H2  UNL     1      27.922  -4.257  52.869  1.00  0.00     0.313 HD
ENDBRANCH  15  16
ENDBRANCH  10  15
ENDBRANCH   1   9
BRANCH   4  19
HETATM   19  C12 UNL     1      20.877   0.173  51.566  1.00  0.00     0.061 C 
BRANCH  19  20
HETATM   20  C13 UNL     1      21.236   1.194  50.544  1.00  0.00    -0.025 C 
HETATM   21  C14 UNL     1      21.296   1.076  49.229  1.00  0.00    -0.009 C 
BRANCH  21  22
HETATM   22  C15 UNL     1      21.638   2.034  48.166  1.00  0.00     0.132 C 
HETATM   23 CL1  UNL     1      23.196   2.766  48.554  1.00  0.00    -0.119 Cl
BRANCH  22  24
HETATM   24  C16 UNL     1      20.572   3.104  48.002  1.00  0.00     0.290 C 
BRANCH  24  25
HETATM   25  N2  UNL     1      19.339   2.445  47.613  1.00  0.00     0.080 N 
HETATM   26  H17 UNL     1      19.460   1.396  47.729  1.00  0.00     0.312 HD
HETATM   27  H18 UNL     1      18.617   2.715  48.316  1.00  0.00     0.312 HD
ENDBRANCH  24  25
ENDBRANCH  22  24
ENDBRANCH  21  22
ENDBRANCH  19  20
ENDBRANCH   4  19
TORSDOF 8
ENDMDL
MODEL 2
REMARK VINA RESULT:      -7.8      3.120      3.618
REMARK  8 active torsions:
REMARK  status: ('A' for Active; 'I' for Inactive)
REMARK    1  A    between atoms: N1_1  and  C1_2 
REMARK    2  A    between atoms: C1_2  and  C2_3 
REMARK    3  A    between atoms: C7_8  and  C8_9 
REMARK    4  A    between atoms: C11_12  and  C12_13 
REMARK    5  A    between atoms: C12_13  and  C13_14 
REMARK    6  A    between atoms: C14_15  and  C15_16 
REMARK    7  A    between atoms: C15_16  and  C16_18 
REMARK    8  A    between atoms: C16_18  and  N2_19 
ROOT
HETATM    1  C8  UNL     1      26.224   0.400  52.485  1.00  0.00     0.040 C 
HETATM    2  C9  UNL     1      25.858   1.391  51.694  1.00  0.00     0.039 C 
HETATM    3  C10 UNL     1      24.427   1.619  51.621  1.00  0.00    -0.030 C 
HETATM    4  C11 UNL     1      23.143   1.865  51.472  1.00  0.00    -0.066 C 
HETATM    5  C17 UNL     1      22.704   1.176  52.741  1.00  0.00     0.065 C 
HETATM    6  C18 UNL     1      24.131   1.172  53.042  1.00  0.00     0.119 C 
HETATM    7  N3  UNL     1      24.930  -0.041  52.995  1.00  0.00    -0.380 N 
HETATM    8  H22 UNL     1      24.664  -1.038  53.266  1.00  0.00     0.160 HD
ENDROOT
BRANCH   1   9
HETATM    9  C7  UNL     1      27.463  -0.223  52.899  1.00  0.00    -0.002 A 
HETATM   10  C2  UNL     1      28.567   0.377  53.441  1.00  0.00    -0.018 A 
HETATM   11  C3  UNL     1      29.712  -0.334  53.791  1.00  0.00     0.010 A 
HETATM   12  C4  UNL     1      29.791  -1.690  53.607  1.00  0.00     0.001 A 
HETATM   13  C5  UNL     1      28.703  -2.314  53.070  1.00  0.00     0.001 A 
HETATM   14  C6  UNL     1      27.605  -1.585  52.741  1.00  0.00     0.014 A 
BRANCH  10  15
HETATM   15  C1  UNL     1      28.604   1.835  53.667  1.00  0.00     0.306 C 
BRANCH  15  16
HETATM   16  N1  UNL     1      29.680   2.237  54.562  1.00  0.00     0.082 N 
HETATM   17  H1  UNL     1      29.954   1.493  55.242  1.00  0.00     0.313 HD
HETATM   18  H2  UNL     1      29.446   3.137  55.056  1.00  0.00     0.313 HD
ENDBRANCH  15  16
ENDBRANCH  10  15
ENDBRANCH   1   9
BRANCH   4  19
HETATM   19  C12 UNL     1      22.359   2.518  50.396  1.00  0.00     0.061 C 
BRANCH  19  20
HETATM   20  C13 UNL     1      23.134   3.644  49.806  1.00  0.00    -0.025 C 
HETATM   21  C14 UNL     1      23.491   4.791  50.356  1.00  0.00    -0.009 C 
BRANCH  21  22
HETATM   22  C15 UNL     1      24.251   5.939  49.838  1.00  0.00     0.132 C 
HETATM   23 CL1  UNL     1      25.902   5.414  49.503  1.00  0.00    -0.119 Cl
BRANCH  22  24
HETATM   24  C16 UNL     1      24.249   7.106  50.811  1.00  0.00     0.290 C 
BRANCH  24  25
HETATM   25  N2  UNL     1      24.344   6.565  52.154  1.00  0.00     0.080 N 
HETATM   26  H17 UNL     1      24.270   5.506  52.102  1.00  0.00     0.312 HD
HETATM   27  H18 UNL     1      25.314   6.754  52.488  1.00  0.00     0.312 HD
ENDBRANCH  24  25
ENDBRANCH  22  24
ENDBRANCH  21  22
ENDBRANCH  19  20
ENDBRANCH   4  19
TORSDOF 8
ENDMDL
MODEL 3
REMARK VINA RESULT:      -7.5      1.257      1.991
REMARK  8 active torsions:
REMARK  status: ('A' for Active; 'I' for Inactive)
REMARK    1  A    between atoms: N1_1  and  C1_2 
REMARK    2  A    between atoms: C1_2  and  C2_3 
REMARK    3  A    between atoms: C7_8  and  C8_9 
REMARK    4  A    between atoms: C11_12  and  C12_13 
REMARK    5  A    between atoms: C12_13  and  C13_14 
REMARK    6  A    between atoms: C14_15  and  C15_16 
REMARK    7  A    between atoms: C15_16  and  C16_18 
REMARK    8  A    between atoms: C16_18  and  N2_19 
ROOT
HETATM    1  C8  UNL     1      25.776  -0.245  53.092  1.00  0.00     0.040 C 
HETATM    2  C9  UNL     1      24.965   0.530  52.398  1.00  0.00     0.039 C 
HETATM    3  C10 UNL     1      23.553   0.237  52.560  1.00  0.00    -0.030 C 
HETATM    4  C11 UNL     1      22.258   0.011  52.623  1.00  0.00    -0.066 C 
HETATM    5  C17 UNL     1      22.297  -0.753  53.925  1.00  0.00     0.065 C 
HETATM    6  C18 UNL     1      23.663  -0.245  53.996  1.00  0.00     0.119 C 
HETATM    7  N3  UNL     1      24.819  -1.099  53.787  1.00  0.00    -0.380 N 
HETATM    8  H22 UNL     1      24.968  -2.118  54.067  1.00  0.00     0.160 HD
ENDROOT
BRANCH   1   9
HETATM    9  C7  UNL     1      27.205  -0.380  53.286  1.00  0.00    -0.002 A 
HETATM   10  C2  UNL     1      28.097   0.584  53.667  1.00  0.00    -0.018 A 
HETATM   11  C3  UNL     1      29.459   0.333  53.810  1.00  0.00     0.010 A 
HETATM   12  C4  UNL     1      29.981  -0.911  53.573  1.00  0.00     0.001 A 
HETATM   13  C5  UNL     1      29.112  -1.893  53.192  1.00  0.00     0.001 A 
HETATM   14  C6  UNL     1      27.791  -1.608  53.064  1.00  0.00     0.014 A 
BRANCH  10  15
HETATM   15  C1  UNL     1      27.652   1.967  53.932  1.00  0.00     0.306 C 
BRANCH  15  16
HETATM   16  N1  UNL     1      28.403   2.954  53.169  1.00  0.00     0.082 N 
HETATM   17  H1  UNL     1      28.800   2.577  52.279  1.00  0.00     0.313 HD
HETATM   18  H2  UNL     1      29.152   3.401  53.760  1.00  0.00     0.313 HD
ENDBRANCH  15  16
ENDBRANCH  10  15
ENDBRANCH   1   9
BRANCH   4  19
HETATM   19  C12 UNL     1      21.135   0.314  51.705  1.00  0.00     0.061 C 
BRANCH  19  20
HETATM   20  C13 UNL     1      21.596   1.207  50.606  1.00  0.00    -0.025 C 
HETATM   21  C14 UNL     1      21.454   1.066  49.300  1.00  0.00    -0.009 C 
BRANCH  21  22
HETATM   22  C15 UNL     1      21.879   1.900  48.165  1.00  0.00     0.132 C 
HETATM   23 CL1  UNL     1      23.348   2.763  48.624  1.00  0.00    -0.119 Cl
BRANCH  22  24
HETATM   24  C16 UNL     1      20.796   2.878  47.743  1.00  0.00     0.290 C 
BRANCH  24  25
HETATM   25  N2  UNL     1      19.511   2.256  48.001  1.00  0.00     0.080 N 
HETATM   26  H17 UNL     1      19.460   1.989  49.028  1.00  0.00     0.312 HD
HETATM   27  H18 UNL     1      18.786   2.996  47.876  1.00  0.00     0.312 HD
ENDBRANCH  24  25
ENDBRANCH  22  24
ENDBRANCH  21  22
ENDBRANCH  19  20
ENDBRANCH   4  19
TORSDOF 8
ENDMDL
MODEL 4
REMARK VINA RESULT:      -7.3      4.764      6.351
REMARK  8 active torsions:
REMARK  status: ('A' for Active; 'I' for Inactive)
REMARK    1  A    between atoms: N1_1  and  C1_2 
REMARK    2  A    between atoms: C1_2  and  C2_3 
REMARK    3  A    between atoms: C7_8  and  C8_9 
REMARK    4  A    between atoms: C11_12  and  C12_13 
REMARK    5  A    between atoms: C12_13  and  C13_14 
REMARK    6  A    between atoms: C14_15  and  C15_16 
REMARK    7  A    between atoms: C15_16  and  C16_18 
REMARK    8  A    between atoms: C16_18  and  N2_19 
ROOT
HETATM    1  C8  UNL     1      23.843   1.454  52.139  1.00  0.00     0.040 C 
HETATM    2  C9  UNL     1      24.937   2.190  52.102  1.00  0.00     0.039 C 
HETATM    3  C10 UNL     1      25.171   2.874  50.845  1.00  0.00    -0.030 C 
HETATM    4  C11 UNL     1      25.474   3.498  49.726  1.00  0.00    -0.066 C 
HETATM    5  C17 UNL     1      24.079   3.470  49.149  1.00  0.00     0.065 C 
HETATM    6  C18 UNL     1      23.705   3.057  50.497  1.00  0.00     0.119 C 
HETATM    7  N3  UNL     1      23.299   1.697  50.807  1.00  0.00    -0.380 N 
HETATM    8  H22 UNL     1      22.733   1.008  50.220  1.00  0.00     0.160 HD
ENDROOT
BRANCH   1   9
HETATM    9  C7  UNL     1      23.169   0.604  53.098  1.00  0.00    -0.002 A 
HETATM   10  C2  UNL     1      23.708  -0.391  53.866  1.00  0.00    -0.018 A 
HETATM   11  C3  UNL     1      22.948  -1.151  54.751  1.00  0.00     0.010 A 
HETATM   12  C4  UNL     1      21.603  -0.938  54.899  1.00  0.00     0.001 A 
HETATM   13  C5  UNL     1      21.039   0.051  54.144  1.00  0.00     0.001 A 
HETATM   14  C6  UNL     1      21.814   0.770  53.292  1.00  0.00     0.014 A 
BRANCH  10  15
HETATM   15  C1  UNL     1      25.144  -0.723  53.779  1.00  0.00     0.306 C 
BRANCH  15  16
HETATM   16  N1  UNL     1      25.820  -0.628  55.065  1.00  0.00     0.082 N 
HETATM   17  H1  UNL     1      26.852  -0.486  54.982  1.00  0.00     0.313 HD
HETATM   18  H2  UNL     1      25.599  -1.459  55.672  1.00  0.00     0.313 HD
ENDBRANCH  15  16
ENDBRANCH  10  15
ENDBRANCH   1   9
BRANCH   4  19
HETATM   19  C12 UNL     1      26.752   3.994  49.161  1.00  0.00     0.061 C 
BRANCH  19  20
HETATM   20  C13 UNL     1      26.716   5.476  49.029  1.00  0.00    -0.025 C 
HETATM   21  C14 UNL     1      27.631   6.294  48.539  1.00  0.00    -0.009 C 
BRANCH  21  22
HETATM   22  C15 UNL     1      27.662   7.756  48.378  1.00  0.00     0.132 C 
HETATM   23 CL1  UNL     1      29.263   8.336  48.840  1.00  0.00    -0.119 Cl
BRANCH  22  24
HETATM   24  C16 UNL     1      26.587   8.441  49.205  1.00  0.00     0.290 C 
BRANCH  24  25
HETATM   25  N2  UNL     1      27.175   8.813  50.478  1.00  0.00     0.080 N 
HETATM   26  H17 UNL     1      26.830   8.140  51.224  1.00  0.00     0.312 HD
HETATM   27  H18 UNL     1      28.200   8.633  50.402  1.00  0.00     0.312 HD
ENDBRANCH  24  25
ENDBRANCH  22  24
ENDBRANCH  21  22
ENDBRANCH  19  20
ENDBRANCH   4  19
TORSDOF 8
ENDMDL
MODEL 5
REMARK VINA RESULT:      -7.3      5.421      7.701
REMARK  8 active torsions:
REMARK  status: ('A' for Active; 'I' for Inactive)
REMARK    1  A    between atoms: N1_1  and  C1_2 
REMARK    2  A    between atoms: C1_2  and  C2_3 
REMARK    3  A    between atoms: C7_8  and  C8_9 
REMARK    4  A    between atoms: C11_12  and  C12_13 
REMARK    5  A    between atoms: C12_13  and  C13_14 
REMARK    6  A    between atoms: C14_15  and  C15_16 
REMARK    7  A    between atoms: C15_16  and  C16_18 
REMARK    8  A    between atoms: C16_18  and  N2_19 
ROOT
HETATM    1  C8  UNL     1      26.024   4.813  49.484  1.00  0.00     0.040 C 
HETATM    2  C9  UNL     1      25.476   3.623  49.326  1.00  0.00     0.039 C 
HETATM    3  C10 UNL     1      24.656   3.176  50.436  1.00  0.00    -0.030 C 
HETATM    4  C11 UNL     1      23.926   2.683  51.415  1.00  0.00    -0.066 C 
HETATM    5  C17 UNL     1      23.643   4.008  52.081  1.00  0.00     0.065 C 
HETATM    6  C18 UNL     1      24.190   4.562  50.846  1.00  0.00     0.119 C 
HETATM    7  N3  UNL     1      25.498   5.191  50.791  1.00  0.00    -0.380 N 
HETATM    8  H22 UNL     1      25.990   5.796  51.519  1.00  0.00     0.160 HD
ENDROOT
BRANCH   1   9
HETATM    9  C7  UNL     1      26.890   5.690  48.724  1.00  0.00    -0.002 A 
HETATM   10  C2  UNL     1      26.566   6.870  48.112  1.00  0.00    -0.018 A 
HETATM   11  C3  UNL     1      27.492   7.623  47.396  1.00  0.00     0.010 A 
HETATM   12  C4  UNL     1      28.794   7.214  47.266  1.00  0.00     0.001 A 
HETATM   13  C5  UNL     1      29.144   6.040  47.868  1.00  0.00     0.001 A 
HETATM   14  C6  UNL     1      28.212   5.335  48.558  1.00  0.00     0.014 A 
BRANCH  10  15
HETATM   15  C1  UNL     1      25.189   7.401  48.169  1.00  0.00     0.306 C 
BRANCH  15  16
HETATM   16  N1  UNL     1      25.006   8.371  49.239  1.00  0.00     0.082 N 
HETATM   17  H1  UNL     1      25.296   8.015  50.177  1.00  0.00     0.313 HD
HETATM   18  H2  UNL     1      24.017   8.731  49.258  1.00  0.00     0.313 HD
ENDBRANCH  15  16
ENDBRANCH  10  15
ENDBRANCH   1   9
BRANCH   4  19
HETATM   19  C12 UNL     1      23.562   1.300  51.804  1.00  0.00     0.061 C 
BRANCH  19  20
HETATM   20  C13 UNL     1      24.671   0.674  52.575  1.00  0.00    -0.025 C 
HETATM   21  C14 UNL     1      25.914   0.427  52.201  1.00  0.00    -0.009 C 
BRANCH  21  22
HETATM   22  C15 UNL     1      27.054  -0.182  52.905  1.00  0.00     0.132 C 
HETATM   23 CL1  UNL     1      26.996  -1.928  52.657  1.00  0.00    -0.119 Cl
BRANCH  22  24
HETATM   24  C16 UNL     1      27.047   0.147  54.388  1.00  0.00     0.290 C 
BRANCH  24  25
HETATM   25  N2  UNL     1      28.331  -0.244  54.936  1.00  0.00     0.080 N 
HETATM   26  H17 UNL     1      29.096   0.301  54.439  1.00  0.00     0.312 HD
HETATM   27  H18 UNL     1      28.355   0.093  55.923  1.00  0.00     0.312 HD
ENDBRANCH  24  25
ENDBRANCH  22  24
ENDBRANCH  21  22
ENDBRANCH  19  20
ENDBRANCH   4  19
TORSDOF 8
ENDMDL
MODEL 6
REMARK VINA RESULT:      -7.3      7.370      8.962
REMARK  8 active torsions:
REMARK  status: ('A' for Active; 'I' for Inactive)
REMARK    1  A    between atoms: N1_1  and  C1_2 
REMARK    2  A    between atoms: C1_2  and  C2_3 
REMARK    3  A    between atoms: C7_8  and  C8_9 
REMARK    4  A    between atoms: C11_12  and  C12_13 
REMARK    5  A    between atoms: C12_13  and  C13_14 
REMARK    6  A    between atoms: C14_15  and  C15_16 
REMARK    7  A    between atoms: C15_16  and  C16_18 
REMARK    8  A    between atoms: C16_18  and  N2_19 
ROOT
HETATM    1  C8  UNL     1      29.515   6.658  48.326  1.00  0.00     0.040 C 
HETATM    2  C9  UNL     1      29.029   5.450  48.116  1.00  0.00     0.039 C 
HETATM    3  C10 UNL     1      27.676   5.243  48.596  1.00  0.00    -0.030 C 
HETATM    4  C11 UNL     1      26.467   4.964  49.036  1.00  0.00    -0.066 C 
HETATM    5  C17 UNL     1      26.002   6.397  49.132  1.00  0.00     0.065 C 
HETATM    6  C18 UNL     1      27.216   6.673  48.372  1.00  0.00     0.119 C 
HETATM    7  N3  UNL     1      28.378   7.307  48.972  1.00  0.00    -0.380 N 
HETATM    8  H22 UNL     1      28.425   8.073  49.713  1.00  0.00     0.160 HD
ENDROOT
BRANCH   1   9
HETATM    9  C7  UNL     1      30.751   7.364  48.063  1.00  0.00    -0.002 A 
HETATM   10  C2  UNL     1      32.020   7.001  48.422  1.00  0.00    -0.018 A 
HETATM   11  C3  UNL     1      33.137   7.776  48.118  1.00  0.00     0.010 A 
HETATM   12  C4  UNL     1      33.018   8.957  47.434  1.00  0.00     0.001 A 
HETATM   13  C5  UNL     1      31.762   9.343  47.063  1.00  0.00     0.001 A 
HETATM   14  C6  UNL     1      30.699   8.560  47.379  1.00  0.00     0.014 A 
BRANCH  10  15
HETATM   15  C1  UNL     1      32.269   5.757  49.177  1.00  0.00     0.306 C 
BRANCH  15  16
HETATM   16  N1  UNL     1      31.813   5.838  50.557  1.00  0.00     0.082 N 
HETATM   17  H1  UNL     1      31.728   4.907  51.023  1.00  0.00     0.313 HD
HETATM   18  H2  UNL     1      30.913   6.382  50.628  1.00  0.00     0.313 HD
ENDBRANCH  15  16
ENDBRANCH  10  15
ENDBRANCH   1   9
BRANCH   4  19
HETATM   19  C12 UNL     1      25.794   3.695  49.401  1.00  0.00     0.061 C 
BRANCH  19  20
HETATM   20  C13 UNL     1      26.592   2.965  50.424  1.00  0.00    -0.025 C 
HETATM   21  C14 UNL     1      26.211   2.018  51.263  1.00  0.00    -0.009 C 
BRANCH  21  22
HETATM   22  C15 UNL     1      26.939   1.258  52.291  1.00  0.00     0.132 C 
HETATM   23 CL1  UNL     1      26.426  -0.428  52.211  1.00  0.00    -0.119 Cl
BRANCH  22  24
HETATM   24  C16 UNL     1      26.707   1.822  53.683  1.00  0.00     0.290 C 
BRANCH  24  25
HETATM   25  N2  UNL     1      27.877   2.597  54.049  1.00  0.00     0.080 N 
HETATM   26  H17 UNL     1      28.372   2.909  53.163  1.00  0.00     0.312 HD
HETATM   27  H18 UNL     1      27.531   3.476  54.492  1.00  0.00     0.312 HD
ENDBRANCH  24  25
ENDBRANCH  22  24
ENDBRANCH  21  22
ENDBRANCH  19  20
ENDBRANCH   4  19
TORSDOF 8
ENDMDL
MODEL 7
REMARK VINA RESULT:      -7.3      5.061      7.856
REMARK  8 active torsions:
REMARK  status: ('A' for Active; 'I' for Inactive)
REMARK    1  A    between atoms: N1_1  and  C1_2 
REMARK    2  A    between atoms: C1_2  and  C2_3 
REMARK    3  A    between atoms: C7_8  and  C8_9 
REMARK    4  A    between atoms: C11_12  and  C12_13 
REMARK    5  A    between atoms: C12_13  and  C13_14 
REMARK    6  A    between atoms: C14_15  and  C15_16 
REMARK    7  A    between atoms: C15_16  and  C16_18 
REMARK    8  A    between atoms: C16_18  and  N2_19 
ROOT
HETATM    1  C8  UNL     1      25.478   4.597  49.847  1.00  0.00     0.040 C 
HETATM    2  C9  UNL     1      25.473   3.283  49.729  1.00  0.00     0.039 C 
HETATM    3  C10 UNL     1      25.078   2.563  50.925  1.00  0.00    -0.030 C 
HETATM    4  C11 UNL     1      24.766   1.836  51.977  1.00  0.00    -0.066 C 
HETATM    5  C17 UNL     1      24.038   2.934  52.714  1.00  0.00     0.065 C 
HETATM    6  C18 UNL     1      24.126   3.630  51.435  1.00  0.00     0.119 C 
HETATM    7  N3  UNL     1      25.021   4.754  51.224  1.00  0.00    -0.380 N 
HETATM    8  H22 UNL     1      25.301   5.533  51.897  1.00  0.00     0.160 HD
ENDROOT
BRANCH   1   9
HETATM    9  C7  UNL     1      25.777   5.735  49.005  1.00  0.00    -0.002 A 
HETATM   10  C2  UNL     1      26.967   6.053  48.410  1.00  0.00    -0.018 A 
HETATM   11  C3  UNL     1      27.135   7.191  47.625  1.00  0.00     0.010 A 
HETATM   12  C4  UNL     1      26.100   8.062  47.406  1.00  0.00     0.001 A 
HETATM   13  C5  UNL     1      24.900   7.768  47.987  1.00  0.00     0.001 A 
HETATM   14  C6  UNL     1      24.778   6.649  48.746  1.00  0.00     0.014 A 
BRANCH  10  15
HETATM   15  C1  UNL     1      28.157   5.198  48.590  1.00  0.00     0.306 C 
BRANCH  15  16
HETATM   16  N1  UNL     1      29.362   5.965  48.871  1.00  0.00     0.082 N 
HETATM   17  H1  UNL     1      29.836   6.324  48.012  1.00  0.00     0.313 HD
HETATM   18  H2  UNL     1      30.030   5.416  49.473  1.00  0.00     0.313 HD
ENDBRANCH  15  16
ENDBRANCH  10  15
ENDBRANCH   1   9
BRANCH   4  19
HETATM   19  C12 UNL     1      25.082   0.442  52.370  1.00  0.00     0.061 C 
BRANCH  19  20
HETATM   20  C13 UNL     1      26.218   0.423  53.332  1.00  0.00    -0.025 C 
HETATM   21  C14 UNL     1      27.415  -0.121  53.201  1.00  0.00    -0.009 C 
BRANCH  21  22
HETATM   22  C15 UNL     1      28.577  -0.178  54.101  1.00  0.00     0.132 C 
HETATM   23 CL1  UNL     1      29.203   1.458  54.311  1.00  0.00    -0.119 Cl
BRANCH  22  24
HETATM   24  C16 UNL     1      29.661  -1.100  53.569  1.00  0.00     0.290 C 
BRANCH  24  25
HETATM   25  N2  UNL     1      29.074  -2.413  53.381  1.00  0.00     0.080 N 
HETATM   26  H17 UNL     1      29.382  -3.043  54.178  1.00  0.00     0.312 HD
HETATM   27  H18 UNL     1      28.044  -2.304  53.502  1.00  0.00     0.312 HD
ENDBRANCH  24  25
ENDBRANCH  22  24
ENDBRANCH  21  22
ENDBRANCH  19  20
ENDBRANCH   4  19
TORSDOF 8
ENDMDL
MODEL 8
REMARK VINA RESULT:      -7.1      4.232      5.701
REMARK  8 active torsions:
REMARK  status: ('A' for Active; 'I' for Inactive)
REMARK    1  A    between atoms: N1_1  and  C1_2 
REMARK    2  A    between atoms: C1_2  and  C2_3 
REMARK    3  A    between atoms: C7_8  and  C8_9 
REMARK    4  A    between atoms: C11_12  and  C12_13 
REMARK    5  A    between atoms: C12_13  and  C13_14 
REMARK    6  A    between atoms: C14_15  and  C15_16 
REMARK    7  A    between atoms: C15_16  and  C16_18 
REMARK    8  A    between atoms: C16_18  and  N2_19 
ROOT
HETATM    1  C8  UNL     1      25.521   3.092  50.951  1.00  0.00     0.040 C 
HETATM    2  C9  UNL     1      24.477   2.743  51.679  1.00  0.00     0.039 C 
HETATM    3  C10 UNL     1      24.573   1.435  52.298  1.00  0.00    -0.030 C 
HETATM    4  C11 UNL     1      24.568   0.246  52.864  1.00  0.00    -0.066 C 
HETATM    5  C17 UNL     1      26.063   0.042  52.813  1.00  0.00     0.065 C 
HETATM    6  C18 UNL     1      26.082   1.461  52.470  1.00  0.00     0.119 C 
HETATM    7  N3  UNL     1      26.385   1.930  51.129  1.00  0.00    -0.380 N 
HETATM    8  H22 UNL     1      27.075   1.541  50.415  1.00  0.00     0.160 HD
ENDROOT
BRANCH   1   9
HETATM    9  C7  UNL     1      25.924   4.231  50.154  1.00  0.00    -0.002 A 
HETATM   10  C2  UNL     1      25.336   5.465  50.091  1.00  0.00    -0.018 A 
HETATM   11  C3  UNL     1      25.814   6.484  49.271  1.00  0.00     0.010 A 
HETATM   12  C4  UNL     1      26.914   6.299  48.475  1.00  0.00     0.001 A 
HETATM   13  C5  UNL     1      27.521   5.076  48.520  1.00  0.00     0.001 A 
HETATM   14  C6  UNL     1      27.024   4.109  49.332  1.00  0.00     0.014 A 
BRANCH  10  15
HETATM   15  C1  UNL     1      24.134   5.774  50.890  1.00  0.00     0.306 C 
BRANCH  15  16
HETATM   16  N1  UNL     1      24.415   6.671  52.002  1.00  0.00     0.082 N 
HETATM   17  H1  UNL     1      24.587   7.659  51.706  1.00  0.00     0.313 HD
HETATM   18  H2  UNL     1      25.208   6.307  52.592  1.00  0.00     0.313 HD
ENDBRANCH  15  16
ENDBRANCH  10  15
ENDBRANCH   1   9
BRANCH   4  19
HETATM   19  C12 UNL     1      23.477  -0.647  53.324  1.00  0.00     0.061 C 
BRANCH  19  20
HETATM   20  C13 UNL     1      22.191   0.101  53.385  1.00  0.00    -0.025 C 
HETATM   21  C14 UNL     1      21.164   0.066  52.554  1.00  0.00    -0.009 C 
BRANCH  21  22
HETATM   22  C15 UNL     1      19.873   0.770  52.552  1.00  0.00     0.132 C 
HETATM   23 CL1  UNL     1      18.626  -0.349  51.999  1.00  0.00    -0.119 Cl
BRANCH  22  24
HETATM   24  C16 UNL     1      19.904   2.010  51.674  1.00  0.00     0.290 C 
BRANCH  24  25
HETATM   25  N2  UNL     1      20.391   3.113  52.480  1.00  0.00     0.080 N 
HETATM   26  H17 UNL     1      21.453   3.086  52.492  1.00  0.00     0.312 HD
HETATM   27  H18 UNL     1      20.147   3.991  51.972  1.00  0.00     0.312 HD
ENDBRANCH  24  25
ENDBRANCH  22  24
ENDBRANCH  21  22
ENDBRANCH  19  20
ENDBRANCH   4  19
TORSDOF 8
ENDMDL
MODEL 9
REMARK VINA RESULT:      -7.0      7.544      9.490
REMARK  8 active torsions:
REMARK  status: ('A' for Active; 'I' for Inactive)
REMARK    1  A    between atoms: N1_1  and  C1_2 
REMARK    2  A    between atoms: C1_2  and  C2_3 
REMARK    3  A    between atoms: C7_8  and  C8_9 
REMARK    4  A    between atoms: C11_12  and  C12_13 
REMARK    5  A    between atoms: C12_13  and  C13_14 
REMARK    6  A    between atoms: C14_15  and  C15_16 
REMARK    7  A    between atoms: C15_16  and  C16_18 
REMARK    8  A    between atoms: C16_18  and  N2_19 
ROOT
HETATM    1  C8  UNL     1      28.918   6.729  48.297  1.00  0.00     0.040 C 
HETATM    2  C9  UNL     1      28.747   5.433  48.124  1.00  0.00     0.039 C 
HETATM    3  C10 UNL     1      27.563   4.883  48.757  1.00  0.00    -0.030 C 
HETATM    4  C11 UNL     1      26.531   4.301  49.332  1.00  0.00    -0.066 C 
HETATM    5  C17 UNL     1      25.720   5.562  49.509  1.00  0.00     0.065 C 
HETATM    6  C18 UNL     1      26.720   6.138  48.616  1.00  0.00     0.119 C 
HETATM    7  N3  UNL     1      27.737   7.064  49.084  1.00  0.00    -0.380 N 
HETATM    8  H22 UNL     1      27.668   7.826  49.829  1.00  0.00     0.160 HD
ENDROOT
BRANCH   1   9
HETATM    9  C7  UNL     1      29.885   7.732  47.902  1.00  0.00    -0.002 A 
HETATM   10  C2  UNL     1      29.792   8.634  46.878  1.00  0.00    -0.018 A 
HETATM   11  C3  UNL     1      30.801   9.549  46.589  1.00  0.00     0.010 A 
HETATM   12  C4  UNL     1      31.955   9.591  47.326  1.00  0.00     0.001 A 
HETATM   13  C5  UNL     1      32.074   8.702  48.356  1.00  0.00     0.001 A 
HETATM   14  C6  UNL     1      31.067   7.826  48.606  1.00  0.00     0.014 A 
BRANCH  10  15
HETATM   15  C1  UNL     1      28.602   8.670  46.004  1.00  0.00     0.306 C 
BRANCH  15  16
HETATM   16  N1  UNL     1      28.875   8.170  44.665  1.00  0.00     0.082 N 
HETATM   17  H1  UNL     1      28.478   7.220  44.486  1.00  0.00     0.313 HD
HETATM   18  H2  UNL     1      29.907   8.196  44.453  1.00  0.00     0.313 HD
ENDBRANCH  15  16
ENDBRANCH  10  15
ENDBRANCH   1   9
BRANCH   4  19
HETATM   19  C12 UNL     1      26.265   2.904  49.751  1.00  0.00     0.061 C 
BRANCH  19  20
HETATM   20  C13 UNL     1      26.544   2.742  51.204  1.00  0.00    -0.025 C 
HETATM   21  C14 UNL     1      27.055   1.706  51.846  1.00  0.00    -0.009 C 
BRANCH  21  22
HETATM   22  C15 UNL     1      27.357   1.477  53.268  1.00  0.00     0.132 C 
HETATM   23 CL1  UNL     1      28.719   2.502  53.723  1.00  0.00    -0.119 Cl
BRANCH  22  24
HETATM   24  C16 UNL     1      27.669   0.017  53.553  1.00  0.00     0.290 C 
BRANCH  24  25
HETATM   25  N2  UNL     1      27.254  -0.267  54.914  1.00  0.00     0.080 N 
HETATM   26  H17 UNL     1      26.973   0.643  55.384  1.00  0.00     0.312 HD
HETATM   27  H18 UNL     1      26.374  -0.824  54.852  1.00  0.00     0.312 HD
ENDBRANCH  24  25
ENDBRANCH  22  24
ENDBRANCH  21  22
ENDBRANCH  19  20
ENDBRANCH   4  19
TORSDOF 8
ENDMDL
