MODEL 1
REMARK VINA RESULT:      -7.8      0.000      0.000
REMARK  7 active torsions:
REMARK  status: ('A' for Active; 'I' for Inactive)
REMARK    1  A    between atoms: C2_2  and  C3_3 
REMARK    2  A    between atoms: C3_3  and  N1_4 
REMARK    3  A    between atoms: N1_4  and  C4_5 
REMARK    4  A    between atoms: C7_10  and  C8_11 
REMARK       I    between atoms: N4_16  and  C12_17 
REMARK    5  A    between atoms: C12_17  and  C13_19 
REMARK    6  A    between atoms: C13_19  and  C14_20 
REMARK    7  A    between atoms: C18_24  and  O2_25 
ROOT
HETATM    1  C4  UNL     1      23.537   4.928  52.248  1.00  0.00     0.132 C 
HETATM    2  N2  UNL     1      22.213   4.953  52.183  1.00  0.00    -0.225 NA
HETATM    3  C5  UNL     1      21.209   3.947  51.980  1.00  0.00     0.231 C 
HETATM    4  N3  UNL     1      21.428   2.651  51.818  1.00  0.00    -0.256 NA
HETATM    5  C6  UNL     1      22.482   1.744  51.554  1.00  0.00     0.220 C 
HETATM    6  C7  UNL     1      23.427   2.051  50.450  1.00  0.00     0.063 C 
HETATM    7  C9  UNL     1      24.513   2.985  50.850  1.00  0.00    -0.005 C 
HETATM    8  C10 UNL     1      24.136   3.549  52.072  1.00  0.00     0.002 C 
HETATM    9  C11 UNL     1      24.318   2.426  53.126  1.00  0.00     0.170 C 
HETATM   10  N4  UNL     1      23.331   1.386  52.708  1.00  0.00    -0.324 N 
HETATM   11  C12 UNL     1      23.246   0.151  53.407  1.00  0.00     0.226 C 
HETATM   12  O1  UNL     1      22.408  -0.708  53.022  1.00  0.00    -0.273 OA
ENDROOT
BRANCH  11  13
HETATM   13  C13 UNL     1      24.143  -0.054  54.542  1.00  0.00     0.141 C 
BRANCH  13  14
HETATM   14  C14 UNL     1      25.504  -0.319  54.045  1.00  0.00    -0.047 A 
HETATM   15  C15 UNL     1      25.641  -1.132  52.919  1.00  0.00     0.007 A 
HETATM   16  C16 UNL     1      26.894  -1.398  52.436  1.00  0.00     0.003 A 
HETATM   17  C17 UNL     1      27.994  -0.860  53.071  1.00  0.00     0.037 A 
HETATM   18  C18 UNL     1      27.897  -0.064  54.171  1.00  0.00     0.068 A 
HETATM   19  C20 UNL     1      26.634   0.197  54.647  1.00  0.00     0.044 A 
BRANCH  18  20
HETATM   20  O2  UNL     1      28.945   0.516  54.868  1.00  0.00    -0.356 OA
HETATM   21  C19 UNL     1      29.411   1.771  54.472  1.00  0.00     0.210 C 
ENDBRANCH  18  20
ENDBRANCH  13  14
ENDBRANCH  11  13
BRANCH   6  22
HETATM   22  C8  UNL     1      22.731   2.534  49.190  1.00  0.00     0.097 C 
HETATM   23 BR1  UNL     1      21.453   1.199  48.610  1.00  0.00    -0.096 Br
ENDBRANCH   6  22
BRANCH   1  24
HETATM   24  N1  UNL     1      24.071   6.214  52.466  1.00  0.00    -0.371 N 
HETATM   25  H6  UNL     1      24.294   6.318  53.459  1.00  0.00     0.161 HD
BRANCH  24  26
HETATM   26  C3  UNL     1      24.184   7.076  51.302  1.00  0.00     0.148 C 
BRANCH  26  27
HETATM   27  C2  UNL     1      25.271   6.668  50.402  1.00  0.00    -0.018 C 
HETATM   28  C1  UNL     1      25.113   6.262  49.146  1.00  0.00     0.008 C 
ENDBRANCH  26  27
ENDBRANCH  24  26
ENDBRANCH   1  24
TORSDOF 7
ENDMDL
MODEL 2
REMARK VINA RESULT:      -7.4      2.405      3.980
REMARK  7 active torsions:
REMARK  status: ('A' for Active; 'I' for Inactive)
REMARK    1  A    between atoms: C2_2  and  C3_3 
REMARK    2  A    between atoms: C3_3  and  N1_4 
REMARK    3  A    between atoms: N1_4  and  C4_5 
REMARK    4  A    between atoms: C7_10  and  C8_11 
REMARK       I    between atoms: N4_16  and  C12_17 
REMARK    5  A    between atoms: C12_17  and  C13_19 
REMARK    6  A    between atoms: C13_19  and  C14_20 
REMARK    7  A    between atoms: C18_24  and  O2_25 
ROOT
HETATM    1  C4  UNL     1      24.975   4.206  50.502  1.00  0.00     0.132 C 
HETATM    2  N2  UNL     1      24.520   5.018  51.447  1.00  0.00    -0.225 NA
HETATM    3  C5  UNL     1      23.209   5.333  51.942  1.00  0.00     0.231 C 
HETATM    4  N3  UNL     1      22.071   4.804  51.518  1.00  0.00    -0.256 NA
HETATM    5  C6  UNL     1      21.554   4.030  50.453  1.00  0.00     0.220 C 
HETATM    6  C7  UNL     1      21.909   4.406  49.059  1.00  0.00     0.063 C 
HETATM    7  C9  UNL     1      23.228   3.874  48.626  1.00  0.00    -0.005 C 
HETATM    8  C10 UNL     1      23.891   3.438  49.777  1.00  0.00     0.002 C 
HETATM    9  C11 UNL     1      23.177   2.129  50.201  1.00  0.00     0.170 C 
HETATM   10  N4  UNL     1      21.792   2.575  50.537  1.00  0.00    -0.324 N 
HETATM   11  C12 UNL     1      20.801   1.627  50.913  1.00  0.00     0.226 C 
HETATM   12  O1  UNL     1      19.639   2.036  51.181  1.00  0.00    -0.273 OA
ENDROOT
BRANCH  11  13
HETATM   13  C13 UNL     1      21.189   0.219  50.967  1.00  0.00     0.141 C 
BRANCH  13  14
HETATM   14  C14 UNL     1      21.559  -0.131  52.350  1.00  0.00    -0.047 A 
HETATM   15  C15 UNL     1      20.530  -0.291  53.280  1.00  0.00     0.007 A 
HETATM   16  C16 UNL     1      20.843  -0.614  54.572  1.00  0.00     0.003 A 
HETATM   17  C17 UNL     1      22.166  -0.774  54.930  1.00  0.00     0.037 A 
HETATM   18  C18 UNL     1      23.194  -0.626  54.049  1.00  0.00     0.068 A 
HETATM   19  C20 UNL     1      22.867  -0.302  52.753  1.00  0.00     0.044 A 
BRANCH  18  20
HETATM   20  O2  UNL     1      24.545  -0.768  54.322  1.00  0.00    -0.356 OA
HETATM   21  C19 UNL     1      25.435   0.201  53.855  1.00  0.00     0.210 C 
ENDBRANCH  18  20
ENDBRANCH  13  14
ENDBRANCH  11  13
BRANCH   6  22
HETATM   22  C8  UNL     1      21.814   5.899  48.807  1.00  0.00     0.097 C 
HETATM   23 BR1  UNL     1      23.366   6.482  47.806  1.00  0.00    -0.096 Br
ENDBRANCH   6  22
BRANCH   1  24
HETATM   24  N1  UNL     1      26.379   4.261  50.401  1.00  0.00    -0.371 N 
HETATM   25  H6  UNL     1      26.781   4.258  51.342  1.00  0.00     0.161 HD
BRANCH  24  26
HETATM   26  C3  UNL     1      26.933   4.311  49.059  1.00  0.00     0.148 C 
BRANCH  26  27
HETATM   27  C2  UNL     1      27.157   5.686  48.592  1.00  0.00    -0.018 C 
HETATM   28  C1  UNL     1      28.323   6.175  48.183  1.00  0.00     0.008 C 
ENDBRANCH  26  27
ENDBRANCH  24  26
ENDBRANCH   1  24
TORSDOF 7
ENDMDL
MODEL 3
REMARK VINA RESULT:      -7.2      2.998      5.881
REMARK  7 active torsions:
REMARK  status: ('A' for Active; 'I' for Inactive)
REMARK    1  A    between atoms: C2_2  and  C3_3 
REMARK    2  A    between atoms: C3_3  and  N1_4 
REMARK    3  A    between atoms: N1_4  and  C4_5 
REMARK    4  A    between atoms: C7_10  and  C8_11 
REMARK       I    between atoms: N4_16  and  C12_17 
REMARK    5  A    between atoms: C12_17  and  C13_19 
REMARK    6  A    between atoms: C13_19  and  C14_20 
REMARK    7  A    between atoms: C18_24  and  O2_25 
ROOT
HETATM    1  C4  UNL     1      25.171   2.602  51.168  1.00  0.00     0.132 C 
HETATM    2  N2  UNL     1      24.958   3.224  52.320  1.00  0.00    -0.225 NA
HETATM    3  C5  UNL     1      23.870   4.001  52.844  1.00  0.00     0.231 C 
HETATM    4  N3  UNL     1      22.732   4.264  52.221  1.00  0.00    -0.256 NA
HETATM    5  C6  UNL     1      22.148   4.196  50.934  1.00  0.00     0.220 C 
HETATM    6  C7  UNL     1      22.915   4.721  49.774  1.00  0.00     0.063 C 
HETATM    7  C9  UNL     1      23.897   3.746  49.231  1.00  0.00    -0.005 C 
HETATM    8  C10 UNL     1      24.031   2.729  50.181  1.00  0.00     0.002 C 
HETATM    9  C11 UNL     1      22.724   1.900  50.094  1.00  0.00     0.170 C 
HETATM   10  N4  UNL     1      21.665   2.866  50.513  1.00  0.00    -0.324 N 
HETATM   11  C12 UNL     1      20.295   2.485  50.497  1.00  0.00     0.226 C 
HETATM   12  O1  UNL     1      19.426   3.327  50.848  1.00  0.00    -0.273 OA
ENDROOT
BRANCH  11  13
HETATM   13  C13 UNL     1      19.969   1.126  50.070  1.00  0.00     0.141 C 
BRANCH  13  14
HETATM   14  C14 UNL     1      19.496   0.351  51.230  1.00  0.00    -0.047 A 
HETATM   15  C15 UNL     1      18.174  -0.098  51.219  1.00  0.00     0.007 A 
HETATM   16  C16 UNL     1      17.705  -0.818  52.284  1.00  0.00     0.003 A 
HETATM   17  C17 UNL     1      18.546  -1.085  53.345  1.00  0.00     0.037 A 
HETATM   18  C18 UNL     1      19.839  -0.663  53.388  1.00  0.00     0.068 A 
HETATM   19  C20 UNL     1      20.300   0.059  52.312  1.00  0.00     0.044 A 
BRANCH  18  20
HETATM   20  O2  UNL     1      20.749  -0.886  54.410  1.00  0.00    -0.356 OA
HETATM   21  C19 UNL     1      22.113  -0.756  54.142  1.00  0.00     0.210 C 
ENDBRANCH  18  20
ENDBRANCH  13  14
ENDBRANCH  11  13
BRANCH   6  22
HETATM   22  C8  UNL     1      23.574   6.058  50.056  1.00  0.00     0.097 C 
HETATM   23 BR1  UNL     1      25.378   6.048  49.352  1.00  0.00    -0.096 Br
ENDBRANCH   6  22
BRANCH   1  24
HETATM   24  N1  UNL     1      26.430   1.968  51.145  1.00  0.00    -0.371 N 
HETATM   25  H6  UNL     1      26.905   2.204  50.270  1.00  0.00     0.161 HD
BRANCH  24  26
HETATM   26  C3  UNL     1      26.770   1.156  52.300  1.00  0.00     0.148 C 
BRANCH  26  27
HETATM   27  C2  UNL     1      26.492  -0.271  52.088  1.00  0.00    -0.018 C 
HETATM   28  C1  UNL     1      27.012  -1.266  52.799  1.00  0.00     0.008 C 
ENDBRANCH  26  27
ENDBRANCH  24  26
ENDBRANCH   1  24
TORSDOF 7
ENDMDL
MODEL 4
REMARK VINA RESULT:      -7.1      2.462      4.458
REMARK  7 active torsions:
REMARK  status: ('A' for Active; 'I' for Inactive)
REMARK    1  A    between atoms: C2_2  and  C3_3 
REMARK    2  A    between atoms: C3_3  and  N1_4 
REMARK    3  A    between atoms: N1_4  and  C4_5 
REMARK    4  A    between atoms: C7_10  and  C8_11 
REMARK       I    between atoms: N4_16  and  C12_17 
REMARK    5  A    between atoms: C12_17  and  C13_19 
REMARK    6  A    between atoms: C13_19  and  C14_20 
REMARK    7  A    between atoms: C18_24  and  O2_25 
ROOT
HETATM    1  C4  UNL     1      20.173   1.288  51.694  1.00  0.00     0.132 C 
HETATM    2  N2  UNL     1      20.445   0.730  50.522  1.00  0.00    -0.225 NA
HETATM    3  C5  UNL     1      21.443   0.965  49.516  1.00  0.00     0.231 C 
HETATM    4  N3  UNL     1      22.405   1.874  49.574  1.00  0.00    -0.256 NA
HETATM    5  C6  UNL     1      22.787   3.019  50.312  1.00  0.00     0.220 C 
HETATM    6  C7  UNL     1      21.768   4.069  50.577  1.00  0.00     0.063 C 
HETATM    7  C9  UNL     1      20.906   3.766  51.749  1.00  0.00    -0.005 C 
HETATM    8  C10 UNL     1      21.106   2.420  52.067  1.00  0.00     0.002 C 
HETATM    9  C11 UNL     1      22.512   2.347  52.717  1.00  0.00     0.170 C 
HETATM   10  N4  UNL     1      23.431   2.763  51.616  1.00  0.00    -0.324 N 
HETATM   11  C12 UNL     1      24.828   2.886  51.851  1.00  0.00     0.226 C 
HETATM   12  O1  UNL     1      25.574   3.247  50.901  1.00  0.00    -0.273 OA
ENDROOT
BRANCH  11  13
HETATM   13  C13 UNL     1      25.324   2.583  53.192  1.00  0.00     0.141 C 
BRANCH  13  14
HETATM   14  C14 UNL     1      26.112   1.339  53.150  1.00  0.00    -0.047 A 
HETATM   15  C15 UNL     1      25.463   0.168  52.754  1.00  0.00     0.007 A 
HETATM   16  C16 UNL     1      26.169  -1.003  52.708  1.00  0.00     0.003 A 
HETATM   17  C17 UNL     1      27.505  -1.004  53.054  1.00  0.00     0.037 A 
HETATM   18  C18 UNL     1      28.168   0.118  53.446  1.00  0.00     0.068 A 
HETATM   19  C20 UNL     1      27.449   1.290  53.487  1.00  0.00     0.044 A 
BRANCH  18  20
HETATM   20  O2  UNL     1      29.503   0.206  53.810  1.00  0.00    -0.356 OA
HETATM   21  C19 UNL     1      30.287  -0.949  53.793  1.00  0.00     0.210 C 
ENDBRANCH  18  20
ENDBRANCH  13  14
ENDBRANCH  11  13
BRANCH   6  22
HETATM   22  C8  UNL     1      20.930   4.402  49.356  1.00  0.00     0.097 C 
HETATM   23 BR1  UNL     1      19.094   4.699  49.897  1.00  0.00    -0.096 Br
ENDBRANCH   6  22
BRANCH   1  24
HETATM   24  N1  UNL     1      19.061   0.682  52.312  1.00  0.00    -0.371 N 
HETATM   25  H6  UNL     1      18.230   1.250  52.133  1.00  0.00     0.161 HD
BRANCH  24  26
HETATM   26  C3  UNL     1      19.313  -0.552  53.036  1.00  0.00     0.148 C 
BRANCH  26  27
HETATM   27  C2  UNL     1      20.378  -0.411  54.039  1.00  0.00    -0.018 C 
HETATM   28  C1  UNL     1      21.347  -1.293  54.255  1.00  0.00     0.008 C 
ENDBRANCH  26  27
ENDBRANCH  24  26
ENDBRANCH   1  24
TORSDOF 7
ENDMDL
MODEL 5
REMARK VINA RESULT:      -7.1      3.172      5.776
REMARK  7 active torsions:
REMARK  status: ('A' for Active; 'I' for Inactive)
REMARK    1  A    between atoms: C2_2  and  C3_3 
REMARK    2  A    between atoms: C3_3  and  N1_4 
REMARK    3  A    between atoms: N1_4  and  C4_5 
REMARK    4  A    between atoms: C7_10  and  C8_11 
REMARK       I    between atoms: N4_16  and  C12_17 
REMARK    5  A    between atoms: C12_17  and  C13_19 
REMARK    6  A    between atoms: C13_19  and  C14_20 
REMARK    7  A    between atoms: C18_24  and  O2_25 
ROOT
HETATM    1  C4  UNL     1      21.509   3.962  50.449  1.00  0.00     0.132 C 
HETATM    2  N2  UNL     1      21.683   4.642  51.574  1.00  0.00    -0.225 NA
HETATM    3  C5  UNL     1      22.688   4.627  52.600  1.00  0.00     0.231 C 
HETATM    4  N3  UNL     1      23.767   3.859  52.620  1.00  0.00    -0.256 NA
HETATM    5  C6  UNL     1      24.314   2.723  51.977  1.00  0.00     0.220 C 
HETATM    6  C7  UNL     1      23.453   1.525  51.792  1.00  0.00     0.063 C 
HETATM    7  C9  UNL     1      22.576   1.612  50.595  1.00  0.00    -0.005 C 
HETATM    8  C10 UNL     1      22.594   2.944  50.171  1.00  0.00     0.002 C 
HETATM    9  C11 UNL     1      23.987   3.159  49.525  1.00  0.00     0.170 C 
HETATM   10  N4  UNL     1      24.937   2.962  50.660  1.00  0.00    -0.324 N 
HETATM   11  C12 UNL     1      26.341   3.016  50.443  1.00  0.00     0.226 C 
HETATM   12  O1  UNL     1      27.115   2.837  51.421  1.00  0.00    -0.273 OA
ENDROOT
BRANCH  11  13
HETATM   13  C13 UNL     1      26.812   3.278  49.084  1.00  0.00     0.141 C 
BRANCH  13  14
HETATM   14  C14 UNL     1      27.096   4.716  48.936  1.00  0.00    -0.047 A 
HETATM   15  C15 UNL     1      28.335   5.085  48.409  1.00  0.00     0.007 A 
HETATM   16  C16 UNL     1      28.628   6.414  48.262  1.00  0.00     0.003 A 
HETATM   17  C17 UNL     1      27.696   7.360  48.636  1.00  0.00     0.037 A 
HETATM   18  C18 UNL     1      26.479   7.035  49.153  1.00  0.00     0.068 A 
HETATM   19  C20 UNL     1      26.195   5.697  49.296  1.00  0.00     0.044 A 
BRANCH  18  20
HETATM   20  O2  UNL     1      25.488   7.917  49.554  1.00  0.00    -0.356 OA
HETATM   21  C19 UNL     1      24.429   7.439  50.327  1.00  0.00     0.210 C 
ENDBRANCH  18  20
ENDBRANCH  13  14
ENDBRANCH  11  13
BRANCH   6  22
HETATM   22  C8  UNL     1      22.650   1.176  53.032  1.00  0.00     0.097 C 
HETATM   23 BR1  UNL     1      23.159  -0.586  53.655  1.00  0.00    -0.096 Br
ENDBRANCH   6  22
BRANCH   1  24
HETATM   24  N1  UNL     1      20.334   4.358  49.778  1.00  0.00    -0.371 N 
HETATM   25  H6  UNL     1      19.558   4.369  50.445  1.00  0.00     0.161 HD
BRANCH  24  26
HETATM   26  C3  UNL     1      20.462   4.648  48.361  1.00  0.00     0.148 C 
BRANCH  26  27
HETATM   27  C2  UNL     1      21.300   5.825  48.099  1.00  0.00    -0.018 C 
HETATM   28  C1  UNL     1      22.459   5.810  47.449  1.00  0.00     0.008 C 
ENDBRANCH  26  27
ENDBRANCH  24  26
ENDBRANCH   1  24
TORSDOF 7
ENDMDL
MODEL 6
REMARK VINA RESULT:      -7.1      8.441     10.993
REMARK  7 active torsions:
REMARK  status: ('A' for Active; 'I' for Inactive)
REMARK    1  A    between atoms: C2_2  and  C3_3 
REMARK    2  A    between atoms: C3_3  and  N1_4 
REMARK    3  A    between atoms: N1_4  and  C4_5 
REMARK    4  A    between atoms: C7_10  and  C8_11 
REMARK       I    between atoms: N4_16  and  C12_17 
REMARK    5  A    between atoms: C12_17  and  C13_19 
REMARK    6  A    between atoms: C13_19  and  C14_20 
REMARK    7  A    between atoms: C18_24  and  O2_25 
ROOT
HETATM    1  C4  UNL     1      29.007   7.324  48.329  1.00  0.00     0.132 C 
HETATM    2  N2  UNL     1      28.833   7.482  47.024  1.00  0.00    -0.225 NA
HETATM    3  C5  UNL     1      29.599   8.117  45.989  1.00  0.00     0.231 C 
HETATM    4  N3  UNL     1      30.768   8.721  46.145  1.00  0.00    -0.256 NA
HETATM    5  C6  UNL     1      31.619   9.211  47.164  1.00  0.00     0.220 C 
HETATM    6  C7  UNL     1      31.031  10.048  48.243  1.00  0.00     0.063 C 
HETATM    7  C9  UNL     1      30.410   9.249  49.332  1.00  0.00    -0.005 C 
HETATM    8  C10 UNL     1      30.284   7.940  48.858  1.00  0.00     0.002 C 
HETATM    9  C11 UNL     1      31.721   7.356  48.855  1.00  0.00     0.170 C 
HETATM   10  N4  UNL     1      32.443   8.202  47.858  1.00  0.00    -0.324 N 
HETATM   11  C12 UNL     1      33.832   8.009  47.622  1.00  0.00     0.226 C 
HETATM   12  O1  UNL     1      34.412   8.746  46.780  1.00  0.00    -0.273 OA
ENDROOT
BRANCH  11  13
HETATM   13  C13 UNL     1      34.513   6.958  48.374  1.00  0.00     0.141 C 
BRANCH  13  14
HETATM   14  C14 UNL     1      34.445   5.695  47.619  1.00  0.00    -0.047 A 
HETATM   15  C15 UNL     1      34.905   4.535  48.244  1.00  0.00     0.007 A 
HETATM   16  C16 UNL     1      34.857   3.347  47.566  1.00  0.00     0.003 A 
HETATM   17  C17 UNL     1      34.356   3.320  46.280  1.00  0.00     0.037 A 
HETATM   18  C18 UNL     1      33.899   4.431  45.641  1.00  0.00     0.068 A 
HETATM   19  C20 UNL     1      33.952   5.619  46.332  1.00  0.00     0.044 A 
BRANCH  18  20
HETATM   20  O2  UNL     1      33.383   4.494  44.356  1.00  0.00    -0.356 OA
HETATM   21  C19 UNL     1      34.253   4.715  43.287  1.00  0.00     0.210 C 
ENDBRANCH  18  20
ENDBRANCH  13  14
ENDBRANCH  11  13
BRANCH   6  22
HETATM   22  C8  UNL     1      30.067  11.097  47.720  1.00  0.00     0.097 C 
HETATM   23 BR1  UNL     1      30.097  12.639  48.892  1.00  0.00    -0.096 Br
ENDBRANCH   6  22
BRANCH   1  24
HETATM   24  N1  UNL     1      27.941   6.611  48.913  1.00  0.00    -0.371 N 
HETATM   25  H6  UNL     1      27.409   7.244  49.516  1.00  0.00     0.161 HD
BRANCH  24  26
HETATM   26  C3  UNL     1      27.827   5.207  48.559  1.00  0.00     0.148 C 
BRANCH  26  27
HETATM   27  C2  UNL     1      26.663   4.562  49.181  1.00  0.00    -0.018 C 
HETATM   28  C1  UNL     1      26.585   3.276  49.509  1.00  0.00     0.008 C 
ENDBRANCH  26  27
ENDBRANCH  24  26
ENDBRANCH   1  24
TORSDOF 7
ENDMDL
MODEL 7
REMARK VINA RESULT:      -7.1      2.227      3.255
REMARK  7 active torsions:
REMARK  status: ('A' for Active; 'I' for Inactive)
REMARK    1  A    between atoms: C2_2  and  C3_3 
REMARK    2  A    between atoms: C3_3  and  N1_4 
REMARK    3  A    between atoms: N1_4  and  C4_5 
REMARK    4  A    between atoms: C7_10  and  C8_11 
REMARK       I    between atoms: N4_16  and  C12_17 
REMARK    5  A    between atoms: C12_17  and  C13_19 
REMARK    6  A    between atoms: C13_19  and  C14_20 
REMARK    7  A    between atoms: C18_24  and  O2_25 
ROOT
HETATM    1  C4  UNL     1      22.685   4.677  48.752  1.00  0.00     0.132 C 
HETATM    2  N2  UNL     1      22.117   5.401  49.708  1.00  0.00    -0.225 NA
HETATM    3  C5  UNL     1      21.950   5.224  51.123  1.00  0.00     0.231 C 
HETATM    4  N3  UNL     1      22.392   4.199  51.836  1.00  0.00    -0.256 NA
HETATM    5  C6  UNL     1      22.916   2.895  51.669  1.00  0.00     0.220 C 
HETATM    6  C7  UNL     1      22.228   1.963  50.740  1.00  0.00     0.063 C 
HETATM    7  C9  UNL     1      22.620   2.156  49.319  1.00  0.00    -0.005 C 
HETATM    8  C10 UNL     1      23.291   3.380  49.242  1.00  0.00     0.002 C 
HETATM    9  C11 UNL     1      24.677   3.139  49.895  1.00  0.00     0.170 C 
HETATM   10  N4  UNL     1      24.347   2.815  51.315  1.00  0.00    -0.324 N 
HETATM   11  C12 UNL     1      25.376   2.463  52.231  1.00  0.00     0.226 C 
HETATM   12  O1  UNL     1      25.062   2.187  53.420  1.00  0.00    -0.273 OA
ENDROOT
BRANCH  11  13
HETATM   13  C13 UNL     1      26.752   2.441  51.738  1.00  0.00     0.141 C 
BRANCH  13  14
HETATM   14  C14 UNL     1      27.573   1.596  52.622  1.00  0.00    -0.047 A 
HETATM   15  C15 UNL     1      28.413   2.233  53.537  1.00  0.00     0.007 A 
HETATM   16  C16 UNL     1      29.189   1.474  54.370  1.00  0.00     0.003 A 
HETATM   17  C17 UNL     1      29.129   0.098  54.288  1.00  0.00     0.037 A 
HETATM   18  C18 UNL     1      28.322  -0.555  53.408  1.00  0.00     0.068 A 
HETATM   19  C20 UNL     1      27.545   0.217  52.576  1.00  0.00     0.044 A 
BRANCH  18  20
HETATM   20  O2  UNL     1      28.200  -1.928  53.258  1.00  0.00    -0.356 OA
HETATM   21  C19 UNL     1      27.098  -2.438  52.570  1.00  0.00     0.210 C 
ENDBRANCH  18  20
ENDBRANCH  13  14
ENDBRANCH  11  13
BRANCH   6  22
HETATM   22  C8  UNL     1      20.718   1.980  50.894  1.00  0.00     0.097 C 
HETATM   23 BR1  UNL     1      20.159   0.436  51.923  1.00  0.00    -0.096 Br
ENDBRANCH   6  22
BRANCH   1  24
HETATM   24  N1  UNL     1      22.579   5.302  47.494  1.00  0.00    -0.371 N 
HETATM   25  H6  UNL     1      22.521   4.583  46.769  1.00  0.00     0.161 HD
BRANCH  24  26
HETATM   26  C3  UNL     1      22.578   6.755  47.488  1.00  0.00     0.148 C 
BRANCH  26  27
HETATM   27  C2  UNL     1      23.766   7.317  46.833  1.00  0.00    -0.018 C 
HETATM   28  C1  UNL     1      24.868   7.717  47.458  1.00  0.00     0.008 C 
ENDBRANCH  26  27
ENDBRANCH  24  26
ENDBRANCH   1  24
TORSDOF 7
ENDMDL
MODEL 8
REMARK VINA RESULT:      -7.1      3.509      6.665
REMARK  7 active torsions:
REMARK  status: ('A' for Active; 'I' for Inactive)
REMARK    1  A    between atoms: C2_2  and  C3_3 
REMARK    2  A    between atoms: C3_3  and  N1_4 
REMARK    3  A    between atoms: N1_4  and  C4_5 
REMARK    4  A    between atoms: C7_10  and  C8_11 
REMARK       I    between atoms: N4_16  and  C12_17 
REMARK    5  A    between atoms: C12_17  and  C13_19 
REMARK    6  A    between atoms: C13_19  and  C14_20 
REMARK    7  A    between atoms: C18_24  and  O2_25 
ROOT
HETATM    1  C4  UNL     1      19.851   1.760  50.119  1.00  0.00     0.132 C 
HETATM    2  N2  UNL     1      19.520   2.793  50.882  1.00  0.00    -0.225 NA
HETATM    3  C5  UNL     1      20.192   3.513  51.926  1.00  0.00     0.231 C 
HETATM    4  N3  UNL     1      21.416   3.274  52.373  1.00  0.00    -0.256 NA
HETATM    5  C6  UNL     1      22.431   2.289  52.310  1.00  0.00     0.220 C 
HETATM    6  C7  UNL     1      22.060   0.868  52.537  1.00  0.00     0.063 C 
HETATM    7  C9  UNL     1      21.525   0.200  51.321  1.00  0.00    -0.005 C 
HETATM    8  C10 UNL     1      21.232   1.207  50.397  1.00  0.00     0.002 C 
HETATM    9  C11 UNL     1      22.603   1.706  49.873  1.00  0.00     0.170 C 
HETATM   10  N4  UNL     1      23.255   2.287  51.085  1.00  0.00    -0.324 N 
HETATM   11  C12 UNL     1      24.580   2.797  51.016  1.00  0.00     0.226 C 
HETATM   12  O1  UNL     1      25.103   3.272  52.060  1.00  0.00    -0.273 OA
ENDROOT
BRANCH  11  13
HETATM   13  C13 UNL     1      25.267   2.741  49.727  1.00  0.00     0.141 C 
BRANCH  13  14
HETATM   14  C14 UNL     1      25.577   4.110  49.281  1.00  0.00    -0.047 A 
HETATM   15  C15 UNL     1      26.919   4.444  49.084  1.00  0.00     0.007 A 
HETATM   16  C16 UNL     1      27.238   5.709  48.672  1.00  0.00     0.003 A 
HETATM   17  C17 UNL     1      26.231   6.628  48.461  1.00  0.00     0.037 A 
HETATM   18  C18 UNL     1      24.914   6.338  48.644  1.00  0.00     0.068 A 
HETATM   19  C20 UNL     1      24.604   5.063  49.057  1.00  0.00     0.044 A 
BRANCH  18  20
HETATM   20  O2  UNL     1      23.843   7.197  48.457  1.00  0.00    -0.356 OA
HETATM   21  C19 UNL     1      24.047   8.394  47.769  1.00  0.00     0.210 C 
ENDBRANCH  18  20
ENDBRANCH  13  14
ENDBRANCH  11  13
BRANCH   6  22
HETATM   22  C8  UNL     1      21.124   0.681  53.717  1.00  0.00     0.097 C 
HETATM   23 BR1  UNL     1      21.046  -1.197  54.186  1.00  0.00    -0.096 Br
ENDBRANCH   6  22
BRANCH   1  24
HETATM   24  N1  UNL     1      18.816   1.422  49.224  1.00  0.00    -0.371 N 
HETATM   25  H6  UNL     1      19.174   1.474  48.267  1.00  0.00     0.161 HD
BRANCH  24  26
HETATM   26  C3  UNL     1      17.530   1.092  49.812  1.00  0.00     0.148 C 
BRANCH  26  27
HETATM   27  C2  UNL     1      17.536  -0.213  50.485  1.00  0.00    -0.018 C 
HETATM   28  C1  UNL     1      17.623  -0.397  51.798  1.00  0.00     0.008 C 
ENDBRANCH  26  27
ENDBRANCH  24  26
ENDBRANCH   1  24
TORSDOF 7
ENDMDL
MODEL 9
REMARK VINA RESULT:      -7.1      3.401      6.105
REMARK  7 active torsions:
REMARK  status: ('A' for Active; 'I' for Inactive)
REMARK    1  A    between atoms: C2_2  and  C3_3 
REMARK    2  A    between atoms: C3_3  and  N1_4 
REMARK    3  A    between atoms: N1_4  and  C4_5 
REMARK    4  A    between atoms: C7_10  and  C8_11 
REMARK       I    between atoms: N4_16  and  C12_17 
REMARK    5  A    between atoms: C12_17  and  C13_19 
REMARK    6  A    between atoms: C13_19  and  C14_20 
REMARK    7  A    between atoms: C18_24  and  O2_25 
ROOT
HETATM    1  C4  UNL     1      21.487   3.884  50.465  1.00  0.00     0.132 C 
HETATM    2  N2  UNL     1      21.672   4.609  51.560  1.00  0.00    -0.225 NA
HETATM    3  C5  UNL     1      22.708   4.665  52.553  1.00  0.00     0.231 C 
HETATM    4  N3  UNL     1      23.814   3.936  52.564  1.00  0.00    -0.256 NA
HETATM    5  C6  UNL     1      24.381   2.798  51.942  1.00  0.00     0.220 C 
HETATM    6  C7  UNL     1      23.560   1.566  51.825  1.00  0.00     0.063 C 
HETATM    7  C9  UNL     1      22.643   1.580  50.655  1.00  0.00    -0.005 C 
HETATM    8  C10 UNL     1      22.599   2.896  50.187  1.00  0.00     0.002 C 
HETATM    9  C11 UNL     1      23.963   3.138  49.489  1.00  0.00     0.170 C 
HETATM   10  N4  UNL     1      24.954   3.014  50.599  1.00  0.00    -0.324 N 
HETATM   11  C12 UNL     1      26.348   3.110  50.334  1.00  0.00     0.226 C 
HETATM   12  O1  UNL     1      27.158   2.992  51.292  1.00  0.00    -0.273 OA
ENDROOT
BRANCH  11  13
HETATM   13  C13 UNL     1      26.766   3.342  48.953  1.00  0.00     0.141 C 
BRANCH  13  14
HETATM   14  C14 UNL     1      27.224   4.734  48.809  1.00  0.00    -0.047 A 
HETATM   15  C15 UNL     1      26.298   5.753  49.043  1.00  0.00     0.007 A 
HETATM   16  C16 UNL     1      26.694   7.056  48.915  1.00  0.00     0.003 A 
HETATM   17  C17 UNL     1      27.997   7.338  48.558  1.00  0.00     0.037 A 
HETATM   18  C18 UNL     1      28.925   6.371  48.322  1.00  0.00     0.068 A 
HETATM   19  C20 UNL     1      28.516   5.064  48.454  1.00  0.00     0.044 A 
BRANCH  18  20
HETATM   20  O2  UNL     1      30.248   6.564  47.960  1.00  0.00    -0.356 OA
HETATM   21  C19 UNL     1      31.038   5.451  47.663  1.00  0.00     0.210 C 
ENDBRANCH  18  20
ENDBRANCH  13  14
ENDBRANCH  11  13
BRANCH   6  22
HETATM   22  C8  UNL     1      22.808   1.232  53.101  1.00  0.00     0.097 C 
HETATM   23 BR1  UNL     1      23.380  -0.502  53.750  1.00  0.00    -0.096 Br
ENDBRANCH   6  22
BRANCH   1  24
HETATM   24  N1  UNL     1      20.279   4.215  49.820  1.00  0.00    -0.371 N 
HETATM   25  H6  UNL     1      20.127   5.224  49.894  1.00  0.00     0.161 HD
BRANCH  24  26
HETATM   26  C3  UNL     1      19.540   3.117  49.220  1.00  0.00     0.148 C 
BRANCH  26  27
HETATM   27  C2  UNL     1      18.930   2.235  50.223  1.00  0.00    -0.018 C 
HETATM   28  C1  UNL     1      18.833   0.913  50.121  1.00  0.00     0.008 C 
ENDBRANCH  26  27
ENDBRANCH  24  26
ENDBRANCH   1  24
TORSDOF 7
ENDMDL
