MODEL 1
REMARK VINA RESULT:      -7.7      0.000      0.000
REMARK  5 active torsions:
REMARK  status: ('A' for Active; 'I' for Inactive)
REMARK    1  A    between atoms: O1_2  and  C2_3 
REMARK    2  A    between atoms: C6_9  and  S1_10 
REMARK    3  A    between atoms: S1_10  and  C7_11 
REMARK    4  A    between atoms: C14_19  and  N3_20 
REMARK    5  A    between atoms: N3_20  and  O2_21 
ROOT
HETATM    1  C2  UNL     1      27.197  -0.717  53.272  1.00  0.00     0.050 A 
HETATM    2  C3  UNL     1      26.008  -1.251  53.435  1.00  0.00     0.064 A 
HETATM    3  C4  UNL     1      24.874  -0.357  53.306  1.00  0.00     0.071 A 
HETATM    4  N1  UNL     1      23.616  -0.802  53.455  1.00  0.00    -0.241 NA
HETATM    5  C5  UNL     1      22.585   0.058  53.330  1.00  0.00     0.234 A 
HETATM    6  N2  UNL     1      22.829   1.357  53.056  1.00  0.00    -0.234 NA
HETATM    7  C6  UNL     1      24.100   1.833  52.899  1.00  0.00     0.110 A 
HETATM    8  C13 UNL     1      25.161   0.960  53.026  1.00  0.00     0.027 A 
HETATM    9  C14 UNL     1      26.466   1.629  52.828  1.00  0.00     0.127 A 
HETATM   10  C15 UNL     1      27.625   0.681  52.970  1.00  0.00     0.091 A 
ENDROOT
BRANCH   7  11
HETATM   11  S1  UNL     1      24.090   3.586  52.547  1.00  0.00    -0.070 SA
BRANCH  11  12
HETATM   12  C7  UNL     1      23.639   3.806  50.830  1.00  0.00     0.008 A 
HETATM   13  C8  UNL     1      23.665   5.155  50.456  1.00  0.00     0.019 A 
HETATM   14  C9  UNL     1      23.347   5.533  49.164  1.00  0.00     0.003 A 
HETATM   15  C10 UNL     1      22.993   4.567  48.212  1.00  0.00     0.024 A 
HETATM   16  C11 UNL     1      22.979   3.247  48.619  1.00  0.00     0.035 A 
HETATM   17 CL1  UNL     1      22.558   1.897  47.553  1.00  0.00    -0.084 Cl
HETATM   18  C12 UNL     1      23.289   2.858  49.885  1.00  0.00     0.042 A 
ENDBRANCH  11  12
ENDBRANCH   7  11
BRANCH   9  19
HETATM   19  N3  UNL     1      26.618   2.665  53.835  1.00  0.00    -0.199 NA
HETATM   20  H11 UNL     1      26.078   2.358  54.668  1.00  0.00     0.154 HD
BRANCH  19  21
HETATM   21  O2  UNL     1      27.900   2.878  54.152  1.00  0.00    -0.315 OA
HETATM   22  H12 UNL     1      28.240   3.665  53.634  1.00  0.00     0.236 HD
ENDBRANCH  19  21
ENDBRANCH   9  19
BRANCH   1  23
HETATM   23  O1  UNL     1      28.302  -1.562  53.391  1.00  0.00    -0.360 OA
HETATM   24  C1  UNL     1      29.629  -1.134  53.442  1.00  0.00     0.209 C 
ENDBRANCH   1  23
TORSDOF 5
ENDMDL
MODEL 2
REMARK VINA RESULT:      -7.4      1.144      1.422
REMARK  5 active torsions:
REMARK  status: ('A' for Active; 'I' for Inactive)
REMARK    1  A    between atoms: O1_2  and  C2_3 
REMARK    2  A    between atoms: C6_9  and  S1_10 
REMARK    3  A    between atoms: S1_10  and  C7_11 
REMARK    4  A    between atoms: C14_19  and  N3_20 
REMARK    5  A    between atoms: N3_20  and  O2_21 
ROOT
HETATM    1  C2  UNL     1      27.206  -0.689  53.279  1.00  0.00     0.050 A 
HETATM    2  C3  UNL     1      26.021  -1.230  53.451  1.00  0.00     0.064 A 
HETATM    3  C4  UNL     1      24.881  -0.344  53.324  1.00  0.00     0.071 A 
HETATM    4  N1  UNL     1      23.627  -0.797  53.482  1.00  0.00    -0.241 NA
HETATM    5  C5  UNL     1      22.589   0.056  53.358  1.00  0.00     0.234 A 
HETATM    6  N2  UNL     1      22.823   1.355  53.076  1.00  0.00    -0.234 NA
HETATM    7  C6  UNL     1      24.090   1.839  52.911  1.00  0.00     0.110 A 
HETATM    8  C13 UNL     1      25.158   0.974  53.036  1.00  0.00     0.027 A 
HETATM    9  C14 UNL     1      26.457   1.649  52.828  1.00  0.00     0.127 A 
HETATM   10  C15 UNL     1      27.623   0.710  52.968  1.00  0.00     0.091 A 
ENDROOT
BRANCH   7  11
HETATM   11  S1  UNL     1      24.067   3.590  52.550  1.00  0.00    -0.070 SA
BRANCH  11  12
HETATM   12  C7  UNL     1      23.290   3.819  50.955  1.00  0.00     0.008 A 
HETATM   13  C8  UNL     1      23.780   2.916  50.005  1.00  0.00     0.019 A 
HETATM   14  C9  UNL     1      23.303   2.932  48.707  1.00  0.00     0.003 A 
HETATM   15  C10 UNL     1      22.321   3.856  48.327  1.00  0.00     0.024 A 
HETATM   16  C11 UNL     1      21.862   4.731  49.292  1.00  0.00     0.035 A 
HETATM   17 CL1  UNL     1      20.626   5.963  48.990  1.00  0.00    -0.084 Cl
HETATM   18  C12 UNL     1      22.320   4.729  50.572  1.00  0.00     0.042 A 
ENDBRANCH  11  12
ENDBRANCH   7  11
BRANCH   9  19
HETATM   19  N3  UNL     1      26.608   2.692  53.829  1.00  0.00    -0.199 NA
HETATM   20  H11 UNL     1      26.044   2.403  54.653  1.00  0.00     0.154 HD
BRANCH  19  21
HETATM   21  O2  UNL     1      27.887   2.883  54.172  1.00  0.00    -0.315 OA
HETATM   22  H12 UNL     1      28.302   2.000  54.394  1.00  0.00     0.236 HD
ENDBRANCH  19  21
ENDBRANCH   9  19
BRANCH   1  23
HETATM   23  O1  UNL     1      28.317  -1.526  53.397  1.00  0.00    -0.360 OA
HETATM   24  C1  UNL     1      29.642  -1.090  53.433  1.00  0.00     0.209 C 
ENDBRANCH   1  23
TORSDOF 5
ENDMDL
MODEL 3
REMARK VINA RESULT:      -7.2      1.310      1.790
REMARK  5 active torsions:
REMARK  status: ('A' for Active; 'I' for Inactive)
REMARK    1  A    between atoms: O1_2  and  C2_3 
REMARK    2  A    between atoms: C6_9  and  S1_10 
REMARK    3  A    between atoms: S1_10  and  C7_11 
REMARK    4  A    between atoms: C14_19  and  N3_20 
REMARK    5  A    between atoms: N3_20  and  O2_21 
ROOT
HETATM    1  C2  UNL     1      26.368  -0.607  53.189  1.00  0.00     0.050 A 
HETATM    2  C3  UNL     1      25.253  -1.136  53.640  1.00  0.00     0.064 A 
HETATM    3  C4  UNL     1      24.052  -0.338  53.490  1.00  0.00     0.071 A 
HETATM    4  N1  UNL     1      22.861  -0.786  53.918  1.00  0.00    -0.241 NA
HETATM    5  C5  UNL     1      21.764  -0.016  53.764  1.00  0.00     0.234 A 
HETATM    6  N2  UNL     1      21.876   1.195  53.180  1.00  0.00    -0.234 NA
HETATM    7  C6  UNL     1      23.076   1.673  52.736  1.00  0.00     0.110 A 
HETATM    8  C13 UNL     1      24.204   0.892  52.890  1.00  0.00     0.027 A 
HETATM    9  C14 UNL     1      25.419   1.548  52.359  1.00  0.00     0.127 A 
HETATM   10  C15 UNL     1      26.650   0.702  52.529  1.00  0.00     0.091 A 
ENDROOT
BRANCH   7  11
HETATM   11  S1  UNL     1      22.895   3.299  52.016  1.00  0.00    -0.070 SA
BRANCH  11  12
HETATM   12  C7  UNL     1      22.551   3.100  50.272  1.00  0.00     0.008 A 
HETATM   13  C8  UNL     1      22.213   1.779  49.958  1.00  0.00     0.019 A 
HETATM   14  C9  UNL     1      21.910   1.420  48.656  1.00  0.00     0.003 A 
HETATM   15  C10 UNL     1      21.940   2.378  47.635  1.00  0.00     0.024 A 
HETATM   16  C11 UNL     1      22.278   3.672  47.984  1.00  0.00     0.035 A 
HETATM   17 CL1  UNL     1      22.364   5.009  46.826  1.00  0.00    -0.084 Cl
HETATM   18  C12 UNL     1      22.578   4.041  49.258  1.00  0.00     0.042 A 
ENDBRANCH  11  12
ENDBRANCH   7  11
BRANCH   9  19
HETATM   19  N3  UNL     1      25.634   2.790  53.082  1.00  0.00    -0.199 NA
HETATM   20  H11 UNL     1      24.728   3.044  53.521  1.00  0.00     0.154 HD
BRANCH  19  21
HETATM   21  O2  UNL     1      26.595   2.678  54.005  1.00  0.00    -0.315 OA
HETATM   22  H12 UNL     1      26.823   1.711  54.126  1.00  0.00     0.236 HD
ENDBRANCH  19  21
ENDBRANCH   9  19
BRANCH   1  23
HETATM   23  O1  UNL     1      27.536  -1.361  53.323  1.00  0.00    -0.360 OA
HETATM   24  C1  UNL     1      28.811  -0.825  53.510  1.00  0.00     0.209 C 
ENDBRANCH   1  23
TORSDOF 5
ENDMDL
MODEL 4
REMARK VINA RESULT:      -7.2      2.226      2.643
REMARK  5 active torsions:
REMARK  status: ('A' for Active; 'I' for Inactive)
REMARK    1  A    between atoms: O1_2  and  C2_3 
REMARK    2  A    between atoms: C6_9  and  S1_10 
REMARK    3  A    between atoms: S1_10  and  C7_11 
REMARK    4  A    between atoms: C14_19  and  N3_20 
REMARK    5  A    between atoms: N3_20  and  O2_21 
ROOT
HETATM    1  C2  UNL     1      26.540   0.108  53.447  1.00  0.00     0.050 A 
HETATM    2  C3  UNL     1      25.270   0.161  53.780  1.00  0.00     0.064 A 
HETATM    3  C4  UNL     1      24.418   0.988  52.947  1.00  0.00     0.071 A 
HETATM    4  N1  UNL     1      23.105   1.112  53.200  1.00  0.00    -0.241 NA
HETATM    5  C5  UNL     1      22.343   1.890  52.406  1.00  0.00     0.234 A 
HETATM    6  N2  UNL     1      22.908   2.536  51.364  1.00  0.00    -0.234 NA
HETATM    7  C6  UNL     1      24.241   2.426  51.086  1.00  0.00     0.110 A 
HETATM    8  C13 UNL     1      25.029   1.631  51.894  1.00  0.00     0.027 A 
HETATM    9  C14 UNL     1      26.443   1.616  51.461  1.00  0.00     0.127 A 
HETATM   10  C15 UNL     1      27.305   0.755  52.342  1.00  0.00     0.091 A 
ENDROOT
BRANCH   7  11
HETATM   11  S1  UNL     1      24.681   3.398  49.651  1.00  0.00    -0.070 SA
BRANCH  11  12
HETATM   12  C7  UNL     1      24.313   5.112  50.007  1.00  0.00     0.008 A 
HETATM   13  C8  UNL     1      25.474   5.893  50.056  1.00  0.00     0.019 A 
HETATM   14  C9  UNL     1      25.400   7.248  50.319  1.00  0.00     0.003 A 
HETATM   15  C10 UNL     1      24.158   7.858  50.539  1.00  0.00     0.024 A 
HETATM   16  C11 UNL     1      23.035   7.056  50.482  1.00  0.00     0.035 A 
HETATM   17 CL1  UNL     1      21.388   7.656  50.734  1.00  0.00    -0.084 Cl
HETATM   18  C12 UNL     1      23.090   5.722  50.225  1.00  0.00     0.042 A 
ENDBRANCH  11  12
ENDBRANCH   7  11
BRANCH   9  19
HETATM   19  N3  UNL     1      26.966   2.971  51.521  1.00  0.00    -0.199 NA
HETATM   20  H11 UNL     1      26.221   3.563  51.940  1.00  0.00     0.154 HD
BRANCH  19  21
HETATM   21  O2  UNL     1      28.093   3.046  52.237  1.00  0.00    -0.315 OA
HETATM   22  H12 UNL     1      27.867   3.291  53.180  1.00  0.00     0.236 HD
ENDBRANCH  19  21
ENDBRANCH   9  19
BRANCH   1  23
HETATM   23  O1  UNL     1      27.376  -0.684  54.237  1.00  0.00    -0.360 OA
HETATM   24  C1  UNL     1      28.651  -0.312  54.666  1.00  0.00     0.209 C 
ENDBRANCH   1  23
TORSDOF 5
ENDMDL
MODEL 5
REMARK VINA RESULT:      -7.0      3.978      7.557
REMARK  5 active torsions:
REMARK  status: ('A' for Active; 'I' for Inactive)
REMARK    1  A    between atoms: O1_2  and  C2_3 
REMARK    2  A    between atoms: C6_9  and  S1_10 
REMARK    3  A    between atoms: S1_10  and  C7_11 
REMARK    4  A    between atoms: C14_19  and  N3_20 
REMARK    5  A    between atoms: N3_20  and  O2_21 
ROOT
HETATM    1  C2  UNL     1      24.081   7.535  49.447  1.00  0.00     0.050 A 
HETATM    2  C3  UNL     1      25.209   7.193  48.867  1.00  0.00     0.064 A 
HETATM    3  C4  UNL     1      25.748   5.893  49.217  1.00  0.00     0.071 A 
HETATM    4  N1  UNL     1      26.896   5.448  48.682  1.00  0.00    -0.241 NA
HETATM    5  C5  UNL     1      27.369   4.235  49.031  1.00  0.00     0.234 A 
HETATM    6  N2  UNL     1      26.682   3.481  49.916  1.00  0.00    -0.234 NA
HETATM    7  C6  UNL     1      25.512   3.911  50.474  1.00  0.00     0.110 A 
HETATM    8  C13 UNL     1      25.021   5.152  50.122  1.00  0.00     0.027 A 
HETATM    9  C14 UNL     1      23.750   5.469  50.809  1.00  0.00     0.127 A 
HETATM   10  C15 UNL     1      23.214   6.823  50.432  1.00  0.00     0.091 A 
ENDROOT
BRANCH   7  11
HETATM   11  S1  UNL     1      24.851   2.691  51.601  1.00  0.00    -0.070 SA
BRANCH  11  12
HETATM   12  C7  UNL     1      26.222   1.792  52.316  1.00  0.00     0.008 A 
HETATM   13  C8  UNL     1      26.134   0.420  52.058  1.00  0.00     0.019 A 
HETATM   14  C9  UNL     1      27.102  -0.449  52.528  1.00  0.00     0.003 A 
HETATM   15  C10 UNL     1      28.186   0.037  53.270  1.00  0.00     0.024 A 
HETATM   16  C11 UNL     1      28.239   1.398  53.505  1.00  0.00     0.035 A 
HETATM   17 CL1  UNL     1      29.534   2.185  54.422  1.00  0.00    -0.084 Cl
HETATM   18  C12 UNL     1      27.295   2.265  53.050  1.00  0.00     0.042 A 
ENDBRANCH  11  12
ENDBRANCH   7  11
BRANCH   9  19
HETATM   19  N3  UNL     1      23.982   5.472  52.244  1.00  0.00    -0.199 NA
HETATM   20  H11 UNL     1      24.666   4.714  52.440  1.00  0.00     0.154 HD
BRANCH  19  21
HETATM   21  O2  UNL     1      24.440   6.650  52.680  1.00  0.00    -0.315 OA
HETATM   22  H12 UNL     1      24.557   7.266  51.900  1.00  0.00     0.236 HD
ENDBRANCH  19  21
ENDBRANCH   9  19
BRANCH   1  23
HETATM   23  O1  UNL     1      23.545   8.783  49.122  1.00  0.00    -0.360 OA
HETATM   24  C1  UNL     1      24.127   9.692  48.237  1.00  0.00     0.209 C 
ENDBRANCH   1  23
TORSDOF 5
ENDMDL
MODEL 6
REMARK VINA RESULT:      -7.0      4.217      6.560
REMARK  5 active torsions:
REMARK  status: ('A' for Active; 'I' for Inactive)
REMARK    1  A    between atoms: O1_2  and  C2_3 
REMARK    2  A    between atoms: C6_9  and  S1_10 
REMARK    3  A    between atoms: S1_10  and  C7_11 
REMARK    4  A    between atoms: C14_19  and  N3_20 
REMARK    5  A    between atoms: N3_20  and  O2_21 
ROOT
HETATM    1  C2  UNL     1      19.664  -0.184  52.995  1.00  0.00     0.050 A 
HETATM    2  C3  UNL     1      20.227  -0.909  53.935  1.00  0.00     0.064 A 
HETATM    3  C4  UNL     1      21.663  -0.772  54.084  1.00  0.00     0.071 A 
HETATM    4  N1  UNL     1      22.336  -1.469  55.014  1.00  0.00    -0.241 NA
HETATM    5  C5  UNL     1      23.671  -1.318  55.124  1.00  0.00     0.234 A 
HETATM    6  N2  UNL     1      24.317  -0.468  54.297  1.00  0.00    -0.234 NA
HETATM    7  C6  UNL     1      23.655   0.251  53.343  1.00  0.00     0.110 A 
HETATM    8  C13 UNL     1      22.288   0.103  53.224  1.00  0.00     0.027 A 
HETATM    9  C14 UNL     1      21.722   0.948  52.150  1.00  0.00     0.127 A 
HETATM   10  C15 UNL     1      20.233   0.786  52.014  1.00  0.00     0.091 A 
ENDROOT
BRANCH   7  11
HETATM   11  S1  UNL     1      24.785   1.279  52.414  1.00  0.00    -0.070 SA
BRANCH  11  12
HETATM   12  C7  UNL     1      26.452   0.847  52.893  1.00  0.00     0.008 A 
HETATM   13  C8  UNL     1      27.171   1.964  53.336  1.00  0.00     0.019 A 
HETATM   14  C9  UNL     1      28.484   1.836  53.752  1.00  0.00     0.003 A 
HETATM   15  C10 UNL     1      29.112   0.585  53.735  1.00  0.00     0.024 A 
HETATM   16  C11 UNL     1      28.371  -0.493  53.291  1.00  0.00     0.035 A 
HETATM   17 CL1  UNL     1      29.002  -2.146  53.201  1.00  0.00    -0.084 Cl
HETATM   18  C12 UNL     1      27.080  -0.386  52.878  1.00  0.00     0.042 A 
ENDBRANCH  11  12
ENDBRANCH   7  11
BRANCH   9  19
HETATM   19  N3  UNL     1      22.325   0.563  50.885  1.00  0.00    -0.199 NA
HETATM   20  H11 UNL     1      22.685  -0.405  51.004  1.00  0.00     0.154 HD
BRANCH  19  21
HETATM   21  O2  UNL     1      21.455   0.625  49.871  1.00  0.00    -0.315 OA
HETATM   22  H12 UNL     1      21.095  -0.291  49.691  1.00  0.00     0.236 HD
ENDBRANCH  19  21
ENDBRANCH   9  19
BRANCH   1  23
HETATM   23  O1  UNL     1      18.282  -0.302  52.836  1.00  0.00    -0.360 OA
HETATM   24  C1  UNL     1      17.545  -1.454  53.114  1.00  0.00     0.209 C 
ENDBRANCH   1  23
TORSDOF 5
ENDMDL
MODEL 7
REMARK VINA RESULT:      -6.9      3.008      4.184
REMARK  5 active torsions:
REMARK  status: ('A' for Active; 'I' for Inactive)
REMARK    1  A    between atoms: O1_2  and  C2_3 
REMARK    2  A    between atoms: C6_9  and  S1_10 
REMARK    3  A    between atoms: S1_10  and  C7_11 
REMARK    4  A    between atoms: C14_19  and  N3_20 
REMARK    5  A    between atoms: N3_20  and  O2_21 
ROOT
HETATM    1  C2  UNL     1      23.229   0.233  53.298  1.00  0.00     0.050 A 
HETATM    2  C3  UNL     1      22.371   0.543  52.352  1.00  0.00     0.064 A 
HETATM    3  C4  UNL     1      22.865   1.393  51.286  1.00  0.00     0.071 A 
HETATM    4  N1  UNL     1      22.070   1.770  50.272  1.00  0.00    -0.241 NA
HETATM    5  C5  UNL     1      22.561   2.562  49.298  1.00  0.00     0.234 A 
HETATM    6  N2  UNL     1      23.847   2.968  49.353  1.00  0.00    -0.234 NA
HETATM    7  C6  UNL     1      24.676   2.598  50.374  1.00  0.00     0.110 A 
HETATM    8  C13 UNL     1      24.181   1.787  51.376  1.00  0.00     0.027 A 
HETATM    9  C14 UNL     1      25.199   1.477  52.403  1.00  0.00     0.127 A 
HETATM   10  C15 UNL     1      24.662   0.597  53.498  1.00  0.00     0.091 A 
ENDROOT
BRANCH   7  11
HETATM   11  S1  UNL     1      26.309   3.296  50.163  1.00  0.00    -0.070 SA
BRANCH  11  12
HETATM   12  C7  UNL     1      26.124   5.013  49.701  1.00  0.00     0.008 A 
HETATM   13  C8  UNL     1      27.054   5.391  48.725  1.00  0.00     0.019 A 
HETATM   14  C9  UNL     1      27.074   6.684  48.235  1.00  0.00     0.003 A 
HETATM   15  C10 UNL     1      26.160   7.634  48.710  1.00  0.00     0.024 A 
HETATM   16  C11 UNL     1      25.258   7.224  49.672  1.00  0.00     0.035 A 
HETATM   17 CL1  UNL     1      24.034   8.287  50.385  1.00  0.00    -0.084 Cl
HETATM   18  C12 UNL     1      25.225   5.957  50.166  1.00  0.00     0.042 A 
ENDBRANCH  11  12
ENDBRANCH   7  11
BRANCH   9  19
HETATM   19  N3  UNL     1      25.642   2.719  53.013  1.00  0.00    -0.199 NA
HETATM   20  H11 UNL     1      24.819   3.127  53.499  1.00  0.00     0.154 HD
BRANCH  19  21
HETATM   21  O2  UNL     1      26.653   2.531  53.867  1.00  0.00    -0.315 OA
HETATM   22  H12 UNL     1      27.191   3.373  53.931  1.00  0.00     0.236 HD
ENDBRANCH  19  21
ENDBRANCH   9  19
BRANCH   1  23
HETATM   23  O1  UNL     1      22.772  -0.586  54.333  1.00  0.00    -0.360 OA
HETATM   24  C1  UNL     1      21.569  -1.292  54.318  1.00  0.00     0.209 C 
ENDBRANCH   1  23
TORSDOF 5
ENDMDL
MODEL 8
REMARK VINA RESULT:      -6.7      2.223      3.315
REMARK  5 active torsions:
REMARK  status: ('A' for Active; 'I' for Inactive)
REMARK    1  A    between atoms: O1_2  and  C2_3 
REMARK    2  A    between atoms: C6_9  and  S1_10 
REMARK    3  A    between atoms: S1_10  and  C7_11 
REMARK    4  A    between atoms: C14_19  and  N3_20 
REMARK    5  A    between atoms: N3_20  and  O2_21 
ROOT
HETATM    1  C2  UNL     1      27.542   0.210  53.814  1.00  0.00     0.050 A 
HETATM    2  C3  UNL     1      27.919   1.039  52.867  1.00  0.00     0.064 A 
HETATM    3  C4  UNL     1      26.869   1.804  52.222  1.00  0.00     0.071 A 
HETATM    4  N1  UNL     1      27.146   2.678  51.241  1.00  0.00    -0.241 NA
HETATM    5  C5  UNL     1      26.145   3.371  50.663  1.00  0.00     0.234 A 
HETATM    6  N2  UNL     1      24.874   3.178  51.076  1.00  0.00    -0.234 NA
HETATM    7  C6  UNL     1      24.567   2.295  52.071  1.00  0.00     0.110 A 
HETATM    8  C13 UNL     1      25.586   1.581  52.669  1.00  0.00     0.027 A 
HETATM    9  C14 UNL     1      25.090   0.671  53.725  1.00  0.00     0.127 A 
HETATM   10  C15 UNL     1      26.198  -0.112  54.375  1.00  0.00     0.091 A 
ENDROOT
BRANCH   7  11
HETATM   11  S1  UNL     1      22.807   2.267  52.385  1.00  0.00    -0.070 SA
BRANCH  11  12
HETATM   12  C7  UNL     1      21.959   2.384  50.815  1.00  0.00     0.008 A 
HETATM   13  C8  UNL     1      21.953   1.159  50.136  1.00  0.00     0.019 A 
HETATM   14  C9  UNL     1      21.344   1.043  48.900  1.00  0.00     0.003 A 
HETATM   15  C10 UNL     1      20.725   2.152  48.310  1.00  0.00     0.024 A 
HETATM   16  C11 UNL     1      20.751   3.343  49.010  1.00  0.00     0.035 A 
HETATM   17 CL1  UNL     1      20.021   4.844  48.418  1.00  0.00    -0.084 Cl
HETATM   18  C12 UNL     1      21.346   3.476  50.226  1.00  0.00     0.042 A 
ENDBRANCH  11  12
ENDBRANCH   7  11
BRANCH   9  19
HETATM   19  N3  UNL     1      24.169  -0.281  53.128  1.00  0.00    -0.199 NA
HETATM   20  H11 UNL     1      24.743  -0.958  52.587  1.00  0.00     0.154 HD
BRANCH  19  21
HETATM   21  O2  UNL     1      23.429  -0.912  54.046  1.00  0.00    -0.315 OA
HETATM   22  H12 UNL     1      23.928  -0.933  54.913  1.00  0.00     0.236 HD
ENDBRANCH  19  21
ENDBRANCH   9  19
BRANCH   1  23
HETATM   23  O1  UNL     1      28.539  -0.535  54.447  1.00  0.00    -0.360 OA
HETATM   24  C1  UNL     1      29.749  -0.906  53.860  1.00  0.00     0.209 C 
ENDBRANCH   1  23
TORSDOF 5
ENDMDL
MODEL 9
REMARK VINA RESULT:      -6.7      4.098      6.216
REMARK  5 active torsions:
REMARK  status: ('A' for Active; 'I' for Inactive)
REMARK    1  A    between atoms: O1_2  and  C2_3 
REMARK    2  A    between atoms: C6_9  and  S1_10 
REMARK    3  A    between atoms: S1_10  and  C7_11 
REMARK    4  A    between atoms: C14_19  and  N3_20 
REMARK    5  A    between atoms: N3_20  and  O2_21 
ROOT
HETATM    1  C2  UNL     1      26.246   6.441  48.708  1.00  0.00     0.050 A 
HETATM    2  C3  UNL     1      26.923   5.322  48.828  1.00  0.00     0.064 A 
HETATM    3  C4  UNL     1      26.391   4.340  49.754  1.00  0.00     0.071 A 
HETATM    4  N1  UNL     1      27.007   3.164  49.951  1.00  0.00    -0.241 NA
HETATM    5  C5  UNL     1      26.486   2.275  50.820  1.00  0.00     0.234 A 
HETATM    6  N2  UNL     1      25.349   2.578  51.482  1.00  0.00    -0.234 NA
HETATM    7  C6  UNL     1      24.703   3.768  51.298  1.00  0.00     0.110 A 
HETATM    8  C13 UNL     1      25.231   4.684  50.410  1.00  0.00     0.027 A 
HETATM    9  C14 UNL     1      24.417   5.916  50.324  1.00  0.00     0.127 A 
HETATM   10  C15 UNL     1      24.991   6.918  49.361  1.00  0.00     0.091 A 
ENDROOT
BRANCH   7  11
HETATM   11  S1  UNL     1      23.235   3.867  52.315  1.00  0.00    -0.070 SA
BRANCH  11  12
HETATM   12  C7  UNL     1      22.407   2.283  52.252  1.00  0.00     0.008 A 
HETATM   13  C8  UNL     1      21.676   2.126  51.069  1.00  0.00     0.019 A 
HETATM   14  C9  UNL     1      20.963   0.965  50.831  1.00  0.00     0.003 A 
HETATM   15  C10 UNL     1      20.965  -0.071  51.773  1.00  0.00     0.024 A 
HETATM   16  C11 UNL     1      21.698   0.120  52.929  1.00  0.00     0.035 A 
HETATM   17 CL1  UNL     1      21.813  -1.079  54.226  1.00  0.00    -0.084 Cl
HETATM   18  C12 UNL     1      22.404   1.256  53.179  1.00  0.00     0.042 A 
ENDBRANCH  11  12
ENDBRANCH   7  11
BRANCH   9  19
HETATM   19  N3  UNL     1      24.372   6.540  51.635  1.00  0.00    -0.199 NA
HETATM   20  H11 UNL     1      25.291   6.361  52.086  1.00  0.00     0.154 HD
BRANCH  19  21
HETATM   21  O2  UNL     1      24.127   7.853  51.562  1.00  0.00    -0.315 OA
HETATM   22  H12 UNL     1      23.266   8.052  52.033  1.00  0.00     0.236 HD
ENDBRANCH  19  21
ENDBRANCH   9  19
BRANCH   1  23
HETATM   23  O1  UNL     1      26.742   7.399  47.821  1.00  0.00    -0.360 OA
HETATM   24  C1  UNL     1      28.079   7.511  47.439  1.00  0.00     0.209 C 
ENDBRANCH   1  23
TORSDOF 5
ENDMDL
