MODEL 1
REMARK VINA RESULT:      -7.3      0.000      0.000
REMARK  6 active torsions:
REMARK  status: ('A' for Active; 'I' for Inactive)
REMARK    1  A    between atoms: C2_2  and  O1_3 
REMARK    2  A    between atoms: O1_3  and  C3_4 
REMARK    3  A    between atoms: C12_15  and  N3_16 
REMARK       I    between atoms: N3_16  and  C13_17 
REMARK    4  A    between atoms: C13_17  and  C14_19 
REMARK    5  A    between atoms: C15_20  and  C16_21 
REMARK    6  A    between atoms: C16_21  and  N4_22 
ROOT
HETATM    1  C3  UNL     1      26.475   1.578  52.339  1.00  0.00     0.097 A 
HETATM    2  C4  UNL     1      25.808   0.503  52.888  1.00  0.00     0.071 A 
HETATM    3  C5  UNL     1      24.434   0.387  52.840  1.00  0.00     0.069 A 
HETATM    4  N1  UNL     1      23.897  -0.692  53.401  1.00  0.00    -0.259 NA
HETATM    5  C6  UNL     1      22.564  -0.861  53.385  1.00  0.00     0.140 A 
HETATM    6  C7  UNL     1      21.789   0.100  52.779  1.00  0.00     0.063 A 
HETATM    7  C8  UNL     1      20.375  -0.110  52.782  1.00  0.00     0.101 C 
HETATM    8  N2  UNL     1      19.226  -0.278  52.804  1.00  0.00    -0.191 NA
HETATM    9  C9  UNL     1      22.354   1.219  52.197  1.00  0.00     0.038 A 
HETATM   10  C10 UNL     1      23.741   1.396  52.213  1.00  0.00    -0.004 A 
HETATM   11  C11 UNL     1      24.374   2.477  51.658  1.00  0.00     0.046 A 
HETATM   12  C12 UNL     1      25.760   2.590  51.711  1.00  0.00     0.069 A 
ENDROOT
BRANCH  12  13
HETATM   13  N3  UNL     1      26.402   3.739  51.117  1.00  0.00    -0.321 N 
HETATM   14  C13 UNL     1      26.667   3.553  49.739  1.00  0.00     0.245 C 
HETATM   15  O2  UNL     1      26.358   2.495  49.155  1.00  0.00    -0.268 OA
HETATM   16  H10 UNL     1      26.667   4.637  51.596  1.00  0.00     0.169 HD
BRANCH  14  17
HETATM   17  C14 UNL     1      27.308   4.565  48.923  1.00  0.00     0.072 C 
HETATM   18  C15 UNL     1      27.030   5.840  48.726  1.00  0.00     0.008 C 
BRANCH  18  19
HETATM   19  C16 UNL     1      27.631   6.928  47.914  1.00  0.00     0.299 C 
BRANCH  19  20
HETATM   20  N4  UNL     1      27.568   8.191  48.625  1.00  0.00     0.083 N 
HETATM   21  C17 UNL     1      26.678   8.113  49.751  1.00  0.00     0.309 C 
HETATM   22  C18 UNL     1      28.859   8.711  48.957  1.00  0.00     0.309 C 
ENDBRANCH  19  20
ENDBRANCH  18  19
ENDBRANCH  14  17
ENDBRANCH  12  13
BRANCH   1  23
HETATM   23  O1  UNL     1      27.851   1.761  52.351  1.00  0.00    -0.349 OA
BRANCH  23  24
HETATM   24  C2  UNL     1      28.652   1.744  53.508  1.00  0.00     0.171 C 
HETATM   25  C1  UNL     1      29.478   0.482  53.631  1.00  0.00     0.034 C 
ENDBRANCH  23  24
ENDBRANCH   1  23
TORSDOF 6
ENDMDL
MODEL 2
REMARK VINA RESULT:      -7.1      3.974      8.451
REMARK  6 active torsions:
REMARK  status: ('A' for Active; 'I' for Inactive)
REMARK    1  A    between atoms: C2_2  and  O1_3 
REMARK    2  A    between atoms: O1_3  and  C3_4 
REMARK    3  A    between atoms: C12_15  and  N3_16 
REMARK       I    between atoms: N3_16  and  C13_17 
REMARK    4  A    between atoms: C13_17  and  C14_19 
REMARK    5  A    between atoms: C15_20  and  C16_21 
REMARK    6  A    between atoms: C16_21  and  N4_22 
ROOT
HETATM    1  C3  UNL     1      23.343   2.498  52.647  1.00  0.00     0.097 A 
HETATM    2  C4  UNL     1      24.710   2.674  52.641  1.00  0.00     0.071 A 
HETATM    3  C5  UNL     1      25.588   1.621  52.796  1.00  0.00     0.069 A 
HETATM    4  N1  UNL     1      26.886   1.906  52.775  1.00  0.00    -0.259 NA
HETATM    5  C6  UNL     1      27.791   0.922  52.920  1.00  0.00     0.140 A 
HETATM    6  C7  UNL     1      27.335  -0.365  53.089  1.00  0.00     0.063 A 
HETATM    7  C8  UNL     1      28.323  -1.387  53.243  1.00  0.00     0.101 C 
HETATM    8  N2  UNL     1      29.131  -2.210  53.385  1.00  0.00    -0.191 NA
HETATM    9  C9  UNL     1      25.984  -0.654  53.110  1.00  0.00     0.038 A 
HETATM   10  C10 UNL     1      25.043   0.368  52.958  1.00  0.00    -0.004 A 
HETATM   11  C11 UNL     1      23.689   0.162  52.968  1.00  0.00     0.046 A 
HETATM   12  C12 UNL     1      22.808   1.227  52.812  1.00  0.00     0.069 A 
ENDROOT
BRANCH  12  13
HETATM   13  N3  UNL     1      21.386   0.980  52.826  1.00  0.00    -0.321 N 
HETATM   14  C13 UNL     1      20.881   0.680  51.538  1.00  0.00     0.245 C 
HETATM   15  O2  UNL     1      21.628   0.644  50.540  1.00  0.00    -0.268 OA
HETATM   16  H10 UNL     1      20.744   1.005  53.659  1.00  0.00     0.169 HD
BRANCH  14  17
HETATM   17  C14 UNL     1      19.480   0.396  51.295  1.00  0.00     0.072 C 
HETATM   18  C15 UNL     1      18.586  -0.279  51.992  1.00  0.00     0.008 C 
BRANCH  18  19
HETATM   19  C16 UNL     1      17.151  -0.611  51.810  1.00  0.00     0.299 C 
BRANCH  19  20
HETATM   20  N4  UNL     1      16.700  -1.520  52.847  1.00  0.00     0.083 N 
HETATM   21  C17 UNL     1      15.665  -2.394  52.362  1.00  0.00     0.309 C 
HETATM   22  C18 UNL     1      17.774  -2.215  53.487  1.00  0.00     0.309 C 
ENDBRANCH  19  20
ENDBRANCH  18  19
ENDBRANCH  14  17
ENDBRANCH  12  13
BRANCH   1  23
HETATM   23  O1  UNL     1      22.403   3.508  52.498  1.00  0.00    -0.349 OA
BRANCH  23  24
HETATM   24  C2  UNL     1      22.237   4.285  51.335  1.00  0.00     0.171 C 
HETATM   25  C1  UNL     1      20.783   4.485  50.967  1.00  0.00     0.034 C 
ENDBRANCH  23  24
ENDBRANCH   1  23
TORSDOF 6
ENDMDL
MODEL 3
REMARK VINA RESULT:      -7.0      4.105      8.561
REMARK  6 active torsions:
REMARK  status: ('A' for Active; 'I' for Inactive)
REMARK    1  A    between atoms: C2_2  and  O1_3 
REMARK    2  A    between atoms: O1_3  and  C3_4 
REMARK    3  A    between atoms: C12_15  and  N3_16 
REMARK       I    between atoms: N3_16  and  C13_17 
REMARK    4  A    between atoms: C13_17  and  C14_19 
REMARK    5  A    between atoms: C15_20  and  C16_21 
REMARK    6  A    between atoms: C16_21  and  N4_22 
ROOT
HETATM    1  C3  UNL     1      23.379   1.850  52.738  1.00  0.00     0.097 A 
HETATM    2  C4  UNL     1      24.637   2.383  52.925  1.00  0.00     0.071 A 
HETATM    3  C5  UNL     1      25.752   1.591  53.106  1.00  0.00     0.069 A 
HETATM    4  N1  UNL     1      26.915   2.211  53.276  1.00  0.00    -0.259 NA
HETATM    5  C6  UNL     1      28.037   1.494  53.458  1.00  0.00     0.140 A 
HETATM    6  C7  UNL     1      27.942   0.122  53.461  1.00  0.00     0.063 A 
HETATM    7  C8  UNL     1      29.154  -0.611  53.659  1.00  0.00     0.101 C 
HETATM    8  N2  UNL     1      30.140  -1.199  53.838  1.00  0.00    -0.191 NA
HETATM    9  C9  UNL     1      26.730  -0.517  53.284  1.00  0.00     0.038 A 
HETATM   10  C10 UNL     1      25.562   0.228  53.094  1.00  0.00    -0.004 A 
HETATM   11  C11 UNL     1      24.326  -0.331  52.912  1.00  0.00     0.046 A 
HETATM   12  C12 UNL     1      23.204   0.472  52.730  1.00  0.00     0.069 A 
ENDROOT
BRANCH  12  13
HETATM   13  N3  UNL     1      21.913  -0.145  52.539  1.00  0.00    -0.321 N 
HETATM   14  C13 UNL     1      21.305  -0.507  53.766  1.00  0.00     0.245 C 
HETATM   15  O2  UNL     1      21.868  -0.292  54.858  1.00  0.00    -0.268 OA
HETATM   16  H10 UNL     1      21.425  -0.331  51.626  1.00  0.00     0.169 HD
BRANCH  14  17
HETATM   17  C14 UNL     1      20.006  -1.145  53.835  1.00  0.00     0.072 C 
HETATM   18  C15 UNL     1      18.866  -0.887  53.221  1.00  0.00     0.008 C 
BRANCH  18  19
HETATM   19  C16 UNL     1      17.508  -1.486  53.240  1.00  0.00     0.299 C 
BRANCH  19  20
HETATM   20  N4  UNL     1      16.696  -0.949  52.165  1.00  0.00     0.083 N 
HETATM   21  C17 UNL     1      15.606  -0.162  52.676  1.00  0.00     0.309 C 
HETATM   22  C18 UNL     1      17.465  -0.271  51.168  1.00  0.00     0.309 C 
ENDBRANCH  19  20
ENDBRANCH  18  19
ENDBRANCH  14  17
ENDBRANCH  12  13
BRANCH   1  23
HETATM   23  O1  UNL     1      22.216   2.583  52.551  1.00  0.00    -0.349 OA
BRANCH  23  24
HETATM   24  C2  UNL     1      22.174   3.950  52.216  1.00  0.00     0.171 C 
HETATM   25  C1  UNL     1      21.350   4.225  50.977  1.00  0.00     0.034 C 
ENDBRANCH  23  24
ENDBRANCH   1  23
TORSDOF 6
ENDMDL
MODEL 4
REMARK VINA RESULT:      -7.0      1.648      2.212
REMARK  6 active torsions:
REMARK  status: ('A' for Active; 'I' for Inactive)
REMARK    1  A    between atoms: C2_2  and  O1_3 
REMARK    2  A    between atoms: O1_3  and  C3_4 
REMARK    3  A    between atoms: C12_15  and  N3_16 
REMARK       I    between atoms: N3_16  and  C13_17 
REMARK    4  A    between atoms: C13_17  and  C14_19 
REMARK    5  A    between atoms: C15_20  and  C16_21 
REMARK    6  A    between atoms: C16_21  and  N4_22 
ROOT
HETATM    1  C3  UNL     1      24.753   1.143  52.540  1.00  0.00     0.097 A 
HETATM    2  C4  UNL     1      24.169   0.237  53.400  1.00  0.00     0.071 A 
HETATM    3  C5  UNL     1      22.822  -0.057  53.355  1.00  0.00     0.069 A 
HETATM    4  N1  UNL     1      22.367  -0.947  54.231  1.00  0.00    -0.259 NA
HETATM    5  C6  UNL     1      21.064  -1.275  54.236  1.00  0.00     0.140 A 
HETATM    6  C7  UNL     1      20.233  -0.672  53.321  1.00  0.00     0.063 A 
HETATM    7  C8  UNL     1      18.853  -1.041  53.354  1.00  0.00     0.101 C 
HETATM    8  N2  UNL     1      17.729  -1.334  53.400  1.00  0.00    -0.191 NA
HETATM    9  C9  UNL     1      20.714   0.252  52.412  1.00  0.00     0.038 A 
HETATM   10  C10 UNL     1      22.069   0.595  52.406  1.00  0.00    -0.004 A 
HETATM   11  C11 UNL     1      22.619   1.500  51.538  1.00  0.00     0.046 A 
HETATM   12  C12 UNL     1      23.979   1.794  51.588  1.00  0.00     0.069 A 
ENDROOT
BRANCH  12  13
HETATM   13  N3  UNL     1      24.532   2.752  50.660  1.00  0.00    -0.321 N 
HETATM   14  C13 UNL     1      24.387   4.084  51.115  1.00  0.00     0.245 C 
HETATM   15  O2  UNL     1      23.836   4.343  52.204  1.00  0.00    -0.268 OA
HETATM   16  H10 UNL     1      25.001   2.549  49.741  1.00  0.00     0.169 HD
BRANCH  14  17
HETATM   17  C14 UNL     1      24.862   5.225  50.357  1.00  0.00     0.072 C 
HETATM   18  C15 UNL     1      25.689   5.316  49.333  1.00  0.00     0.008 C 
BRANCH  18  19
HETATM   19  C16 UNL     1      26.220   6.434  48.513  1.00  0.00     0.299 C 
BRANCH  19  20
HETATM   20  N4  UNL     1      27.671   6.447  48.543  1.00  0.00     0.083 N 
HETATM   21  C17 UNL     1      28.206   5.114  48.483  1.00  0.00     0.309 C 
HETATM   22  C18 UNL     1      28.242   7.331  47.574  1.00  0.00     0.309 C 
ENDBRANCH  19  20
ENDBRANCH  18  19
ENDBRANCH  14  17
ENDBRANCH  12  13
BRANCH   1  23
HETATM   23  O1  UNL     1      26.097   1.488  52.528  1.00  0.00    -0.349 OA
BRANCH  23  24
HETATM   24  C2  UNL     1      26.781   2.087  53.603  1.00  0.00     0.171 C 
HETATM   25  C1  UNL     1      28.261   2.252  53.337  1.00  0.00     0.034 C 
ENDBRANCH  23  24
ENDBRANCH   1  23
TORSDOF 6
ENDMDL
MODEL 5
REMARK VINA RESULT:      -6.8      3.860      8.328
REMARK  6 active torsions:
REMARK  status: ('A' for Active; 'I' for Inactive)
REMARK    1  A    between atoms: C2_2  and  O1_3 
REMARK    2  A    between atoms: O1_3  and  C3_4 
REMARK    3  A    between atoms: C12_15  and  N3_16 
REMARK       I    between atoms: N3_16  and  C13_17 
REMARK    4  A    between atoms: C13_17  and  C14_19 
REMARK    5  A    between atoms: C15_20  and  C16_21 
REMARK    6  A    between atoms: C16_21  and  N4_22 
ROOT
HETATM    1  C3  UNL     1      22.155   0.889  52.182  1.00  0.00     0.097 A 
HETATM    2  C4  UNL     1      23.517   0.962  52.383  1.00  0.00     0.071 A 
HETATM    3  C5  UNL     1      24.337   1.740  51.592  1.00  0.00     0.069 A 
HETATM    4  N1  UNL     1      25.635   1.736  51.877  1.00  0.00    -0.259 NA
HETATM    5  C6  UNL     1      26.485   2.475  51.143  1.00  0.00     0.140 A 
HETATM    6  C7  UNL     1      25.974   3.222  50.107  1.00  0.00     0.063 A 
HETATM    7  C8  UNL     1      26.904   3.994  49.344  1.00  0.00     0.101 C 
HETATM    8  N2  UNL     1      27.669   4.605  48.718  1.00  0.00    -0.191 NA
HETATM    9  C9  UNL     1      24.623   3.222  49.816  1.00  0.00     0.038 A 
HETATM   10  C10 UNL     1      23.739   2.454  50.580  1.00  0.00    -0.004 A 
HETATM   11  C11 UNL     1      22.389   2.402  50.354  1.00  0.00     0.046 A 
HETATM   12  C12 UNL     1      21.566   1.614  51.154  1.00  0.00     0.069 A 
ENDROOT
BRANCH  12  13
HETATM   13  N3  UNL     1      20.147   1.579  50.893  1.00  0.00    -0.321 N 
HETATM   14  C13 UNL     1      19.442   2.564  51.626  1.00  0.00     0.245 C 
HETATM   15  O2  UNL     1      20.034   3.349  52.395  1.00  0.00    -0.268 OA
HETATM   16  H10 UNL     1      19.635   0.925  50.248  1.00  0.00     0.169 HD
BRANCH  14  17
HETATM   17  C14 UNL     1      18.005   2.725  51.536  1.00  0.00     0.072 C 
HETATM   18  C15 UNL     1      17.218   3.753  51.795  1.00  0.00     0.008 C 
BRANCH  18  19
HETATM   19  C16 UNL     1      15.755   3.993  51.729  1.00  0.00     0.299 C 
BRANCH  19  20
HETATM   20  N4  UNL     1      15.088   3.405  52.876  1.00  0.00     0.083 N 
HETATM   21  C17 UNL     1      14.163   4.330  53.474  1.00  0.00     0.309 C 
HETATM   22  C18 UNL     1      14.509   2.128  52.593  1.00  0.00     0.309 C 
ENDBRANCH  19  20
ENDBRANCH  18  19
ENDBRANCH  14  17
ENDBRANCH  12  13
BRANCH   1  23
HETATM   23  O1  UNL     1      21.272   0.128  52.934  1.00  0.00    -0.349 OA
BRANCH  23  24
HETATM   24  C2  UNL     1      21.244   0.089  54.341  1.00  0.00     0.171 C 
HETATM   25  C1  UNL     1      21.923  -1.139  54.907  1.00  0.00     0.034 C 
ENDBRANCH  23  24
ENDBRANCH   1  23
TORSDOF 6
ENDMDL
MODEL 6
REMARK VINA RESULT:      -6.8      2.382      8.566
REMARK  6 active torsions:
REMARK  status: ('A' for Active; 'I' for Inactive)
REMARK    1  A    between atoms: C2_2  and  O1_3 
REMARK    2  A    between atoms: O1_3  and  C3_4 
REMARK    3  A    between atoms: C12_15  and  N3_16 
REMARK       I    between atoms: N3_16  and  C13_17 
REMARK    4  A    between atoms: C13_17  and  C14_19 
REMARK    5  A    between atoms: C15_20  and  C16_21 
REMARK    6  A    between atoms: C16_21  and  N4_22 
ROOT
HETATM    1  C3  UNL     1      23.787   4.702  49.648  1.00  0.00     0.097 A 
HETATM    2  C4  UNL     1      24.394   5.832  49.142  1.00  0.00     0.071 A 
HETATM    3  C5  UNL     1      25.738   5.871  48.833  1.00  0.00     0.069 A 
HETATM    4  N1  UNL     1      26.216   7.013  48.350  1.00  0.00    -0.259 NA
HETATM    5  C6  UNL     1      27.517   7.113  48.030  1.00  0.00     0.140 A 
HETATM    6  C7  UNL     1      28.322   6.012  48.214  1.00  0.00     0.063 A 
HETATM    7  C8  UNL     1      29.701   6.152  47.866  1.00  0.00     0.101 C 
HETATM    8  N2  UNL     1      30.824   6.279  47.597  1.00  0.00    -0.191 NA
HETATM    9  C9  UNL     1      27.818   4.827  48.716  1.00  0.00     0.038 A 
HETATM   10  C10 UNL     1      26.464   4.723  49.049  1.00  0.00    -0.004 A 
HETATM   11  C11 UNL     1      25.891   3.585  49.550  1.00  0.00     0.046 A 
HETATM   12  C12 UNL     1      24.535   3.551  49.862  1.00  0.00     0.069 A 
ENDROOT
BRANCH  12  13
HETATM   13  N3  UNL     1      23.958   2.338  50.388  1.00  0.00    -0.321 N 
HETATM   14  C13 UNL     1      24.190   2.192  51.777  1.00  0.00     0.245 C 
HETATM   15  O2  UNL     1      24.827   3.049  52.423  1.00  0.00    -0.268 OA
HETATM   16  H10 UNL     1      23.417   1.608  49.858  1.00  0.00     0.169 HD
BRANCH  14  17
HETATM   17  C14 UNL     1      23.710   1.053  52.535  1.00  0.00     0.072 C 
HETATM   18  C15 UNL     1      22.655   0.275  52.378  1.00  0.00     0.008 C 
BRANCH  18  19
HETATM   19  C16 UNL     1      22.102  -0.895  53.104  1.00  0.00     0.299 C 
BRANCH  19  20
HETATM   20  N4  UNL     1      20.785  -0.594  53.634  1.00  0.00     0.083 N 
HETATM   21  C17 UNL     1      20.872   0.189  54.837  1.00  0.00     0.309 C 
HETATM   22  C18 UNL     1      19.904  -0.033  52.656  1.00  0.00     0.309 C 
ENDBRANCH  19  20
ENDBRANCH  18  19
ENDBRANCH  14  17
ENDBRANCH  12  13
BRANCH   1  23
HETATM   23  O1  UNL     1      22.445   4.592  49.982  1.00  0.00    -0.349 OA
BRANCH  23  24
HETATM   24  C2  UNL     1      21.847   5.185  51.109  1.00  0.00     0.171 C 
HETATM   25  C1  UNL     1      21.210   4.173  52.036  1.00  0.00     0.034 C 
ENDBRANCH  23  24
ENDBRANCH   1  23
TORSDOF 6
ENDMDL
MODEL 7
REMARK VINA RESULT:      -6.8      2.545      4.344
REMARK  6 active torsions:
REMARK  status: ('A' for Active; 'I' for Inactive)
REMARK    1  A    between atoms: C2_2  and  O1_3 
REMARK    2  A    between atoms: O1_3  and  C3_4 
REMARK    3  A    between atoms: C12_15  and  N3_16 
REMARK       I    between atoms: N3_16  and  C13_17 
REMARK    4  A    between atoms: C13_17  and  C14_19 
REMARK    5  A    between atoms: C15_20  and  C16_21 
REMARK    6  A    between atoms: C16_21  and  N4_22 
ROOT
HETATM    1  C3  UNL     1      23.714   3.403  52.271  1.00  0.00     0.097 A 
HETATM    2  C4  UNL     1      23.539   2.189  52.901  1.00  0.00     0.071 A 
HETATM    3  C5  UNL     1      24.479   1.182  52.833  1.00  0.00     0.069 A 
HETATM    4  N1  UNL     1      24.206   0.053  53.479  1.00  0.00    -0.259 NA
HETATM    5  C6  UNL     1      25.083  -0.964  53.450  1.00  0.00     0.140 A 
HETATM    6  C7  UNL     1      26.252  -0.800  52.743  1.00  0.00     0.063 A 
HETATM    7  C8  UNL     1      27.162  -1.902  52.731  1.00  0.00     0.101 C 
HETATM    8  N2  UNL     1      27.889  -2.809  52.711  1.00  0.00    -0.191 NA
HETATM    9  C9  UNL     1      26.530   0.376  52.074  1.00  0.00     0.038 A 
HETATM   10  C10 UNL     1      25.618   1.435  52.103  1.00  0.00    -0.004 A 
HETATM   11  C11 UNL     1      25.821   2.630  51.467  1.00  0.00     0.046 A 
HETATM   12  C12 UNL     1      24.869   3.643  51.537  1.00  0.00     0.069 A 
ENDROOT
BRANCH  12  13
HETATM   13  N3  UNL     1      25.110   4.893  50.857  1.00  0.00    -0.321 N 
HETATM   14  C13 UNL     1      24.669   4.865  49.512  1.00  0.00     0.245 C 
HETATM   15  O2  UNL     1      24.138   3.847  49.023  1.00  0.00    -0.268 OA
HETATM   16  H10 UNL     1      25.555   5.759  51.255  1.00  0.00     0.169 HD
BRANCH  14  17
HETATM   17  C14 UNL     1      24.804   6.001  48.621  1.00  0.00     0.072 C 
HETATM   18  C15 UNL     1      25.166   7.251  48.841  1.00  0.00     0.008 C 
BRANCH  18  19
HETATM   19  C16 UNL     1      25.324   8.458  47.992  1.00  0.00     0.299 C 
BRANCH  19  20
HETATM   20  N4  UNL     1      26.316   9.355  48.557  1.00  0.00     0.083 N 
HETATM   21  C17 UNL     1      25.930  10.730  48.391  1.00  0.00     0.309 C 
HETATM   22  C18 UNL     1      26.668   9.023  49.903  1.00  0.00     0.309 C 
ENDBRANCH  19  20
ENDBRANCH  18  19
ENDBRANCH  14  17
ENDBRANCH  12  13
BRANCH   1  23
HETATM   23  O1  UNL     1      22.813   4.458  52.295  1.00  0.00    -0.349 OA
BRANCH  23  24
HETATM   24  C2  UNL     1      21.476   4.381  51.863  1.00  0.00     0.171 C 
HETATM   25  C1  UNL     1      21.199   5.250  50.656  1.00  0.00     0.034 C 
ENDBRANCH  23  24
ENDBRANCH   1  23
TORSDOF 6
ENDMDL
MODEL 8
REMARK VINA RESULT:      -6.7      1.924      7.901
REMARK  6 active torsions:
REMARK  status: ('A' for Active; 'I' for Inactive)
REMARK    1  A    between atoms: C2_2  and  O1_3 
REMARK    2  A    between atoms: O1_3  and  C3_4 
REMARK    3  A    between atoms: C12_15  and  N3_16 
REMARK       I    between atoms: N3_16  and  C13_17 
REMARK    4  A    between atoms: C13_17  and  C14_19 
REMARK    5  A    between atoms: C15_20  and  C16_21 
REMARK    6  A    between atoms: C16_21  and  N4_22 
ROOT
HETATM    1  C3  UNL     1      25.645   1.952  51.641  1.00  0.00     0.097 A 
HETATM    2  C4  UNL     1      26.584   2.429  50.752  1.00  0.00     0.071 A 
HETATM    3  C5  UNL     1      26.431   3.631  50.093  1.00  0.00     0.069 A 
HETATM    4  N1  UNL     1      27.399   3.993  49.258  1.00  0.00    -0.259 NA
HETATM    5  C6  UNL     1      27.307   5.154  48.587  1.00  0.00     0.140 A 
HETATM    6  C7  UNL     1      26.197   5.940  48.791  1.00  0.00     0.063 A 
HETATM    7  C8  UNL     1      26.128   7.167  48.060  1.00  0.00     0.101 C 
HETATM    8  N2  UNL     1      26.072   8.154  47.450  1.00  0.00    -0.191 NA
HETATM    9  C9  UNL     1      25.193   5.558  49.661  1.00  0.00     0.038 A 
HETATM   10  C10 UNL     1      25.289   4.351  50.359  1.00  0.00    -0.004 A 
HETATM   11  C11 UNL     1      24.337   3.904  51.237  1.00  0.00     0.046 A 
HETATM   12  C12 UNL     1      24.496   2.690  51.899  1.00  0.00     0.069 A 
ENDROOT
BRANCH  12  13
HETATM   13  N3  UNL     1      23.478   2.244  52.819  1.00  0.00    -0.321 N 
HETATM   14  C13 UNL     1      22.431   1.551  52.165  1.00  0.00     0.245 C 
HETATM   15  O2  UNL     1      22.441   1.373  50.930  1.00  0.00    -0.268 OA
HETATM   16  H10 UNL     1      23.456   2.385  53.861  1.00  0.00     0.169 HD
BRANCH  14  17
HETATM   17  C14 UNL     1      21.291   1.007  52.876  1.00  0.00     0.072 C 
HETATM   18  C15 UNL     1      20.415   0.075  52.550  1.00  0.00     0.008 C 
BRANCH  18  19
HETATM   19  C16 UNL     1      19.233  -0.528  53.216  1.00  0.00     0.299 C 
BRANCH  19  20
HETATM   20  N4  UNL     1      18.202  -0.841  52.243  1.00  0.00     0.083 N 
HETATM   21  C17 UNL     1      16.920  -1.003  52.874  1.00  0.00     0.309 C 
HETATM   22  C18 UNL     1      18.180   0.068  51.139  1.00  0.00     0.309 C 
ENDBRANCH  19  20
ENDBRANCH  18  19
ENDBRANCH  14  17
ENDBRANCH  12  13
BRANCH   1  23
HETATM   23  O1  UNL     1      25.733   0.755  52.337  1.00  0.00    -0.349 OA
BRANCH  23  24
HETATM   24  C2  UNL     1      26.923   0.218  52.863  1.00  0.00     0.171 C 
HETATM   25  C1  UNL     1      27.051  -1.270  52.621  1.00  0.00     0.034 C 
ENDBRANCH  23  24
ENDBRANCH   1  23
TORSDOF 6
ENDMDL
MODEL 9
REMARK VINA RESULT:      -6.6      2.304      3.849
REMARK  6 active torsions:
REMARK  status: ('A' for Active; 'I' for Inactive)
REMARK    1  A    between atoms: C2_2  and  O1_3 
REMARK    2  A    between atoms: O1_3  and  C3_4 
REMARK    3  A    between atoms: C12_15  and  N3_16 
REMARK       I    between atoms: N3_16  and  C13_17 
REMARK    4  A    between atoms: C13_17  and  C14_19 
REMARK    5  A    between atoms: C15_20  and  C16_21 
REMARK    6  A    between atoms: C16_21  and  N4_22 
ROOT
HETATM    1  C3  UNL     1      22.746   4.339  50.902  1.00  0.00     0.097 A 
HETATM    2  C4  UNL     1      21.666   3.606  51.344  1.00  0.00     0.071 A 
HETATM    3  C5  UNL     1      21.811   2.494  52.148  1.00  0.00     0.069 A 
HETATM    4  N1  UNL     1      20.700   1.863  52.515  1.00  0.00    -0.259 NA
HETATM    5  C6  UNL     1      20.776   0.773  53.298  1.00  0.00     0.140 A 
HETATM    6  C7  UNL     1      22.019   0.342  53.700  1.00  0.00     0.063 A 
HETATM    7  C8  UNL     1      22.065  -0.820  54.531  1.00  0.00     0.101 C 
HETATM    8  N2  UNL     1      22.095  -1.776  55.191  1.00  0.00    -0.191 NA
HETATM    9  C9  UNL     1      23.170   1.003  53.315  1.00  0.00     0.038 A 
HETATM   10  C10 UNL     1      23.092   2.137  52.500  1.00  0.00    -0.004 A 
HETATM   11  C11 UNL     1      24.185   2.845  52.078  1.00  0.00     0.046 A 
HETATM   12  C12 UNL     1      24.034   3.965  51.266  1.00  0.00     0.069 A 
ENDROOT
BRANCH  12  13
HETATM   13  N3  UNL     1      25.204   4.693  50.835  1.00  0.00    -0.321 N 
HETATM   14  C13 UNL     1      25.852   4.068  49.743  1.00  0.00     0.245 C 
HETATM   15  O2  UNL     1      25.416   3.009  49.248  1.00  0.00    -0.268 OA
HETATM   16  H10 UNL     1      25.582   5.586  51.241  1.00  0.00     0.169 HD
BRANCH  14  17
HETATM   17  C14 UNL     1      27.052   4.607  49.134  1.00  0.00     0.072 C 
HETATM   18  C15 UNL     1      27.298   5.769  48.557  1.00  0.00     0.008 C 
BRANCH  18  19
HETATM   19  C16 UNL     1      28.486   6.387  47.916  1.00  0.00     0.299 C 
BRANCH  19  20
HETATM   20  N4  UNL     1      28.696   7.732  48.418  1.00  0.00     0.083 N 
HETATM   21  C17 UNL     1      29.441   8.529  47.480  1.00  0.00     0.309 C 
HETATM   22  C18 UNL     1      27.490   8.359  48.861  1.00  0.00     0.309 C 
ENDBRANCH  19  20
ENDBRANCH  18  19
ENDBRANCH  14  17
ENDBRANCH  12  13
BRANCH   1  23
HETATM   23  O1  UNL     1      22.676   5.464  50.093  1.00  0.00    -0.349 OA
BRANCH  23  24
HETATM   24  C2  UNL     1      22.490   5.439  48.698  1.00  0.00     0.171 C 
HETATM   25  C1  UNL     1      22.381   4.034  48.147  1.00  0.00     0.034 C 
ENDBRANCH  23  24
ENDBRANCH   1  23
TORSDOF 6
ENDMDL
