MODEL 1
REMARK VINA RESULT:      -7.6      0.000      0.000
REMARK  4 active torsions:
REMARK  status: ('A' for Active; 'I' for Inactive)
REMARK    1  A    between atoms: C2_2  and  C3_3 
REMARK    2  A    between atoms: C2_2  and  N3_21 
REMARK    3  A    between atoms: C3_3  and  C4_4 
REMARK       I    between atoms: C4_4  and  N1_6 
REMARK    4  A    between atoms: N1_6  and  C5_7 
ROOT
HETATM    1  N3  UNL     1      25.903   5.727  49.749  1.00  0.00    -0.324 N 
HETATM    2  C17 UNL     1      27.003   5.147  49.109  1.00  0.00     0.177 C 
HETATM    3  N4  UNL     1      27.904   4.667  48.564  1.00  0.00    -0.172 NA
HETATM    4  H24 UNL     1      26.097   6.114  50.700  1.00  0.00     0.172 HD
ENDROOT
BRANCH   1   5
HETATM    5  C2  UNL     1      24.641   5.705  48.995  1.00  0.00     0.097 C 
HETATM    6  C1  UNL     1      24.654   6.864  48.034  1.00  0.00     0.033 C 
BRANCH   5   7
HETATM    7  C3  UNL     1      23.542   5.832  50.026  1.00  0.00     0.128 C 
BRANCH   7   8
HETATM    8  C4  UNL     1      23.608   4.769  51.055  1.00  0.00     0.224 C 
HETATM    9  O1  UNL     1      23.534   5.023  52.268  1.00  0.00    -0.273 OA
HETATM   10  N1  UNL     1      23.762   3.452  50.549  1.00  0.00    -0.325 N 
HETATM   11  H7  UNL     1      23.825   3.202  49.542  1.00  0.00     0.169 HD
BRANCH  10  12
HETATM   12  C5  UNL     1      23.844   2.329  51.388  1.00  0.00     0.061 C 
HETATM   13  C6  UNL     1      23.255   1.344  52.002  1.00  0.00     0.033 C 
HETATM   14  C7  UNL     1      23.260   0.175  52.859  1.00  0.00     0.019 C 
HETATM   15  C8  UNL     1      24.283  -0.398  53.458  1.00  0.00     0.085 C 
HETATM   16  N2  UNL     1      25.708  -0.276  53.619  1.00  0.00    -0.390 N 
HETATM   17  C9  UNL     1      26.382  -1.282  52.822  1.00  0.00     0.122 C 
HETATM   18  C16 UNL     1      26.639   0.582  54.356  1.00  0.00     0.127 C 
HETATM   19  C10 UNL     1      27.824  -1.485  53.207  1.00  0.00     0.024 C 
HETATM   20  C11 UNL     1      28.595  -0.185  53.006  1.00  0.00    -0.011 C 
HETATM   21  C12 UNL     1      29.948  -0.279  53.636  1.00  0.00     0.010 C 
HETATM   22  C13 UNL     1      27.809   0.990  53.476  1.00  0.00     0.012 C 
HETATM   23  C14 UNL     1      27.242   1.768  52.296  1.00  0.00     0.001 C 
HETATM   24  C15 UNL     1      26.238   2.246  51.508  1.00  0.00     0.000 C 
HETATM   25  O2  UNL     1      25.019   1.860  51.955  1.00  0.00     0.000 OA
ENDBRANCH  10  12
ENDBRANCH   7   8
ENDBRANCH   5   7
ENDBRANCH   1   5
TORSDOF 4
ENDMDL
MODEL 2
REMARK VINA RESULT:      -7.6      2.395      6.739
REMARK  4 active torsions:
REMARK  status: ('A' for Active; 'I' for Inactive)
REMARK    1  A    between atoms: C2_2  and  C3_3 
REMARK    2  A    between atoms: C2_2  and  N3_21 
REMARK    3  A    between atoms: C3_3  and  C4_4 
REMARK       I    between atoms: C4_4  and  N1_6 
REMARK    4  A    between atoms: N1_6  and  C5_7 
ROOT
HETATM    1  N3  UNL     1      27.309   0.629  54.942  1.00  0.00    -0.324 N 
HETATM    2  C17 UNL     1      26.193  -0.210  55.020  1.00  0.00     0.177 C 
HETATM    3  N4  UNL     1      25.275  -0.913  55.069  1.00  0.00    -0.172 NA
HETATM    4  H24 UNL     1      27.517   1.171  55.810  1.00  0.00     0.172 HD
ENDROOT
BRANCH   1   5
HETATM    5  C2  UNL     1      28.021   0.627  53.655  1.00  0.00     0.097 C 
HETATM    6  C1  UNL     1      29.430   0.161  53.906  1.00  0.00     0.033 C 
BRANCH   5   7
HETATM    7  C3  UNL     1      27.973   2.053  53.155  1.00  0.00     0.128 C 
BRANCH   7   8
HETATM    8  C4  UNL     1      26.835   2.291  52.238  1.00  0.00     0.224 C 
HETATM    9  O1  UNL     1      26.878   1.969  51.040  1.00  0.00    -0.273 OA
HETATM   10  N1  UNL     1      25.705   2.912  52.831  1.00  0.00    -0.325 N 
HETATM   11  H7  UNL     1      25.633   3.194  53.829  1.00  0.00     0.169 HD
BRANCH  10  12
HETATM   12  C5  UNL     1      24.543   3.211  52.102  1.00  0.00     0.061 C 
HETATM   13  C6  UNL     1      23.946   3.918  51.187  1.00  0.00     0.033 C 
HETATM   14  C7  UNL     1      22.788   4.283  50.393  1.00  0.00     0.019 C 
HETATM   15  C8  UNL     1      21.577   3.769  50.427  1.00  0.00     0.085 C 
HETATM   16  N2  UNL     1      20.798   2.763  51.098  1.00  0.00    -0.390 N 
HETATM   17  C9  UNL     1      20.608   1.621  50.226  1.00  0.00     0.122 C 
HETATM   18  C16 UNL     1      20.162   2.590  52.408  1.00  0.00     0.127 C 
HETATM   19  C10 UNL     1      19.508   0.696  50.679  1.00  0.00     0.024 C 
HETATM   20  C11 UNL     1      19.847   0.137  52.057  1.00  0.00    -0.011 C 
HETATM   21  C12 UNL     1      18.658  -0.556  52.643  1.00  0.00     0.010 C 
HETATM   22  C13 UNL     1      20.410   1.190  52.947  1.00  0.00     0.012 C 
HETATM   23  C14 UNL     1      21.917   1.021  53.096  1.00  0.00     0.001 C 
HETATM   24  C15 UNL     1      23.217   1.393  52.933  1.00  0.00     0.000 C 
HETATM   25  O2  UNL     1      23.325   2.572  52.273  1.00  0.00     0.000 OA
ENDBRANCH  10  12
ENDBRANCH   7   8
ENDBRANCH   5   7
ENDBRANCH   1   5
TORSDOF 4
ENDMDL
MODEL 3
REMARK VINA RESULT:      -7.2      3.039      6.737
REMARK  4 active torsions:
REMARK  status: ('A' for Active; 'I' for Inactive)
REMARK    1  A    between atoms: C2_2  and  C3_3 
REMARK    2  A    between atoms: C2_2  and  N3_21 
REMARK    3  A    between atoms: C3_3  and  C4_4 
REMARK       I    between atoms: C4_4  and  N1_6 
REMARK    4  A    between atoms: N1_6  and  C5_7 
ROOT
HETATM    1  N3  UNL     1      30.078  -0.053  53.560  1.00  0.00    -0.324 N 
HETATM    2  C17 UNL     1      29.721  -1.403  53.496  1.00  0.00     0.177 C 
HETATM    3  N4  UNL     1      29.409  -2.516  53.439  1.00  0.00    -0.172 NA
HETATM    4  H24 UNL     1      31.106   0.135  53.563  1.00  0.00     0.172 HD
ENDROOT
BRANCH   1   5
HETATM    5  C2  UNL     1      28.960   0.902  53.615  1.00  0.00     0.097 C 
HETATM    6  C1  UNL     1      29.415   2.104  54.399  1.00  0.00     0.033 C 
BRANCH   5   7
HETATM    7  C3  UNL     1      27.827   0.170  54.299  1.00  0.00     0.128 C 
BRANCH   7   8
HETATM    8  C4  UNL     1      26.607   0.110  53.461  1.00  0.00     0.224 C 
HETATM    9  O1  UNL     1      26.660  -0.085  52.236  1.00  0.00    -0.273 OA
HETATM   10  N1  UNL     1      25.387   0.292  54.162  1.00  0.00    -0.325 N 
HETATM   11  H7  UNL     1      25.304   0.456  55.186  1.00  0.00     0.169 HD
BRANCH  10  12
HETATM   12  C5  UNL     1      24.139   0.267  53.519  1.00  0.00     0.061 C 
HETATM   13  C6  UNL     1      23.059  -0.383  53.194  1.00  0.00     0.033 C 
HETATM   14  C7  UNL     1      21.762  -0.485  52.556  1.00  0.00     0.019 C 
HETATM   15  C8  UNL     1      21.106   0.435  51.881  1.00  0.00     0.085 C 
HETATM   16  N2  UNL     1      21.211   1.802  51.444  1.00  0.00    -0.390 N 
HETATM   17  C9  UNL     1      20.361   2.648  52.258  1.00  0.00     0.122 C 
HETATM   18  C16 UNL     1      21.940   2.551  50.417  1.00  0.00     0.127 C 
HETATM   19  C10 UNL     1      20.108   4.004  51.653  1.00  0.00     0.024 C 
HETATM   20  C11 UNL     1      21.430   4.746  51.492  1.00  0.00    -0.011 C 
HETATM   21  C12 UNL     1      21.242   5.967  50.649  1.00  0.00     0.010 C 
HETATM   22  C13 UNL     1      22.502   3.843  50.988  1.00  0.00     0.012 C 
HETATM   23  C14 UNL     1      23.463   3.466  52.108  1.00  0.00     0.001 C 
HETATM   24  C15 UNL     1      24.059   2.602  52.977  1.00  0.00     0.000 C 
HETATM   25  O2  UNL     1      23.591   1.339  52.831  1.00  0.00     0.000 OA
ENDBRANCH  10  12
ENDBRANCH   7   8
ENDBRANCH   5   7
ENDBRANCH   1   5
TORSDOF 4
ENDMDL
MODEL 4
REMARK VINA RESULT:      -6.8      3.984      6.647
REMARK  4 active torsions:
REMARK  status: ('A' for Active; 'I' for Inactive)
REMARK    1  A    between atoms: C2_2  and  C3_3 
REMARK    2  A    between atoms: C2_2  and  N3_21 
REMARK    3  A    between atoms: C3_3  and  C4_4 
REMARK       I    between atoms: C4_4  and  N1_6 
REMARK    4  A    between atoms: N1_6  and  C5_7 
ROOT
HETATM    1  N3  UNL     1      17.455  -1.583  53.936  1.00  0.00    -0.324 N 
HETATM    2  C17 UNL     1      16.646  -2.306  53.055  1.00  0.00     0.177 C 
HETATM    3  N4  UNL     1      15.987  -2.901  52.311  1.00  0.00    -0.172 NA
HETATM    4  H24 UNL     1      17.261  -1.745  54.950  1.00  0.00     0.172 HD
ENDROOT
BRANCH   1   5
HETATM    5  C2  UNL     1      18.454  -0.704  53.312  1.00  0.00     0.097 C 
HETATM    6  C1  UNL     1      18.114  -0.578  51.851  1.00  0.00     0.033 C 
BRANCH   5   7
HETATM    7  C3  UNL     1      19.791  -1.378  53.529  1.00  0.00     0.128 C 
BRANCH   7   8
HETATM    8  C4  UNL     1      20.889  -0.405  53.724  1.00  0.00     0.224 C 
HETATM    9  O1  UNL     1      21.189   0.031  54.847  1.00  0.00    -0.273 OA
HETATM   10  N1  UNL     1      21.563  -0.013  52.538  1.00  0.00    -0.325 N 
HETATM   11  H7  UNL     1      21.340  -0.357  51.582  1.00  0.00     0.169 HD
BRANCH  10  12
HETATM   12  C5  UNL     1      22.625   0.904  52.545  1.00  0.00     0.061 C 
HETATM   13  C6  UNL     1      23.042   2.137  52.501  1.00  0.00     0.033 C 
HETATM   14  C7  UNL     1      24.085   3.144  52.505  1.00  0.00     0.019 C 
HETATM   15  C8  UNL     1      25.387   2.974  52.593  1.00  0.00     0.085 C 
HETATM   16  N2  UNL     1      26.384   1.943  52.714  1.00  0.00    -0.390 N 
HETATM   17  C9  UNL     1      26.892   1.905  54.071  1.00  0.00     0.122 C 
HETATM   18  C16 UNL     1      27.005   0.939  51.846  1.00  0.00     0.127 C 
HETATM   19  C10 UNL     1      28.183   1.140  54.206  1.00  0.00     0.024 C 
HETATM   20  C11 UNL     1      27.964  -0.309  53.785  1.00  0.00    -0.011 C 
HETATM   21  C12 UNL     1      29.275  -1.015  53.647  1.00  0.00     0.010 C 
HETATM   22  C13 UNL     1      27.118  -0.397  52.562  1.00  0.00     0.012 C 
HETATM   23  C14 UNL     1      25.705  -0.846  52.914  1.00  0.00     0.001 C 
HETATM   24  C15 UNL     1      24.358  -0.681  53.033  1.00  0.00     0.000 C 
HETATM   25  O2  UNL     1      23.963   0.552  52.634  1.00  0.00     0.000 OA
ENDBRANCH  10  12
ENDBRANCH   7   8
ENDBRANCH   5   7
ENDBRANCH   1   5
TORSDOF 4
ENDMDL
MODEL 5
REMARK VINA RESULT:      -6.8      2.526      7.256
REMARK  4 active torsions:
REMARK  status: ('A' for Active; 'I' for Inactive)
REMARK    1  A    between atoms: C2_2  and  C3_3 
REMARK    2  A    between atoms: C2_2  and  N3_21 
REMARK    3  A    between atoms: C3_3  and  C4_4 
REMARK       I    between atoms: C4_4  and  N1_6 
REMARK    4  A    between atoms: N1_6  and  C5_7 
ROOT
HETATM    1  N3  UNL     1      28.090  -0.817  54.212  1.00  0.00    -0.324 N 
HETATM    2  C17 UNL     1      28.548   0.406  54.710  1.00  0.00     0.177 C 
HETATM    3  N4  UNL     1      28.912   1.427  55.118  1.00  0.00    -0.172 NA
HETATM    4  H24 UNL     1      28.658  -1.649  54.489  1.00  0.00     0.172 HD
ENDROOT
BRANCH   1   5
HETATM    5  C2  UNL     1      26.884  -0.754  53.373  1.00  0.00     0.097 C 
HETATM    6  C1  UNL     1      26.917  -1.922  52.425  1.00  0.00     0.033 C 
BRANCH   5   7
HETATM    7  C3  UNL     1      26.954   0.572  52.649  1.00  0.00     0.128 C 
BRANCH   7   8
HETATM    8  C4  UNL     1      25.621   1.192  52.475  1.00  0.00     0.224 C 
HETATM    9  O1  UNL     1      24.573   0.532  52.565  1.00  0.00    -0.273 OA
HETATM   10  N1  UNL     1      25.636   2.584  52.199  1.00  0.00    -0.325 N 
HETATM   11  H7  UNL     1      26.493   3.168  52.118  1.00  0.00     0.169 HD
BRANCH  10  12
HETATM   12  C5  UNL     1      24.459   3.325  52.005  1.00  0.00     0.061 C 
HETATM   13  C6  UNL     1      23.532   4.101  52.486  1.00  0.00     0.033 C 
HETATM   14  C7  UNL     1      22.321   4.889  52.363  1.00  0.00     0.019 C 
HETATM   15  C8  UNL     1      21.575   5.084  51.296  1.00  0.00     0.085 C 
HETATM   16  N2  UNL     1      21.488   4.736  49.903  1.00  0.00    -0.390 N 
HETATM   17  C9  UNL     1      21.895   5.862  49.086  1.00  0.00     0.122 C 
HETATM   18  C16 UNL     1      21.110   3.565  49.107  1.00  0.00     0.127 C 
HETATM   19  C10 UNL     1      21.483   5.736  47.642  1.00  0.00     0.024 C 
HETATM   20  C11 UNL     1      22.137   4.501  47.032  1.00  0.00    -0.011 C 
HETATM   21  C12 UNL     1      21.533   4.199  45.697  1.00  0.00     0.010 C 
HETATM   22  C13 UNL     1      22.095   3.344  47.970  1.00  0.00     0.012 C 
HETATM   23  C14 UNL     1      23.464   3.104  48.593  1.00  0.00     0.001 C 
HETATM   24  C15 UNL     1      24.354   3.059  49.623  1.00  0.00     0.000 C 
HETATM   25  O2  UNL     1      23.782   3.416  50.799  1.00  0.00     0.000 OA
ENDBRANCH  10  12
ENDBRANCH   7   8
ENDBRANCH   5   7
ENDBRANCH   1   5
TORSDOF 4
ENDMDL
MODEL 6
REMARK VINA RESULT:      -6.7      6.790      8.852
REMARK  4 active torsions:
REMARK  status: ('A' for Active; 'I' for Inactive)
REMARK    1  A    between atoms: C2_2  and  C3_3 
REMARK    2  A    between atoms: C2_2  and  N3_21 
REMARK    3  A    between atoms: C3_3  and  C4_4 
REMARK       I    between atoms: C4_4  and  N1_6 
REMARK    4  A    between atoms: N1_6  and  C5_7 
ROOT
HETATM    1  N3  UNL     1      27.670   8.050  48.065  1.00  0.00    -0.324 N 
HETATM    2  C17 UNL     1      27.371   6.718  48.363  1.00  0.00     0.177 C 
HETATM    3  N4  UNL     1      27.110   5.620  48.621  1.00  0.00    -0.172 NA
HETATM    4  H24 UNL     1      28.239   8.194  47.201  1.00  0.00     0.172 HD
ENDROOT
BRANCH   1   5
HETATM    5  C2  UNL     1      27.146   9.049  49.008  1.00  0.00     0.097 C 
HETATM    6  C1  UNL     1      26.279  10.007  48.235  1.00  0.00     0.033 C 
BRANCH   5   7
HETATM    7  C3  UNL     1      28.357   9.730  49.604  1.00  0.00     0.128 C 
BRANCH   7   8
HETATM    8  C4  UNL     1      29.608   9.383  48.891  1.00  0.00     0.224 C 
HETATM    9  O1  UNL     1      29.863   9.824  47.759  1.00  0.00    -0.273 OA
HETATM   10  N1  UNL     1      30.481   8.514  49.596  1.00  0.00    -0.325 N 
HETATM   11  H7  UNL     1      30.301   8.126  50.544  1.00  0.00     0.169 HD
BRANCH  10  12
HETATM   12  C5  UNL     1      31.706   8.084  49.062  1.00  0.00     0.061 C 
HETATM   13  C6  UNL     1      32.960   8.319  48.806  1.00  0.00     0.033 C 
HETATM   14  C7  UNL     1      34.258   7.946  48.278  1.00  0.00     0.019 C 
HETATM   15  C8  UNL     1      34.614   6.817  47.702  1.00  0.00     0.085 C 
HETATM   16  N2  UNL     1      34.089   5.535  47.314  1.00  0.00    -0.390 N 
HETATM   17  C9  UNL     1      34.552   4.514  48.233  1.00  0.00     0.122 C 
HETATM   18  C16 UNL     1      33.224   5.000  46.259  1.00  0.00     0.127 C 
HETATM   19  C10 UNL     1      34.380   3.112  47.708  1.00  0.00     0.024 C 
HETATM   20  C11 UNL     1      32.900   2.837  47.465  1.00  0.00    -0.011 C 
HETATM   21  C12 UNL     1      32.727   1.568  46.692  1.00  0.00     0.010 C 
HETATM   22  C13 UNL     1      32.227   4.005  46.832  1.00  0.00     0.012 C 
HETATM   23  C14 UNL     1      31.372   4.752  47.849  1.00  0.00     0.001 C 
HETATM   24  C15 UNL     1      31.041   5.821  48.626  1.00  0.00     0.000 C 
HETATM   25  O2  UNL     1      31.911   6.848  48.470  1.00  0.00     0.000 OA
ENDBRANCH  10  12
ENDBRANCH   7   8
ENDBRANCH   5   7
ENDBRANCH   1   5
TORSDOF 4
ENDMDL
MODEL 7
REMARK VINA RESULT:      -6.7      2.809      6.975
REMARK  4 active torsions:
REMARK  status: ('A' for Active; 'I' for Inactive)
REMARK    1  A    between atoms: C2_2  and  C3_3 
REMARK    2  A    between atoms: C2_2  and  N3_21 
REMARK    3  A    between atoms: C3_3  and  C4_4 
REMARK       I    between atoms: C4_4  and  N1_6 
REMARK    4  A    between atoms: N1_6  and  C5_7 
ROOT
HETATM    1  N3  UNL     1      29.070   0.258  54.637  1.00  0.00    -0.324 N 
HETATM    2  C17 UNL     1      29.137  -0.955  53.947  1.00  0.00     0.177 C 
HETATM    3  N4  UNL     1      29.178  -1.955  53.365  1.00  0.00    -0.172 NA
HETATM    4  H24 UNL     1      29.915   0.491  55.207  1.00  0.00     0.172 HD
ENDROOT
BRANCH   1   5
HETATM    5  C2  UNL     1      27.827   1.025  54.465  1.00  0.00     0.097 C 
HETATM    6  C1  UNL     1      26.693   0.196  55.005  1.00  0.00     0.033 C 
BRANCH   5   7
HETATM    7  C3  UNL     1      27.697   1.271  52.979  1.00  0.00     0.128 C 
BRANCH   7   8
HETATM    8  C4  UNL     1      26.422   0.755  52.430  1.00  0.00     0.224 C 
HETATM    9  O1  UNL     1      26.336  -0.374  51.921  1.00  0.00    -0.273 OA
HETATM   10  N1  UNL     1      25.321   1.644  52.532  1.00  0.00    -0.325 N 
HETATM   11  H7  UNL     1      25.355   2.594  52.953  1.00  0.00     0.169 HD
BRANCH  10  12
HETATM   12  C5  UNL     1      24.041   1.311  52.059  1.00  0.00     0.061 C 
HETATM   13  C6  UNL     1      22.918   0.674  52.219  1.00  0.00     0.033 C 
HETATM   14  C7  UNL     1      21.586   0.287  51.798  1.00  0.00     0.019 C 
HETATM   15  C8  UNL     1      20.936   0.640  50.709  1.00  0.00     0.085 C 
HETATM   16  N2  UNL     1      21.078   1.438  49.521  1.00  0.00    -0.390 N 
HETATM   17  C9  UNL     1      20.310   2.661  49.652  1.00  0.00     0.122 C 
HETATM   18  C16 UNL     1      21.785   1.347  48.240  1.00  0.00     0.127 C 
HETATM   19  C10 UNL     1      20.085   3.372  48.343  1.00  0.00     0.024 C 
HETATM   20  C11 UNL     1      21.429   3.768  47.740  1.00  0.00    -0.011 C 
HETATM   21  C12 UNL     1      21.251   4.221  46.326  1.00  0.00     0.010 C 
HETATM   22  C13 UNL     1      22.432   2.676  47.884  1.00  0.00     0.012 C 
HETATM   23  C14 UNL     1      23.433   3.004  48.985  1.00  0.00     0.001 C 
HETATM   24  C15 UNL     1      24.035   2.819  50.193  1.00  0.00     0.000 C 
HETATM   25  O2  UNL     1      23.505   1.768  50.865  1.00  0.00     0.000 OA
ENDBRANCH  10  12
ENDBRANCH   7   8
ENDBRANCH   5   7
ENDBRANCH   1   5
TORSDOF 4
ENDMDL
MODEL 8
REMARK VINA RESULT:      -6.6      2.650      6.800
REMARK  4 active torsions:
REMARK  status: ('A' for Active; 'I' for Inactive)
REMARK    1  A    between atoms: C2_2  and  C3_3 
REMARK    2  A    between atoms: C2_2  and  N3_21 
REMARK    3  A    between atoms: C3_3  and  C4_4 
REMARK       I    between atoms: C4_4  and  N1_6 
REMARK    4  A    between atoms: N1_6  and  C5_7 
ROOT
HETATM    1  N3  UNL     1      23.525  -0.689  53.107  1.00  0.00    -0.324 N 
HETATM    2  C17 UNL     1      24.653  -0.711  53.932  1.00  0.00     0.177 C 
HETATM    3  N4  UNL     1      25.577  -0.727  54.630  1.00  0.00    -0.172 NA
HETATM    4  H24 UNL     1      23.675  -1.059  52.141  1.00  0.00     0.172 HD
ENDROOT
BRANCH   1   5
HETATM    5  C2  UNL     1      22.300  -0.148  53.714  1.00  0.00     0.097 C 
HETATM    6  C1  UNL     1      21.902  -1.058  54.845  1.00  0.00     0.033 C 
BRANCH   5   7
HETATM    7  C3  UNL     1      21.267  -0.127  52.609  1.00  0.00     0.128 C 
BRANCH   7   8
HETATM    8  C4  UNL     1      21.300   1.133  51.831  1.00  0.00     0.224 C 
HETATM    9  O1  UNL     1      20.879   1.196  50.665  1.00  0.00    -0.273 OA
HETATM   10  N1  UNL     1      21.845   2.249  52.517  1.00  0.00    -0.325 N 
HETATM   11  H7  UNL     1      22.205   2.234  53.492  1.00  0.00     0.169 HD
BRANCH  10  12
HETATM   12  C5  UNL     1      21.952   3.517  51.923  1.00  0.00     0.061 C 
HETATM   13  C6  UNL     1      21.458   4.704  51.720  1.00  0.00     0.033 C 
HETATM   14  C7  UNL     1      21.499   6.033  51.143  1.00  0.00     0.019 C 
HETATM   15  C8  UNL     1      22.428   6.567  50.378  1.00  0.00     0.085 C 
HETATM   16  N2  UNL     1      23.694   6.264  49.766  1.00  0.00    -0.390 N 
HETATM   17  C9  UNL     1      24.763   6.921  50.493  1.00  0.00     0.122 C 
HETATM   18  C16 UNL     1      24.180   5.479  48.628  1.00  0.00     0.127 C 
HETATM   19  C10 UNL     1      26.059   6.982  49.727  1.00  0.00     0.024 C 
HETATM   20  C11 UNL     1      26.544   5.568  49.429  1.00  0.00    -0.011 C 
HETATM   21  C12 UNL     1      27.668   5.600  48.443  1.00  0.00     0.010 C 
HETATM   22  C13 UNL     1      25.419   4.686  49.010  1.00  0.00     0.012 C 
HETATM   23  C14 UNL     1      25.025   3.740  50.137  1.00  0.00     0.001 C 
HETATM   24  C15 UNL     1      24.185   3.246  51.089  1.00  0.00     0.000 C 
HETATM   25  O2  UNL     1      23.009   3.920  51.122  1.00  0.00     0.000 OA
ENDBRANCH  10  12
ENDBRANCH   7   8
ENDBRANCH   5   7
ENDBRANCH   1   5
TORSDOF 4
ENDMDL
MODEL 9
REMARK VINA RESULT:      -6.6      2.172      7.047
REMARK  4 active torsions:
REMARK  status: ('A' for Active; 'I' for Inactive)
REMARK    1  A    between atoms: C2_2  and  C3_3 
REMARK    2  A    between atoms: C2_2  and  N3_21 
REMARK    3  A    between atoms: C3_3  and  C4_4 
REMARK       I    between atoms: C4_4  and  N1_6 
REMARK    4  A    between atoms: N1_6  and  C5_7 
ROOT
HETATM    1  N3  UNL     1      28.034   0.495  54.980  1.00  0.00    -0.324 N 
HETATM    2  C17 UNL     1      29.006   1.499  54.931  1.00  0.00     0.177 C 
HETATM    3  N4  UNL     1      29.811   2.328  54.872  1.00  0.00    -0.172 NA
HETATM    4  H24 UNL     1      27.489   0.450  55.870  1.00  0.00     0.172 HD
ENDROOT
BRANCH   1   5
HETATM    5  C2  UNL     1      27.925  -0.348  53.780  1.00  0.00     0.097 C 
HETATM    6  C1  UNL     1      29.238  -1.058  53.590  1.00  0.00     0.033 C 
BRANCH   5   7
HETATM    7  C3  UNL     1      27.617   0.596  52.640  1.00  0.00     0.128 C 
BRANCH   7   8
HETATM    8  C4  UNL     1      26.211   1.060  52.655  1.00  0.00     0.224 C 
HETATM    9  O1  UNL     1      25.521   1.033  53.687  1.00  0.00    -0.273 OA
HETATM   10  N1  UNL     1      25.719   1.531  51.410  1.00  0.00    -0.325 N 
HETATM   11  H7  UNL     1      26.267   1.570  50.527  1.00  0.00     0.169 HD
BRANCH  10  12
HETATM   12  C5  UNL     1      24.407   2.004  51.250  1.00  0.00     0.061 C 
HETATM   13  C6  UNL     1      23.125   1.808  51.356  1.00  0.00     0.033 C 
HETATM   14  C7  UNL     1      21.743   2.226  51.221  1.00  0.00     0.019 C 
HETATM   15  C8  UNL     1      21.274   3.376  50.785  1.00  0.00     0.085 C 
HETATM   16  N2  UNL     1      21.708   4.652  50.282  1.00  0.00    -0.390 N 
HETATM   17  C9  UNL     1      21.556   5.665  51.308  1.00  0.00     0.122 C 
HETATM   18  C16 UNL     1      22.257   5.187  49.033  1.00  0.00     0.127 C 
HETATM   19  C10 UNL     1      21.617   7.073  50.775  1.00  0.00     0.024 C 
HETATM   20  C11 UNL     1      22.976   7.314  50.126  1.00  0.00    -0.011 C 
HETATM   21  C12 UNL     1      22.963   8.595  49.353  1.00  0.00     0.010 C 
HETATM   22  C13 UNL     1      23.406   6.142  49.314  1.00  0.00     0.012 C 
HETATM   23  C14 UNL     1      24.489   5.351  50.037  1.00  0.00     0.001 C 
HETATM   24  C15 UNL     1      24.993   4.258  50.675  1.00  0.00     0.000 C 
HETATM   25  O2  UNL     1      24.082   3.258  50.757  1.00  0.00     0.000 OA
ENDBRANCH  10  12
ENDBRANCH   7   8
ENDBRANCH   5   7
ENDBRANCH   1   5
TORSDOF 4
ENDMDL
