MODEL 1
REMARK VINA RESULT:      -7.4      0.000      0.000
REMARK  3 active torsions:
REMARK  status: ('A' for Active; 'I' for Inactive)
REMARK    1  A    between atoms: C1_2  and  C2_3 
REMARK    2  A    between atoms: C2_3  and  N1_4 
REMARK    3  A    between atoms: N1_4  and  C3_5 
ROOT
HETATM    1  C3  UNL     1      26.141   1.147  51.908  1.00  0.00     0.081 C 
HETATM    2  C4  UNL     1      25.583   0.647  52.941  1.00  0.00     0.032 C 
HETATM    3  C5  UNL     1      25.024  -0.727  53.132  1.00  0.00     0.046 C 
HETATM    4  C6  UNL     1      23.521  -0.525  53.398  1.00  0.00    -0.056 A 
HETATM    5  C7  UNL     1      22.403  -1.116  53.926  1.00  0.00     0.007 A 
HETATM    6  C8  UNL     1      21.256  -0.379  53.920  1.00  0.00     0.003 A 
HETATM    7  C9  UNL     1      20.954   0.870  53.489  1.00  0.00     0.029 A 
HETATM    8  C10 UNL     1      21.912   1.560  52.960  1.00  0.00     0.036 A 
HETATM    9  C11 UNL     1      23.082   0.753  52.987  1.00  0.00     0.036 A 
HETATM   10  N2  UNL     1      22.543   2.617  52.368  1.00  0.00    -0.309 N 
HETATM   11  C12 UNL     1      23.156   3.661  51.791  1.00  0.00     0.320 C 
HETATM   12  O2  UNL     1      22.573   4.667  51.955  1.00  0.00    -0.247 OA
HETATM   13  N3  UNL     1      24.267   3.987  51.046  1.00  0.00    -0.339 N 
HETATM   14  C13 UNL     1      25.388   4.331  50.291  1.00  0.00     0.151 C 
HETATM   15  C14 UNL     1      26.294   3.157  50.218  1.00  0.00    -0.009 C 
HETATM   16  C15 UNL     1      26.597   1.956  50.792  1.00  0.00     0.005 C 
HETATM   17  H10 UNL     1      21.701   3.100  52.856  1.00  0.00     0.170 HD
HETATM   18  H11 UNL     1      24.463   2.994  50.885  1.00  0.00     0.164 HD
ENDROOT
BRANCH   1  19
HETATM   19  N1  UNL     1      26.299   2.428  52.633  1.00  0.00    -0.380 N 
HETATM   20  H2  UNL     1      26.197   3.457  52.901  1.00  0.00     0.160 HD
BRANCH  19  21
HETATM   21  C2  UNL     1      27.153   2.362  53.787  1.00  0.00     0.143 C 
BRANCH  21  22
HETATM   22  C1  UNL     1      28.472   2.409  53.887  1.00  0.00     0.237 C 
HETATM   23  O1  UNL     1      29.489   2.406  54.629  1.00  0.00    -0.283 OA
ENDBRANCH  21  22
ENDBRANCH  19  21
ENDBRANCH   1  19
TORSDOF 3
ENDMDL
MODEL 2
REMARK VINA RESULT:      -7.3      2.745      4.799
REMARK  3 active torsions:
REMARK  status: ('A' for Active; 'I' for Inactive)
REMARK    1  A    between atoms: C1_2  and  C2_3 
REMARK    2  A    between atoms: C2_3  and  N1_4 
REMARK    3  A    between atoms: N1_4  and  C3_5 
ROOT
HETATM    1  C3  UNL     1      26.551   0.214  53.952  1.00  0.00     0.081 C 
HETATM    2  C4  UNL     1      26.703   0.530  52.726  1.00  0.00     0.032 C 
HETATM    3  C5  UNL     1      27.153   1.832  52.141  1.00  0.00     0.046 C 
HETATM    4  C6  UNL     1      25.966   2.335  51.299  1.00  0.00    -0.056 A 
HETATM    5  C7  UNL     1      25.615   3.181  50.279  1.00  0.00     0.007 A 
HETATM    6  C8  UNL     1      24.306   3.176  49.900  1.00  0.00     0.003 A 
HETATM    7  C9  UNL     1      23.215   2.491  50.323  1.00  0.00     0.029 A 
HETATM    8  C10 UNL     1      23.387   1.647  51.290  1.00  0.00     0.036 A 
HETATM    9  C11 UNL     1      24.760   1.688  51.650  1.00  0.00     0.036 A 
HETATM   10  N2  UNL     1      23.074   0.701  52.223  1.00  0.00    -0.309 N 
HETATM   11  C12 UNL     1      22.759  -0.232  53.134  1.00  0.00     0.320 C 
HETATM   12  O2  UNL     1      21.761  -0.791  52.872  1.00  0.00    -0.247 OA
HETATM   13  N3  UNL     1      23.207  -0.789  54.311  1.00  0.00    -0.339 N 
HETATM   14  C13 UNL     1      23.647  -1.362  55.503  1.00  0.00     0.151 C 
HETATM   15  C14 UNL     1      25.015  -0.864  55.796  1.00  0.00    -0.009 C 
HETATM   16  C15 UNL     1      26.115  -0.266  55.251  1.00  0.00     0.005 C 
HETATM   17  H10 UNL     1      22.278   0.572  51.494  1.00  0.00     0.170 HD
HETATM   18  H11 UNL     1      23.906  -0.046  54.408  1.00  0.00     0.164 HD
ENDROOT
BRANCH   1  19
HETATM   19  N1  UNL     1      26.097  -1.132  53.533  1.00  0.00    -0.380 N 
HETATM   20  H2  UNL     1      25.509  -2.020  53.449  1.00  0.00     0.160 HD
BRANCH  19  21
HETATM   21  C2  UNL     1      26.964  -1.791  52.595  1.00  0.00     0.143 C 
BRANCH  21  22
HETATM   22  C1  UNL     1      27.947  -2.655  52.789  1.00  0.00     0.237 C 
HETATM   23  O1  UNL     1      28.818  -3.128  53.566  1.00  0.00    -0.283 OA
ENDBRANCH  21  22
ENDBRANCH  19  21
ENDBRANCH   1  19
TORSDOF 3
ENDMDL
MODEL 3
REMARK VINA RESULT:      -7.1      2.333      4.789
REMARK  3 active torsions:
REMARK  status: ('A' for Active; 'I' for Inactive)
REMARK    1  A    between atoms: C1_2  and  C2_3 
REMARK    2  A    between atoms: C2_3  and  N1_4 
REMARK    3  A    between atoms: N1_4  and  C3_5 
ROOT
HETATM    1  C3  UNL     1      22.823   3.488  52.030  1.00  0.00     0.081 C 
HETATM    2  C4  UNL     1      22.882   2.216  51.967  1.00  0.00     0.032 C 
HETATM    3  C5  UNL     1      22.874   1.221  53.084  1.00  0.00     0.046 C 
HETATM    4  C6  UNL     1      24.228   0.493  52.995  1.00  0.00    -0.056 A 
HETATM    5  C7  UNL     1      24.898  -0.644  53.365  1.00  0.00     0.007 A 
HETATM    6  C8  UNL     1      26.183  -0.770  52.928  1.00  0.00     0.003 A 
HETATM    7  C9  UNL     1      26.992   0.013  52.172  1.00  0.00     0.029 A 
HETATM    8  C10 UNL     1      26.499   1.131  51.745  1.00  0.00     0.036 A 
HETATM    9  C11 UNL     1      25.165   1.219  52.225  1.00  0.00     0.036 A 
HETATM   10  N2  UNL     1      26.443   2.333  51.098  1.00  0.00    -0.309 N 
HETATM   11  C12 UNL     1      26.395   3.509  50.455  1.00  0.00     0.320 C 
HETATM   12  O2  UNL     1      27.217   3.594  49.620  1.00  0.00    -0.247 OA
HETATM   13  N3  UNL     1      25.700   4.697  50.424  1.00  0.00    -0.339 N 
HETATM   14  C13 UNL     1      25.005   5.905  50.381  1.00  0.00     0.151 C 
HETATM   15  C14 UNL     1      23.811   5.801  51.258  1.00  0.00    -0.009 C 
HETATM   16  C15 UNL     1      22.981   4.925  51.896  1.00  0.00     0.005 C 
HETATM   17  H10 UNL     1      27.236   1.820  50.559  1.00  0.00     0.170 HD
HETATM   18  H11 UNL     1      25.232   4.458  51.304  1.00  0.00     0.164 HD
ENDROOT
BRANCH   1  19
HETATM   19  N1  UNL     1      22.917   3.550  50.553  1.00  0.00    -0.380 N 
HETATM   20  H2  UNL     1      23.129   3.904  49.568  1.00  0.00     0.160 HD
BRANCH  19  21
HETATM   21  C2  UNL     1      22.400   2.395  49.871  1.00  0.00     0.143 C 
BRANCH  21  22
HETATM   22  C1  UNL     1      22.158   2.190  48.587  1.00  0.00     0.237 C 
HETATM   23  O1  UNL     1      22.610   1.939  47.439  1.00  0.00    -0.283 OA
ENDBRANCH  21  22
ENDBRANCH  19  21
ENDBRANCH   1  19
TORSDOF 3
ENDMDL
MODEL 4
REMARK VINA RESULT:      -6.8      2.260      5.253
REMARK  3 active torsions:
REMARK  status: ('A' for Active; 'I' for Inactive)
REMARK    1  A    between atoms: C1_2  and  C2_3 
REMARK    2  A    between atoms: C2_3  and  N1_4 
REMARK    3  A    between atoms: N1_4  and  C3_5 
ROOT
HETATM    1  C3  UNL     1      24.073   2.414  50.883  1.00  0.00     0.081 C 
HETATM    2  C4  UNL     1      25.027   2.813  51.630  1.00  0.00     0.032 C 
HETATM    3  C5  UNL     1      26.498   2.800  51.360  1.00  0.00     0.046 C 
HETATM    4  C6  UNL     1      27.103   1.876  52.433  1.00  0.00    -0.056 A 
HETATM    5  C7  UNL     1      28.266   1.551  53.082  1.00  0.00     0.007 A 
HETATM    6  C8  UNL     1      28.182   0.596  54.052  1.00  0.00     0.003 A 
HETATM    7  C9  UNL     1      27.158  -0.143  54.546  1.00  0.00     0.029 A 
HETATM    8  C10 UNL     1      25.987   0.051  54.029  1.00  0.00     0.036 A 
HETATM    9  C11 UNL     1      26.125   1.048  53.027  1.00  0.00     0.036 A 
HETATM   10  N2  UNL     1      24.645  -0.099  53.827  1.00  0.00    -0.309 N 
HETATM   11  C12 UNL     1      23.326  -0.250  53.638  1.00  0.00     0.320 C 
HETATM   12  O2  UNL     1      22.796  -0.738  54.564  1.00  0.00    -0.247 OA
HETATM   13  N3  UNL     1      22.334  -0.027  52.709  1.00  0.00    -0.339 N 
HETATM   14  C13 UNL     1      21.319   0.192  51.778  1.00  0.00     0.151 C 
HETATM   15  C14 UNL     1      21.864   1.004  50.660  1.00  0.00    -0.009 C 
HETATM   16  C15 UNL     1      22.884   1.830  50.288  1.00  0.00     0.005 C 
HETATM   17  H10 UNL     1      24.762  -0.455  54.847  1.00  0.00     0.170 HD
HETATM   18  H11 UNL     1      23.037   0.187  51.994  1.00  0.00     0.164 HD
ENDROOT
BRANCH   1  19
HETATM   19  N1  UNL     1      23.108   2.783  51.944  1.00  0.00    -0.380 N 
HETATM   20  H2  UNL     1      22.361   2.702  52.703  1.00  0.00     0.160 HD
BRANCH  19  21
HETATM   21  C2  UNL     1      23.054   4.187  52.244  1.00  0.00     0.143 C 
BRANCH  21  22
HETATM   22  C1  UNL     1      22.136   5.095  51.958  1.00  0.00     0.237 C 
HETATM   23  O1  UNL     1      21.212   5.478  51.193  1.00  0.00    -0.283 OA
ENDBRANCH  21  22
ENDBRANCH  19  21
ENDBRANCH   1  19
TORSDOF 3
ENDMDL
MODEL 5
REMARK VINA RESULT:      -6.7      3.030      4.854
REMARK  3 active torsions:
REMARK  status: ('A' for Active; 'I' for Inactive)
REMARK    1  A    between atoms: C1_2  and  C2_3 
REMARK    2  A    between atoms: C2_3  and  N1_4 
REMARK    3  A    between atoms: N1_4  and  C3_5 
ROOT
HETATM    1  C3  UNL     1      23.047   1.688  50.752  1.00  0.00     0.081 C 
HETATM    2  C4  UNL     1      23.706   1.774  51.841  1.00  0.00     0.032 C 
HETATM    3  C5  UNL     1      25.022   1.155  52.192  1.00  0.00     0.046 C 
HETATM    4  C6  UNL     1      24.729   0.212  53.373  1.00  0.00    -0.056 A 
HETATM    5  C7  UNL     1      25.305  -0.456  54.423  1.00  0.00     0.007 A 
HETATM    6  C8  UNL     1      24.469  -1.172  55.228  1.00  0.00     0.003 A 
HETATM    7  C9  UNL     1      23.131  -1.386  55.227  1.00  0.00     0.029 A 
HETATM    8  C10 UNL     1      22.443  -0.818  54.289  1.00  0.00     0.036 A 
HETATM    9  C11 UNL     1      23.352  -0.088  53.478  1.00  0.00     0.036 A 
HETATM   10  N2  UNL     1      21.351  -0.458  53.551  1.00  0.00    -0.309 N 
HETATM   11  C12 UNL     1      20.274  -0.105  52.835  1.00  0.00     0.320 C 
HETATM   12  O2  UNL     1      19.276  -0.228  53.442  1.00  0.00    -0.247 OA
HETATM   13  N3  UNL     1      19.906   0.367  51.596  1.00  0.00    -0.339 N 
HETATM   14  C13 UNL     1      19.519   0.845  50.344  1.00  0.00     0.151 C 
HETATM   15  C14 UNL     1      20.735   1.232  49.584  1.00  0.00    -0.009 C 
HETATM   16  C15 UNL     1      22.059   1.542  49.698  1.00  0.00     0.005 C 
HETATM   17  H10 UNL     1      20.906  -0.699  54.513  1.00  0.00     0.170 HD
HETATM   18  H11 UNL     1      20.852   0.199  51.239  1.00  0.00     0.164 HD
ENDROOT
BRANCH   1  19
HETATM   19  N1  UNL     1      21.986   2.533  51.346  1.00  0.00    -0.380 N 
HETATM   20  H2  UNL     1      21.045   2.841  51.747  1.00  0.00     0.160 HD
BRANCH  19  21
HETATM   21  C2  UNL     1      22.376   3.892  51.604  1.00  0.00     0.143 C 
BRANCH  21  22
HETATM   22  C1  UNL     1      21.701   5.022  51.474  1.00  0.00     0.237 C 
HETATM   23  O1  UNL     1      21.722   6.261  51.248  1.00  0.00    -0.283 OA
ENDBRANCH  21  22
ENDBRANCH  19  21
ENDBRANCH   1  19
TORSDOF 3
ENDMDL
MODEL 6
REMARK VINA RESULT:      -6.4      3.788      6.733
REMARK  3 active torsions:
REMARK  status: ('A' for Active; 'I' for Inactive)
REMARK    1  A    between atoms: C1_2  and  C2_3 
REMARK    2  A    between atoms: C2_3  and  N1_4 
REMARK    3  A    between atoms: N1_4  and  C3_5 
ROOT
HETATM    1  C3  UNL     1      24.600   2.966  50.662  1.00  0.00     0.081 C 
HETATM    2  C4  UNL     1      25.229   3.237  49.586  1.00  0.00     0.032 C 
HETATM    3  C5  UNL     1      26.695   3.129  49.305  1.00  0.00     0.046 C 
HETATM    4  C6  UNL     1      27.160   4.564  48.998  1.00  0.00    -0.056 A 
HETATM    5  C7  UNL     1      28.150   5.301  48.402  1.00  0.00     0.007 A 
HETATM    6  C8  UNL     1      27.995   6.656  48.407  1.00  0.00     0.003 A 
HETATM    7  C9  UNL     1      27.037   7.483  48.891  1.00  0.00     0.029 A 
HETATM    8  C10 UNL     1      26.029   6.932  49.488  1.00  0.00     0.036 A 
HETATM    9  C11 UNL     1      26.234   5.527  49.460  1.00  0.00     0.036 A 
HETATM   10  N2  UNL     1      24.841   6.839  50.156  1.00  0.00    -0.309 N 
HETATM   11  C12 UNL     1      23.672   6.756  50.807  1.00  0.00     0.320 C 
HETATM   12  O2  UNL     1      23.018   7.722  50.675  1.00  0.00    -0.247 OA
HETATM   13  N3  UNL     1      22.936   5.909  51.605  1.00  0.00    -0.339 N 
HETATM   14  C13 UNL     1      22.180   5.062  52.415  1.00  0.00     0.151 C 
HETATM   15  C14 UNL     1      22.836   3.730  52.458  1.00  0.00    -0.009 C 
HETATM   16  C15 UNL     1      23.743   2.924  51.833  1.00  0.00     0.005 C 
HETATM   17  H10 UNL     1      24.750   7.804  49.664  1.00  0.00     0.170 HD
HETATM   18  H11 UNL     1      23.748   5.295  51.721  1.00  0.00     0.164 HD
ENDROOT
BRANCH   1  19
HETATM   19  N1  UNL     1      23.337   3.384  50.010  1.00  0.00    -0.380 N 
HETATM   20  H2  UNL     1      22.479   3.964  49.747  1.00  0.00     0.160 HD
BRANCH  19  21
HETATM   21  C2  UNL     1      22.817   2.446  49.054  1.00  0.00     0.143 C 
BRANCH  21  22
HETATM   22  C1  UNL     1      21.745   2.508  48.281  1.00  0.00     0.237 C 
HETATM   23  O1  UNL     1      20.855   3.217  47.741  1.00  0.00    -0.283 OA
ENDBRANCH  21  22
ENDBRANCH  19  21
ENDBRANCH   1  19
TORSDOF 3
ENDMDL
MODEL 7
REMARK VINA RESULT:      -6.3      2.355      5.445
REMARK  3 active torsions:
REMARK  status: ('A' for Active; 'I' for Inactive)
REMARK    1  A    between atoms: C1_2  and  C2_3 
REMARK    2  A    between atoms: C2_3  and  N1_4 
REMARK    3  A    between atoms: N1_4  and  C3_5 
ROOT
HETATM    1  C3  UNL     1      21.431   1.504  52.714  1.00  0.00     0.081 C 
HETATM    2  C4  UNL     1      22.174   0.480  52.558  1.00  0.00     0.032 C 
HETATM    3  C5  UNL     1      22.935  -0.292  53.590  1.00  0.00     0.046 C 
HETATM    4  C6  UNL     1      24.417  -0.146  53.200  1.00  0.00    -0.056 A 
HETATM    5  C7  UNL     1      25.662  -0.696  53.362  1.00  0.00     0.007 A 
HETATM    6  C8  UNL     1      26.687  -0.107  52.684  1.00  0.00     0.003 A 
HETATM    7  C9  UNL     1      26.761   0.953  51.843  1.00  0.00     0.029 A 
HETATM    8  C10 UNL     1      25.660   1.584  51.590  1.00  0.00     0.036 A 
HETATM    9  C11 UNL     1      24.624   0.937  52.317  1.00  0.00     0.036 A 
HETATM   10  N2  UNL     1      24.822   2.515  51.044  1.00  0.00    -0.309 N 
HETATM   11  C12 UNL     1      24.007   3.429  50.500  1.00  0.00     0.320 C 
HETATM   12  O2  UNL     1      24.463   3.915  49.533  1.00  0.00    -0.247 OA
HETATM   13  N3  UNL     1      22.778   4.025  50.677  1.00  0.00    -0.339 N 
HETATM   14  C13 UNL     1      21.537   4.638  50.845  1.00  0.00     0.151 C 
HETATM   15  C14 UNL     1      20.797   3.932  51.922  1.00  0.00    -0.009 C 
HETATM   16  C15 UNL     1      20.735   2.777  52.647  1.00  0.00     0.005 C 
HETATM   17  H10 UNL     1      25.645   2.504  50.333  1.00  0.00     0.170 HD
HETATM   18  H11 UNL     1      22.702   3.612  51.612  1.00  0.00     0.164 HD
ENDROOT
BRANCH   1  19
HETATM   19  N1  UNL     1      21.189   1.531  51.253  1.00  0.00    -0.380 N 
HETATM   20  H2  UNL     1      21.234   1.823  50.227  1.00  0.00     0.160 HD
BRANCH  19  21
HETATM   21  C2  UNL     1      20.301   0.508  50.774  1.00  0.00     0.143 C 
BRANCH  21  22
HETATM   22  C1  UNL     1      18.981   0.432  50.798  1.00  0.00     0.237 C 
HETATM   23  O1  UNL     1      17.952  -0.281  50.944  1.00  0.00    -0.283 OA
ENDBRANCH  21  22
ENDBRANCH  19  21
ENDBRANCH   1  19
TORSDOF 3
ENDMDL
MODEL 8
REMARK VINA RESULT:      -6.3      2.718      4.233
REMARK  3 active torsions:
REMARK  status: ('A' for Active; 'I' for Inactive)
REMARK    1  A    between atoms: C1_2  and  C2_3 
REMARK    2  A    between atoms: C2_3  and  N1_4 
REMARK    3  A    between atoms: N1_4  and  C3_5 
ROOT
HETATM    1  C3  UNL     1      24.627   3.263  49.874  1.00  0.00     0.081 C 
HETATM    2  C4  UNL     1      25.380   3.006  50.871  1.00  0.00     0.032 C 
HETATM    3  C5  UNL     1      26.523   2.045  50.959  1.00  0.00     0.046 C 
HETATM    4  C6  UNL     1      26.108   1.010  52.020  1.00  0.00    -0.056 A 
HETATM    5  C7  UNL     1      26.588   0.057  52.881  1.00  0.00     0.007 A 
HETATM    6  C8  UNL     1      25.674  -0.569  53.676  1.00  0.00     0.003 A 
HETATM    7  C9  UNL     1      24.330  -0.459  53.816  1.00  0.00     0.029 A 
HETATM    8  C10 UNL     1      23.727   0.405  53.065  1.00  0.00     0.036 A 
HETATM    9  C11 UNL     1      24.716   1.028  52.257  1.00  0.00     0.036 A 
HETATM   10  N2  UNL     1      22.701   1.131  52.532  1.00  0.00    -0.309 N 
HETATM   11  C12 UNL     1      21.687   1.843  52.017  1.00  0.00     0.320 C 
HETATM   12  O2  UNL     1      20.749   1.857  52.723  1.00  0.00    -0.247 OA
HETATM   13  N3  UNL     1      21.342   2.593  50.915  1.00  0.00    -0.339 N 
HETATM   14  C13 UNL     1      20.978   3.354  49.804  1.00  0.00     0.151 C 
HETATM   15  C14 UNL     1      22.180   3.569  48.958  1.00  0.00    -0.009 C 
HETATM   16  C15 UNL     1      23.544   3.535  48.946  1.00  0.00     0.005 C 
HETATM   17  H10 UNL     1      22.296   0.841  53.498  1.00  0.00     0.170 HD
HETATM   18  H11 UNL     1      22.179   2.270  50.420  1.00  0.00     0.164 HD
ENDROOT
BRANCH   1  19
HETATM   19  N1  UNL     1      23.870   4.220  50.714  1.00  0.00    -0.380 N 
HETATM   20  H2  UNL     1      23.130   4.623  51.370  1.00  0.00     0.160 HD
BRANCH  19  21
HETATM   21  C2  UNL     1      24.411   5.551  50.740  1.00  0.00     0.143 C 
BRANCH  21  22
HETATM   22  C1  UNL     1      23.809   6.728  50.678  1.00  0.00     0.237 C 
HETATM   23  O1  UNL     1      23.771   7.931  51.046  1.00  0.00    -0.283 OA
ENDBRANCH  21  22
ENDBRANCH  19  21
ENDBRANCH   1  19
TORSDOF 3
ENDMDL
MODEL 9
REMARK VINA RESULT:      -6.2      2.307      4.728
REMARK  3 active torsions:
REMARK  status: ('A' for Active; 'I' for Inactive)
REMARK    1  A    between atoms: C1_2  and  C2_3 
REMARK    2  A    between atoms: C2_3  and  N1_4 
REMARK    3  A    between atoms: N1_4  and  C3_5 
ROOT
HETATM    1  C3  UNL     1      21.018   2.991  51.831  1.00  0.00     0.081 C 
HETATM    2  C4  UNL     1      20.951   1.719  51.902  1.00  0.00     0.032 C 
HETATM    3  C5  UNL     1      20.260   0.872  52.923  1.00  0.00     0.046 C 
HETATM    4  C6  UNL     1      21.376   0.056  53.601  1.00  0.00    -0.056 A 
HETATM    5  C7  UNL     1      21.627  -1.067  54.346  1.00  0.00     0.007 A 
HETATM    6  C8  UNL     1      22.931  -1.327  54.647  1.00  0.00     0.003 A 
HETATM    7  C9  UNL     1      24.096  -0.696  54.363  1.00  0.00     0.029 A 
HETATM    8  C10 UNL     1      24.024   0.390  53.662  1.00  0.00     0.036 A 
HETATM    9  C11 UNL     1      22.652   0.620  53.375  1.00  0.00     0.036 A 
HETATM   10  N2  UNL     1      24.446   1.503  52.993  1.00  0.00    -0.309 N 
HETATM   11  C12 UNL     1      24.869   2.591  52.334  1.00  0.00     0.320 C 
HETATM   12  O2  UNL     1      26.004   2.521  52.040  1.00  0.00    -0.247 OA
HETATM   13  N3  UNL     1      24.432   3.808  51.860  1.00  0.00    -0.339 N 
HETATM   14  C13 UNL     1      24.002   5.043  51.376  1.00  0.00     0.151 C 
HETATM   15  C14 UNL     1      22.526   5.123  51.514  1.00  0.00    -0.009 C 
HETATM   16  C15 UNL     1      21.390   4.388  51.694  1.00  0.00     0.005 C 
HETATM   17  H10 UNL     1      25.336   0.879  52.980  1.00  0.00     0.170 HD
HETATM   18  H11 UNL     1      23.558   3.709  52.386  1.00  0.00     0.164 HD
ENDROOT
BRANCH   1  19
HETATM   19  N1  UNL     1      21.855   2.864  50.616  1.00  0.00    -0.380 N 
HETATM   20  H2  UNL     1      22.685   2.938  49.948  1.00  0.00     0.160 HD
BRANCH  19  21
HETATM   21  C2  UNL     1      21.215   2.198  49.515  1.00  0.00     0.143 C 
BRANCH  21  22
HETATM   22  C1  UNL     1      21.711   1.748  48.374  1.00  0.00     0.237 C 
HETATM   23  O1  UNL     1      22.520   1.907  47.422  1.00  0.00    -0.283 OA
ENDBRANCH  21  22
ENDBRANCH  19  21
ENDBRANCH   1  19
TORSDOF 3
ENDMDL
