MODEL 1
REMARK VINA RESULT:      -7.0      0.000      0.000
REMARK  8 active torsions:
REMARK  status: ('A' for Active; 'I' for Inactive)
REMARK    1  A    between atoms: C2_2  and  C3_3 
REMARK    2  A    between atoms: C3_3  and  C4_4 
REMARK    3  A    between atoms: C4_4  and  C5_5 
REMARK    4  A    between atoms: C5_5  and  C6_6 
REMARK    5  A    between atoms: C6_6  and  C7_7 
REMARK    6  A    between atoms: C7_7  and  N1_8 
REMARK    7  A    between atoms: C7_7  and  O1_20 
REMARK    8  A    between atoms: N1_8  and  C8_9 
ROOT
HETATM    1  C8  UNL     1      24.791  -0.249  54.120  1.00  0.00     0.140 A 
HETATM    2  N2  UNL     1      25.069  -0.954  55.211  1.00  0.00    -0.224 NA
HETATM    3  C9  UNL     1      24.165  -1.589  55.917  1.00  0.00     0.236 A 
HETATM    4  N3  UNL     1      22.899  -1.549  55.554  1.00  0.00    -0.234 NA
HETATM    5  C10 UNL     1      22.625  -0.797  54.396  1.00  0.00     0.114 A 
HETATM    6  S1  UNL     1      20.956  -0.514  53.586  1.00  0.00    -0.073 SA
HETATM    7  C11 UNL     1      21.678   0.508  52.274  1.00  0.00    -0.008 A 
HETATM    8  C12 UNL     1      22.991   0.539  52.544  1.00  0.00    -0.028 A 
HETATM    9  C13 UNL     1      23.529  -0.098  53.599  1.00  0.00     0.053 A 
HETATM   10  C14 UNL     1      23.148   1.399  51.332  1.00  0.00     0.046 A 
HETATM   11  C15 UNL     1      21.692   1.351  51.054  1.00  0.00     0.051 A 
ENDROOT
BRANCH   1  12
HETATM   12  N1  UNL     1      25.919   0.366  53.496  1.00  0.00    -0.347 N 
HETATM   13  H9  UNL     1      26.101   0.030  52.520  1.00  0.00     0.163 HD
BRANCH  12  14
HETATM   14  C7  UNL     1      26.848   1.358  53.961  1.00  0.00     0.224 C 
BRANCH  14  15
HETATM   15  C6  UNL     1      27.464   2.092  52.769  1.00  0.00     0.081 C 
BRANCH  15  16
HETATM   16  C5  UNL     1      26.740   1.689  51.541  1.00  0.00    -0.022 C 
BRANCH  16  17
HETATM   17  C4  UNL     1      26.459   2.397  50.459  1.00  0.00     0.004 C 
BRANCH  17  18
HETATM   18  C3  UNL     1      26.220   3.776  50.098  1.00  0.00     0.050 C 
BRANCH  18  19
HETATM   19  C2  UNL     1      26.991   4.359  49.198  1.00  0.00    -0.155 C 
HETATM   20  C1  UNL     1      27.889   5.039  48.506  1.00  0.00     0.096 C 
ENDBRANCH  18  19
ENDBRANCH  17  18
ENDBRANCH  16  17
ENDBRANCH  15  16
ENDBRANCH  14  15
BRANCH  14  21
HETATM   21  O1  UNL     1      27.815   0.892  54.814  1.00  0.00    -0.371 OA
HETATM   22  C16 UNL     1      28.931   0.353  54.218  1.00  0.00     0.204 C 
ENDBRANCH  14  21
ENDBRANCH  12  14
ENDBRANCH   1  12
TORSDOF 8
ENDMDL
MODEL 2
REMARK VINA RESULT:      -6.9      2.478      4.340
REMARK  8 active torsions:
REMARK  status: ('A' for Active; 'I' for Inactive)
REMARK    1  A    between atoms: C2_2  and  C3_3 
REMARK    2  A    between atoms: C3_3  and  C4_4 
REMARK    3  A    between atoms: C4_4  and  C5_5 
REMARK    4  A    between atoms: C5_5  and  C6_6 
REMARK    5  A    between atoms: C6_6  and  C7_7 
REMARK    6  A    between atoms: C7_7  and  N1_8 
REMARK    7  A    between atoms: C7_7  and  O1_20 
REMARK    8  A    between atoms: N1_8  and  C8_9 
ROOT
HETATM    1  C8  UNL     1      23.988   2.465  52.819  1.00  0.00     0.140 A 
HETATM    2  N2  UNL     1      24.002   3.659  52.238  1.00  0.00    -0.224 NA
HETATM    3  C9  UNL     1      22.971   4.178  51.616  1.00  0.00     0.236 A 
HETATM    4  N3  UNL     1      21.839   3.506  51.544  1.00  0.00    -0.234 NA
HETATM    5  C10 UNL     1      21.845   2.243  52.166  1.00  0.00     0.114 A 
HETATM    6  S1  UNL     1      20.432   1.013  52.268  1.00  0.00    -0.073 SA
HETATM    7  C11 UNL     1      21.430  -0.176  53.205  1.00  0.00    -0.008 A 
HETATM    8  C12 UNL     1      22.626   0.411  53.343  1.00  0.00    -0.028 A 
HETATM    9  C13 UNL     1      22.898   1.629  52.841  1.00  0.00     0.053 A 
HETATM   10  C14 UNL     1      23.058  -0.805  54.094  1.00  0.00     0.046 A 
HETATM   11  C15 UNL     1      21.726  -1.435  53.929  1.00  0.00     0.051 A 
ENDROOT
BRANCH   1  12
HETATM   12  N1  UNL     1      25.215   2.085  53.443  1.00  0.00    -0.347 N 
HETATM   13  H9  UNL     1      25.108   1.771  54.437  1.00  0.00     0.163 HD
BRANCH  12  14
HETATM   14  C7  UNL     1      26.567   2.055  52.958  1.00  0.00     0.224 C 
BRANCH  14  15
HETATM   15  C6  UNL     1      26.695   1.019  51.839  1.00  0.00     0.081 C 
BRANCH  15  16
HETATM   16  C5  UNL     1      26.181  -0.279  52.336  1.00  0.00    -0.022 C 
BRANCH  16  17
HETATM   17  C4  UNL     1      26.765  -1.466  52.349  1.00  0.00     0.004 C 
BRANCH  17  18
HETATM   18  C3  UNL     1      27.873  -2.121  53.006  1.00  0.00     0.050 C 
BRANCH  18  19
HETATM   19  C2  UNL     1      28.978  -1.442  53.255  1.00  0.00    -0.155 C 
HETATM   20  C1  UNL     1      30.065  -0.869  53.745  1.00  0.00     0.096 C 
ENDBRANCH  18  19
ENDBRANCH  17  18
ENDBRANCH  16  17
ENDBRANCH  15  16
ENDBRANCH  14  15
BRANCH  14  21
HETATM   21  O1  UNL     1      27.524   1.867  53.922  1.00  0.00    -0.371 OA
HETATM   22  C16 UNL     1      28.729   2.493  53.701  1.00  0.00     0.204 C 
ENDBRANCH  14  21
ENDBRANCH  12  14
ENDBRANCH   1  12
TORSDOF 8
ENDMDL
MODEL 3
REMARK VINA RESULT:      -6.8      1.828      3.485
REMARK  8 active torsions:
REMARK  status: ('A' for Active; 'I' for Inactive)
REMARK    1  A    between atoms: C2_2  and  C3_3 
REMARK    2  A    between atoms: C3_3  and  C4_4 
REMARK    3  A    between atoms: C4_4  and  C5_5 
REMARK    4  A    between atoms: C5_5  and  C6_6 
REMARK    5  A    between atoms: C6_6  and  C7_7 
REMARK    6  A    between atoms: C7_7  and  N1_8 
REMARK    7  A    between atoms: C7_7  and  O1_20 
REMARK    8  A    between atoms: N1_8  and  C8_9 
ROOT
HETATM    1  C8  UNL     1      24.325  -0.226  53.518  1.00  0.00     0.140 A 
HETATM    2  N2  UNL     1      24.971  -0.697  54.579  1.00  0.00    -0.224 NA
HETATM    3  C9  UNL     1      24.380  -1.299  55.583  1.00  0.00     0.236 A 
HETATM    4  N3  UNL     1      23.072  -1.463  55.574  1.00  0.00    -0.234 NA
HETATM    5  C10 UNL     1      22.407  -0.957  54.441  1.00  0.00     0.114 A 
HETATM    6  S1  UNL     1      20.566  -1.007  54.081  1.00  0.00    -0.073 SA
HETATM    7  C11 UNL     1      20.773  -0.151  52.496  1.00  0.00    -0.008 A 
HETATM    8  C12 UNL     1      22.090   0.073  52.394  1.00  0.00    -0.028 A 
HETATM    9  C13 UNL     1      22.965  -0.309  53.342  1.00  0.00     0.053 A 
HETATM   10  C14 UNL     1      21.807   0.724  51.080  1.00  0.00     0.046 A 
HETATM   11  C15 UNL     1      20.353   0.466  51.214  1.00  0.00     0.051 A 
ENDROOT
BRANCH   1  12
HETATM   12  N1  UNL     1      25.154   0.395  52.535  1.00  0.00    -0.347 N 
HETATM   13  H9  UNL     1      25.659  -0.283  51.914  1.00  0.00     0.163 HD
BRANCH  12  14
HETATM   14  C7  UNL     1      25.423   1.775  52.242  1.00  0.00     0.224 C 
BRANCH  14  15
HETATM   15  C6  UNL     1      26.914   1.966  51.960  1.00  0.00     0.081 C 
BRANCH  15  16
HETATM   16  C5  UNL     1      27.630   2.076  53.252  1.00  0.00    -0.022 C 
BRANCH  16  17
HETATM   17  C4  UNL     1      28.272   1.148  53.942  1.00  0.00     0.004 C 
BRANCH  17  18
HETATM   18  C3  UNL     1      29.438   0.305  53.799  1.00  0.00     0.050 C 
BRANCH  18  19
HETATM   19  C2  UNL     1      29.291  -0.961  53.455  1.00  0.00    -0.155 C 
HETATM   20  C1  UNL     1      29.338  -2.272  53.283  1.00  0.00     0.096 C 
ENDBRANCH  18  19
ENDBRANCH  17  18
ENDBRANCH  16  17
ENDBRANCH  15  16
ENDBRANCH  14  15
BRANCH  14  21
HETATM   21  O1  UNL     1      24.977   2.664  53.185  1.00  0.00    -0.371 OA
HETATM   22  C16 UNL     1      23.940   3.481  52.797  1.00  0.00     0.204 C 
ENDBRANCH  14  21
ENDBRANCH  12  14
ENDBRANCH   1  12
TORSDOF 8
ENDMDL
MODEL 4
REMARK VINA RESULT:      -6.5      2.103      2.673
REMARK  8 active torsions:
REMARK  status: ('A' for Active; 'I' for Inactive)
REMARK    1  A    between atoms: C2_2  and  C3_3 
REMARK    2  A    between atoms: C3_3  and  C4_4 
REMARK    3  A    between atoms: C4_4  and  C5_5 
REMARK    4  A    between atoms: C5_5  and  C6_6 
REMARK    5  A    between atoms: C6_6  and  C7_7 
REMARK    6  A    between atoms: C7_7  and  N1_8 
REMARK    7  A    between atoms: C7_7  and  O1_20 
REMARK    8  A    between atoms: N1_8  and  C8_9 
ROOT
HETATM    1  C8  UNL     1      24.181   1.043  53.261  1.00  0.00     0.140 A 
HETATM    2  N2  UNL     1      24.075  -0.269  53.434  1.00  0.00    -0.224 NA
HETATM    3  C9  UNL     1      22.976  -0.948  53.204  1.00  0.00     0.236 A 
HETATM    4  N3  UNL     1      21.896  -0.325  52.777  1.00  0.00    -0.234 NA
HETATM    5  C10 UNL     1      22.029   1.065  52.601  1.00  0.00     0.114 A 
HETATM    6  S1  UNL     1      20.718   2.273  52.014  1.00  0.00    -0.073 SA
HETATM    7  C11 UNL     1      21.850   3.684  52.140  1.00  0.00    -0.008 A 
HETATM    8  C12 UNL     1      23.005   3.163  52.573  1.00  0.00    -0.028 A 
HETATM    9  C13 UNL     1      23.158   1.850  52.825  1.00  0.00     0.053 A 
HETATM   10  C14 UNL     1      23.566   4.546  52.529  1.00  0.00     0.046 A 
HETATM   11  C15 UNL     1      22.277   5.101  52.049  1.00  0.00     0.051 A 
ENDROOT
BRANCH   1  12
HETATM   12  N1  UNL     1      25.465   1.589  53.567  1.00  0.00    -0.347 N 
HETATM   13  H9  UNL     1      25.479   2.188  54.428  1.00  0.00     0.163 HD
BRANCH  12  14
HETATM   14  C7  UNL     1      26.738   1.469  52.912  1.00  0.00     0.224 C 
BRANCH  14  15
HETATM   15  C6  UNL     1      26.543   1.465  51.396  1.00  0.00     0.081 C 
BRANCH  15  16
HETATM   16  C5  UNL     1      26.583   2.864  50.910  1.00  0.00    -0.022 C 
BRANCH  16  17
HETATM   17  C4  UNL     1      26.163   3.369  49.762  1.00  0.00     0.004 C 
BRANCH  17  18
HETATM   18  C3  UNL     1      25.014   4.081  49.247  1.00  0.00     0.050 C 
BRANCH  18  19
HETATM   19  C2  UNL     1      23.882   3.433  49.042  1.00  0.00    -0.155 C 
HETATM   20  C1  UNL     1      22.901   2.609  48.714  1.00  0.00     0.096 C 
ENDBRANCH  18  19
ENDBRANCH  17  18
ENDBRANCH  16  17
ENDBRANCH  15  16
ENDBRANCH  14  15
BRANCH  14  21
HETATM   21  O1  UNL     1      27.499   0.404  53.320  1.00  0.00    -0.371 OA
HETATM   22  C16 UNL     1      27.612   0.233  54.680  1.00  0.00     0.204 C 
ENDBRANCH  14  21
ENDBRANCH  12  14
ENDBRANCH   1  12
TORSDOF 8
ENDMDL
MODEL 5
REMARK VINA RESULT:      -6.5      1.941      2.501
REMARK  8 active torsions:
REMARK  status: ('A' for Active; 'I' for Inactive)
REMARK    1  A    between atoms: C2_2  and  C3_3 
REMARK    2  A    between atoms: C3_3  and  C4_4 
REMARK    3  A    between atoms: C4_4  and  C5_5 
REMARK    4  A    between atoms: C5_5  and  C6_6 
REMARK    5  A    between atoms: C6_6  and  C7_7 
REMARK    6  A    between atoms: C7_7  and  N1_8 
REMARK    7  A    between atoms: C7_7  and  O1_20 
REMARK    8  A    between atoms: N1_8  and  C8_9 
ROOT
HETATM    1  C8  UNL     1      24.712   1.671  53.067  1.00  0.00     0.140 A 
HETATM    2  N2  UNL     1      24.955   0.425  53.455  1.00  0.00    -0.224 NA
HETATM    3  C9  UNL     1      24.027  -0.493  53.580  1.00  0.00     0.236 A 
HETATM    4  N3  UNL     1      22.771  -0.199  53.312  1.00  0.00    -0.234 NA
HETATM    5  C10 UNL     1      22.534   1.126  52.903  1.00  0.00     0.114 A 
HETATM    6  S1  UNL     1      20.888   1.903  52.443  1.00  0.00    -0.073 SA
HETATM    7  C11 UNL     1      21.654   3.511  52.100  1.00  0.00    -0.008 A 
HETATM    8  C12 UNL     1      22.960   3.330  52.342  1.00  0.00    -0.028 A 
HETATM    9  C13 UNL     1      23.464   2.152  52.749  1.00  0.00     0.053 A 
HETATM   10  C14 UNL     1      23.156   4.762  51.965  1.00  0.00     0.046 A 
HETATM   11  C15 UNL     1      21.707   4.939  51.704  1.00  0.00     0.051 A 
ENDROOT
BRANCH   1  12
HETATM   12  N1  UNL     1      25.862   2.515  52.995  1.00  0.00    -0.347 N 
HETATM   13  H9  UNL     1      25.955   3.176  53.803  1.00  0.00     0.163 HD
BRANCH  12  14
HETATM   14  C7  UNL     1      26.911   2.624  52.020  1.00  0.00     0.224 C 
BRANCH  14  15
HETATM   15  C6  UNL     1      26.441   2.044  50.685  1.00  0.00     0.081 C 
BRANCH  15  16
HETATM   16  C5  UNL     1      25.894   3.145  49.858  1.00  0.00    -0.022 C 
BRANCH  16  17
HETATM   17  C4  UNL     1      26.284   4.406  49.769  1.00  0.00     0.004 C 
BRANCH  17  18
HETATM   18  C3  UNL     1      26.827   5.305  48.775  1.00  0.00     0.050 C 
BRANCH  18  19
HETATM   19  C2  UNL     1      28.117   5.270  48.498  1.00  0.00    -0.155 C 
HETATM   20  C1  UNL     1      29.373   5.483  48.140  1.00  0.00     0.096 C 
ENDBRANCH  18  19
ENDBRANCH  17  18
ENDBRANCH  16  17
ENDBRANCH  15  16
ENDBRANCH  14  15
BRANCH  14  21
HETATM   21  O1  UNL     1      28.113   2.087  52.401  1.00  0.00    -0.371 OA
HETATM   22  C16 UNL     1      28.516   2.368  53.686  1.00  0.00     0.204 C 
ENDBRANCH  14  21
ENDBRANCH  12  14
ENDBRANCH   1  12
TORSDOF 8
ENDMDL
MODEL 6
REMARK VINA RESULT:      -6.4      1.776      2.505
REMARK  8 active torsions:
REMARK  status: ('A' for Active; 'I' for Inactive)
REMARK    1  A    between atoms: C2_2  and  C3_3 
REMARK    2  A    between atoms: C3_3  and  C4_4 
REMARK    3  A    between atoms: C4_4  and  C5_5 
REMARK    4  A    between atoms: C5_5  and  C6_6 
REMARK    5  A    between atoms: C6_6  and  C7_7 
REMARK    6  A    between atoms: C7_7  and  N1_8 
REMARK    7  A    between atoms: C7_7  and  O1_20 
REMARK    8  A    between atoms: N1_8  and  C8_9 
ROOT
HETATM    1  C8  UNL     1      23.888  -0.363  53.418  1.00  0.00     0.140 A 
HETATM    2  N2  UNL     1      24.290  -0.895  54.566  1.00  0.00    -0.224 NA
HETATM    3  C9  UNL     1      23.471  -1.344  55.487  1.00  0.00     0.236 A 
HETATM    4  N3  UNL     1      22.169  -1.280  55.297  1.00  0.00    -0.234 NA
HETATM    5  C10 UNL     1      21.763  -0.714  54.073  1.00  0.00     0.114 A 
HETATM    6  S1  UNL     1      20.008  -0.460  53.458  1.00  0.00    -0.073 SA
HETATM    7  C11 UNL     1      20.577   0.283  51.905  1.00  0.00    -0.008 A 
HETATM    8  C12 UNL     1      21.914   0.271  51.986  1.00  0.00    -0.028 A 
HETATM    9  C13 UNL     1      22.571  -0.217  53.053  1.00  0.00     0.053 A 
HETATM   10  C14 UNL     1      21.932   0.906  50.634  1.00  0.00     0.046 A 
HETATM   11  C15 UNL     1      20.450   0.909  50.567  1.00  0.00     0.051 A 
ENDROOT
BRANCH   1  12
HETATM   12  N1  UNL     1      24.939   0.064  52.551  1.00  0.00    -0.347 N 
HETATM   13  H9  UNL     1      24.650   0.167  51.549  1.00  0.00     0.163 HD
BRANCH  12  14
HETATM   14  C7  UNL     1      26.319   0.379  52.801  1.00  0.00     0.224 C 
BRANCH  14  15
HETATM   15  C6  UNL     1      26.673   1.715  52.148  1.00  0.00     0.081 C 
BRANCH  15  16
HETATM   16  C5  UNL     1      25.514   2.173  51.347  1.00  0.00    -0.022 C 
BRANCH  16  17
HETATM   17  C4  UNL     1      24.701   3.196  51.551  1.00  0.00     0.004 C 
BRANCH  17  18
HETATM   18  C3  UNL     1      23.858   3.717  52.604  1.00  0.00     0.050 C 
BRANCH  18  19
HETATM   19  C2  UNL     1      22.595   4.004  52.348  1.00  0.00    -0.155 C 
HETATM   20  C1  UNL     1      21.427   4.412  51.878  1.00  0.00     0.096 C 
ENDBRANCH  18  19
ENDBRANCH  17  18
ENDBRANCH  16  17
ENDBRANCH  15  16
ENDBRANCH  14  15
BRANCH  14  21
HETATM   21  O1  UNL     1      27.209  -0.601  52.447  1.00  0.00    -0.371 OA
HETATM   22  C16 UNL     1      28.290  -0.762  53.282  1.00  0.00     0.204 C 
ENDBRANCH  14  21
ENDBRANCH  12  14
ENDBRANCH   1  12
TORSDOF 8
ENDMDL
MODEL 7
REMARK VINA RESULT:      -6.3      2.578      4.590
REMARK  8 active torsions:
REMARK  status: ('A' for Active; 'I' for Inactive)
REMARK    1  A    between atoms: C2_2  and  C3_3 
REMARK    2  A    between atoms: C3_3  and  C4_4 
REMARK    3  A    between atoms: C4_4  and  C5_5 
REMARK    4  A    between atoms: C5_5  and  C6_6 
REMARK    5  A    between atoms: C6_6  and  C7_7 
REMARK    6  A    between atoms: C7_7  and  N1_8 
REMARK    7  A    between atoms: C7_7  and  O1_20 
REMARK    8  A    between atoms: N1_8  and  C8_9 
ROOT
HETATM    1  C8  UNL     1      26.404   2.081  52.028  1.00  0.00     0.140 A 
HETATM    2  N2  UNL     1      27.640   2.481  52.304  1.00  0.00    -0.224 NA
HETATM    3  C9  UNL     1      28.325   2.066  53.343  1.00  0.00     0.236 A 
HETATM    4  N3  UNL     1      27.788   1.204  54.182  1.00  0.00    -0.234 NA
HETATM    5  C10 UNL     1      26.478   0.792  53.872  1.00  0.00     0.114 A 
HETATM    6  S1  UNL     1      25.403  -0.413  54.828  1.00  0.00    -0.073 SA
HETATM    7  C11 UNL     1      24.028  -0.236  53.658  1.00  0.00    -0.008 A 
HETATM    8  C12 UNL     1      24.467   0.635  52.739  1.00  0.00    -0.028 A 
HETATM    9  C13 UNL     1      25.692   1.189  52.793  1.00  0.00     0.053 A 
HETATM   10  C14 UNL     1      23.144   0.481  52.063  1.00  0.00     0.046 A 
HETATM   11  C15 UNL     1      22.680  -0.481  53.092  1.00  0.00     0.051 A 
ENDROOT
BRANCH   1  12
HETATM   12  N1  UNL     1      25.835   2.652  50.849  1.00  0.00    -0.347 N 
HETATM   13  H9  UNL     1      25.048   2.092  50.442  1.00  0.00     0.163 HD
BRANCH  12  14
HETATM   14  C7  UNL     1      26.144   3.851  50.120  1.00  0.00     0.224 C 
BRANCH  14  15
HETATM   15  C6  UNL     1      24.913   4.318  49.342  1.00  0.00     0.081 C 
BRANCH  15  16
HETATM   16  C5  UNL     1      23.832   3.321  49.526  1.00  0.00    -0.022 C 
BRANCH  16  17
HETATM   17  C4  UNL     1      22.652   3.456  50.109  1.00  0.00     0.004 C 
BRANCH  17  18
HETATM   18  C3  UNL     1      22.104   3.999  51.331  1.00  0.00     0.050 C 
BRANCH  18  19
HETATM   19  C2  UNL     1      22.912   4.316  52.326  1.00  0.00    -0.155 C 
HETATM   20  C1  UNL     1      23.788   4.377  53.316  1.00  0.00     0.096 C 
ENDBRANCH  18  19
ENDBRANCH  17  18
ENDBRANCH  16  17
ENDBRANCH  15  16
ENDBRANCH  14  15
BRANCH  14  21
HETATM   21  O1  UNL     1      27.245   3.767  49.308  1.00  0.00    -0.371 OA
HETATM   22  C16 UNL     1      27.544   4.897  48.582  1.00  0.00     0.204 C 
ENDBRANCH  14  21
ENDBRANCH  12  14
ENDBRANCH   1  12
TORSDOF 8
ENDMDL
MODEL 8
REMARK VINA RESULT:      -6.3      2.585      4.177
REMARK  8 active torsions:
REMARK  status: ('A' for Active; 'I' for Inactive)
REMARK    1  A    between atoms: C2_2  and  C3_3 
REMARK    2  A    between atoms: C3_3  and  C4_4 
REMARK    3  A    between atoms: C4_4  and  C5_5 
REMARK    4  A    between atoms: C5_5  and  C6_6 
REMARK    5  A    between atoms: C6_6  and  C7_7 
REMARK    6  A    between atoms: C7_7  and  N1_8 
REMARK    7  A    between atoms: C7_7  and  O1_20 
REMARK    8  A    between atoms: N1_8  and  C8_9 
ROOT
HETATM    1  C8  UNL     1      26.637   2.060  52.224  1.00  0.00     0.140 A 
HETATM    2  N2  UNL     1      27.881   2.431  52.509  1.00  0.00    -0.224 NA
HETATM    3  C9  UNL     1      28.562   1.970  53.530  1.00  0.00     0.236 A 
HETATM    4  N3  UNL     1      28.015   1.088  54.342  1.00  0.00    -0.234 NA
HETATM    5  C10 UNL     1      26.697   0.708  54.024  1.00  0.00     0.114 A 
HETATM    6  S1  UNL     1      25.606  -0.512  54.941  1.00  0.00    -0.073 SA
HETATM    7  C11 UNL     1      24.231  -0.274  53.784  1.00  0.00    -0.008 A 
HETATM    8  C12 UNL     1      24.680   0.622  52.894  1.00  0.00    -0.028 A 
HETATM    9  C13 UNL     1      25.914   1.154  52.961  1.00  0.00     0.053 A 
HETATM   10  C14 UNL     1      23.353   0.512  52.218  1.00  0.00     0.046 A 
HETATM   11  C15 UNL     1      22.877  -0.478  53.215  1.00  0.00     0.051 A 
ENDROOT
BRANCH   1  12
HETATM   12  N1  UNL     1      26.074   2.680  51.068  1.00  0.00    -0.347 N 
HETATM   13  H9  UNL     1      26.692   2.645  50.222  1.00  0.00     0.163 HD
BRANCH  12  14
HETATM   14  C7  UNL     1      24.817   3.342  50.853  1.00  0.00     0.224 C 
BRANCH  14  15
HETATM   15  C6  UNL     1      24.750   3.876  49.421  1.00  0.00     0.081 C 
BRANCH  15  16
HETATM   16  C5  UNL     1      25.468   5.170  49.364  1.00  0.00    -0.022 C 
BRANCH  16  17
HETATM   17  C4  UNL     1      26.598   5.480  48.748  1.00  0.00     0.004 C 
BRANCH  17  18
HETATM   18  C3  UNL     1      27.920   4.925  48.567  1.00  0.00     0.050 C 
BRANCH  18  19
HETATM   19  C2  UNL     1      28.907   5.706  48.168  1.00  0.00    -0.155 C 
HETATM   20  C1  UNL     1      30.028   6.380  47.968  1.00  0.00     0.096 C 
ENDBRANCH  18  19
ENDBRANCH  17  18
ENDBRANCH  16  17
ENDBRANCH  15  16
ENDBRANCH  14  15
BRANCH  14  21
HETATM   21  O1  UNL     1      24.515   4.321  51.764  1.00  0.00    -0.371 OA
HETATM   22  C16 UNL     1      23.366   4.127  52.495  1.00  0.00     0.204 C 
ENDBRANCH  14  21
ENDBRANCH  12  14
ENDBRANCH   1  12
TORSDOF 8
ENDMDL
MODEL 9
REMARK VINA RESULT:      -6.3      2.173      4.196
REMARK  8 active torsions:
REMARK  status: ('A' for Active; 'I' for Inactive)
REMARK    1  A    between atoms: C2_2  and  C3_3 
REMARK    2  A    between atoms: C3_3  and  C4_4 
REMARK    3  A    between atoms: C4_4  and  C5_5 
REMARK    4  A    between atoms: C5_5  and  C6_6 
REMARK    5  A    between atoms: C6_6  and  C7_7 
REMARK    6  A    between atoms: C7_7  and  N1_8 
REMARK    7  A    between atoms: C7_7  and  O1_20 
REMARK    8  A    between atoms: N1_8  and  C8_9 
ROOT
HETATM    1  C8  UNL     1      26.027   0.712  52.845  1.00  0.00     0.140 A 
HETATM    2  N2  UNL     1      27.236   0.653  53.390  1.00  0.00    -0.224 NA
HETATM    3  C9  UNL     1      27.493   0.058  54.530  1.00  0.00     0.236 A 
HETATM    4  N3  UNL     1      26.521  -0.527  55.200  1.00  0.00    -0.234 NA
HETATM    5  C10 UNL     1      25.247  -0.454  54.606  1.00  0.00     0.114 A 
HETATM    6  S1  UNL     1      23.637  -1.162  55.262  1.00  0.00    -0.073 SA
HETATM    7  C11 UNL     1      22.696  -0.547  53.840  1.00  0.00    -0.008 A 
HETATM    8  C12 UNL     1      23.599   0.078  53.072  1.00  0.00    -0.028 A 
HETATM    9  C13 UNL     1      24.900   0.160  53.404  1.00  0.00     0.053 A 
HETATM   10  C14 UNL     1      22.482   0.383  52.128  1.00  0.00     0.046 A 
HETATM   11  C15 UNL     1      21.500  -0.314  52.994  1.00  0.00     0.051 A 
ENDROOT
BRANCH   1  12
HETATM   12  N1  UNL     1      25.961   1.407  51.599  1.00  0.00    -0.347 N 
HETATM   13  H9  UNL     1      25.847   0.779  50.767  1.00  0.00     0.163 HD
BRANCH  12  14
HETATM   14  C7  UNL     1      26.022   2.806  51.279  1.00  0.00     0.224 C 
BRANCH  14  15
HETATM   15  C6  UNL     1      24.622   3.324  50.946  1.00  0.00     0.081 C 
BRANCH  15  16
HETATM   16  C5  UNL     1      23.997   3.830  52.190  1.00  0.00    -0.022 C 
BRANCH  16  17
HETATM   17  C4  UNL     1      22.727   4.101  52.445  1.00  0.00     0.004 C 
BRANCH  17  18
HETATM   18  C3  UNL     1      21.527   4.452  51.719  1.00  0.00     0.050 C 
BRANCH  18  19
HETATM   19  C2  UNL     1      20.490   3.635  51.737  1.00  0.00    -0.155 C 
HETATM   20  C1  UNL     1      19.547   2.742  51.988  1.00  0.00     0.096 C 
ENDBRANCH  18  19
ENDBRANCH  17  18
ENDBRANCH  16  17
ENDBRANCH  15  16
ENDBRANCH  14  15
BRANCH  14  21
HETATM   21  O1  UNL     1      26.921   3.136  50.298  1.00  0.00    -0.371 OA
HETATM   22  C16 UNL     1      26.522   4.120  49.424  1.00  0.00     0.204 C 
ENDBRANCH  14  21
ENDBRANCH  12  14
ENDBRANCH   1  12
TORSDOF 8
ENDMDL
