MODEL 1
REMARK VINA RESULT:      -7.6      0.000      0.000
REMARK  4 active torsions:
REMARK  status: ('A' for Active; 'I' for Inactive)
REMARK    1  A    between atoms: O1_2  and  C2_3 
REMARK    2  A    between atoms: C6_9  and  N3_10 
REMARK    3  A    between atoms: N3_10  and  C7_11 
REMARK    4  A    between atoms: C15_21  and  P1_22 
ROOT
HETATM    1  C2  UNL     1      19.386   0.712  50.839  1.00  0.00     0.081 A 
HETATM    2  C3  UNL     1      19.387   0.010  52.025  1.00  0.00     0.070 A 
HETATM    3  C4  UNL     1      20.533  -0.083  52.778  1.00  0.00     0.074 A 
HETATM    4  N1  UNL     1      20.408  -0.792  53.910  1.00  0.00    -0.241 NA
HETATM    5  C5  UNL     1      21.502  -0.910  54.680  1.00  0.00     0.236 A 
HETATM    6  N2  UNL     1      22.651  -0.338  54.315  1.00  0.00    -0.224 NA
HETATM    7  C6  UNL     1      22.859   0.381  53.209  1.00  0.00     0.142 A 
HETATM    8  C13 UNL     1      21.734   0.500  52.423  1.00  0.00     0.040 A 
HETATM    9  C14 UNL     1      21.678   1.180  51.246  1.00  0.00     0.032 A 
HETATM   10  C15 UNL     1      20.562   1.309  50.447  1.00  0.00     0.000 A 
ENDROOT
BRANCH   7  11
HETATM   11  N3  UNL     1      24.059   0.999  52.794  1.00  0.00    -0.338 N 
HETATM   12  H6  UNL     1      24.060   1.882  52.289  1.00  0.00     0.167 HD
BRANCH  11  13
HETATM   13  C7  UNL     1      25.377   0.525  52.997  1.00  0.00     0.072 A 
HETATM   14  C8  UNL     1      25.837  -0.677  52.513  1.00  0.00     0.034 A 
HETATM   15  C9  UNL     1      27.102  -1.141  52.701  1.00  0.00     0.021 A 
HETATM   16  C10 UNL     1      28.031  -0.411  53.412  1.00  0.00     0.014 A 
HETATM   17 BR1  UNL     1      29.815  -0.983  53.724  1.00  0.00    -0.051 Br
HETATM   18  C11 UNL     1      27.622   0.801  53.920  1.00  0.00     0.063 A 
HETATM   19  C12 UNL     1      26.333   1.223  53.700  1.00  0.00     0.144 A 
HETATM   20  F1  UNL     1      26.004   2.428  54.231  1.00  0.00    -0.204 F 
ENDBRANCH  11  13
ENDBRANCH   7  11
BRANCH  10  21
HETATM   21  P1  UNL     1      20.552   2.237  48.875  1.00  0.00    -0.096 P 
HETATM   22  C16 UNL     1      22.108   1.960  47.906  1.00  0.00     0.046 C 
HETATM   23  H11 UNL     1      20.253   3.634  49.052  1.00  0.00     0.062 HD
ENDBRANCH  10  21
BRANCH   1  24
HETATM   24  O1  UNL     1      18.241   0.807  50.082  1.00  0.00    -0.355 OA
HETATM   25  C1  UNL     1      17.211  -0.144  50.160  1.00  0.00     0.210 C 
ENDBRANCH   1  24
TORSDOF 4
ENDMDL
MODEL 2
REMARK VINA RESULT:      -7.5      4.598      6.031
REMARK  4 active torsions:
REMARK  status: ('A' for Active; 'I' for Inactive)
REMARK    1  A    between atoms: O1_2  and  C2_3 
REMARK    2  A    between atoms: C6_9  and  N3_10 
REMARK    3  A    between atoms: N3_10  and  C7_11 
REMARK    4  A    between atoms: C15_21  and  P1_22 
ROOT
HETATM    1  C2  UNL     1      23.130   0.208  53.116  1.00  0.00     0.081 A 
HETATM    2  C3  UNL     1      24.428   0.267  53.577  1.00  0.00     0.070 A 
HETATM    3  C4  UNL     1      25.372   1.003  52.902  1.00  0.00     0.074 A 
HETATM    4  N1  UNL     1      26.598   0.983  53.447  1.00  0.00    -0.241 NA
HETATM    5  C5  UNL     1      27.555   1.689  52.823  1.00  0.00     0.236 A 
HETATM    6  N2  UNL     1      27.275   2.373  51.711  1.00  0.00    -0.224 NA
HETATM    7  C6  UNL     1      26.087   2.444  51.107  1.00  0.00     0.142 A 
HETATM    8  C13 UNL     1      25.108   1.720  51.750  1.00  0.00     0.040 A 
HETATM    9  C14 UNL     1      23.815   1.627  51.340  1.00  0.00     0.032 A 
HETATM   10  C15 UNL     1      22.823   0.907  51.971  1.00  0.00     0.000 A 
ENDROOT
BRANCH   7  11
HETATM   11  N3  UNL     1      25.758   3.157  49.933  1.00  0.00    -0.338 N 
HETATM   12  H6  UNL     1      25.157   2.758  49.215  1.00  0.00     0.167 HD
BRANCH  11  13
HETATM   13  C7  UNL     1      26.179   4.461  49.579  1.00  0.00     0.072 A 
HETATM   14  C8  UNL     1      27.276   4.718  48.790  1.00  0.00     0.034 A 
HETATM   15  C9  UNL     1      27.690   5.966  48.443  1.00  0.00     0.021 A 
HETATM   16  C10 UNL     1      27.014   7.088  48.876  1.00  0.00     0.014 A 
HETATM   17 BR1  UNL     1      27.522   8.866  48.441  1.00  0.00    -0.051 Br
HETATM   18  C11 UNL     1      25.908   6.887  49.670  1.00  0.00     0.063 A 
HETATM   19  C12 UNL     1      25.533   5.604  49.990  1.00  0.00     0.144 A 
HETATM   20  F1  UNL     1      24.433   5.487  50.776  1.00  0.00    -0.204 F 
ENDBRANCH  11  13
ENDBRANCH   7  11
BRANCH  10  21
HETATM   21  P1  UNL     1      21.102   0.822  51.370  1.00  0.00    -0.096 P 
HETATM   22  C16 UNL     1      20.011   2.041  52.242  1.00  0.00     0.046 C 
HETATM   23  H11 UNL     1      20.566  -0.513  51.393  1.00  0.00     0.062 HD
ENDBRANCH  10  21
BRANCH   1  24
HETATM   24  O1  UNL     1      22.181  -0.529  53.789  1.00  0.00    -0.355 OA
HETATM   25  C1  UNL     1      22.470  -1.206  54.985  1.00  0.00     0.210 C 
ENDBRANCH   1  24
TORSDOF 4
ENDMDL
MODEL 3
REMARK VINA RESULT:      -7.5      2.478      3.702
REMARK  4 active torsions:
REMARK  status: ('A' for Active; 'I' for Inactive)
REMARK    1  A    between atoms: O1_2  and  C2_3 
REMARK    2  A    between atoms: C6_9  and  N3_10 
REMARK    3  A    between atoms: N3_10  and  C7_11 
REMARK    4  A    between atoms: C15_21  and  P1_22 
ROOT
HETATM    1  C2  UNL     1      21.192   0.610  51.782  1.00  0.00     0.081 A 
HETATM    2  C3  UNL     1      21.617   1.322  50.681  1.00  0.00     0.070 A 
HETATM    3  C4  UNL     1      22.854   1.921  50.675  1.00  0.00     0.074 A 
HETATM    4  N1  UNL     1      23.153   2.585  49.548  1.00  0.00    -0.241 NA
HETATM    5  C5  UNL     1      24.352   3.187  49.495  1.00  0.00     0.236 A 
HETATM    6  N2  UNL     1      25.192   3.115  50.530  1.00  0.00    -0.224 NA
HETATM    7  C6  UNL     1      24.972   2.478  51.682  1.00  0.00     0.142 A 
HETATM    8  C13 UNL     1      23.741   1.861  51.732  1.00  0.00     0.040 A 
HETATM    9  C14 UNL     1      23.273   1.148  52.791  1.00  0.00     0.032 A 
HETATM   10  C15 UNL     1      22.045   0.524  52.859  1.00  0.00     0.000 A 
ENDROOT
BRANCH   7  11
HETATM   11  N3  UNL     1      25.837   2.382  52.794  1.00  0.00    -0.338 N 
HETATM   12  H6  UNL     1      25.804   3.053  53.557  1.00  0.00     0.167 HD
BRANCH  11  13
HETATM   13  C7  UNL     1      26.831   1.400  53.020  1.00  0.00     0.072 A 
HETATM   14  C8  UNL     1      26.656   0.063  52.750  1.00  0.00     0.034 A 
HETATM   15  C9  UNL     1      27.604  -0.889  52.962  1.00  0.00     0.021 A 
HETATM   16  C10 UNL     1      28.839  -0.561  53.480  1.00  0.00     0.014 A 
HETATM   17 BR1  UNL     1      30.220  -1.824  53.810  1.00  0.00    -0.051 Br
HETATM   18  C11 UNL     1      29.068   0.764  53.769  1.00  0.00     0.063 A 
HETATM   19  C12 UNL     1      28.075   1.685  53.535  1.00  0.00     0.144 A 
HETATM   20  F1  UNL     1      28.374   2.972  53.845  1.00  0.00    -0.204 F 
ENDBRANCH  11  13
ENDBRANCH   7  11
BRANCH  10  21
HETATM   21  P1  UNL     1      21.474  -0.421  54.312  1.00  0.00    -0.096 P 
HETATM   22  C16 UNL     1      22.884  -1.237  55.195  1.00  0.00     0.046 C 
HETATM   23  H11 UNL     1      20.412  -1.340  53.999  1.00  0.00     0.062 HD
ENDBRANCH  10  21
BRANCH   1  24
HETATM   24  O1  UNL     1      19.954   0.008  51.792  1.00  0.00    -0.355 OA
HETATM   25  C1  UNL     1      18.803   0.657  51.318  1.00  0.00     0.210 C 
ENDBRANCH   1  24
TORSDOF 4
ENDMDL
MODEL 4
REMARK VINA RESULT:      -7.2      5.247      6.906
REMARK  4 active torsions:
REMARK  status: ('A' for Active; 'I' for Inactive)
REMARK    1  A    between atoms: O1_2  and  C2_3 
REMARK    2  A    between atoms: C6_9  and  N3_10 
REMARK    3  A    between atoms: N3_10  and  C7_11 
REMARK    4  A    between atoms: C15_21  and  P1_22 
ROOT
HETATM    1  C2  UNL     1      25.392   0.045  53.795  1.00  0.00     0.081 A 
HETATM    2  C3  UNL     1      24.128   0.179  53.263  1.00  0.00     0.070 A 
HETATM    3  C4  UNL     1      23.910   1.005  52.186  1.00  0.00     0.074 A 
HETATM    4  N1  UNL     1      22.639   1.053  51.760  1.00  0.00    -0.241 NA
HETATM    5  C5  UNL     1      22.377   1.847  50.709  1.00  0.00     0.236 A 
HETATM    6  N2  UNL     1      23.355   2.549  50.131  1.00  0.00    -0.224 NA
HETATM    7  C6  UNL     1      24.640   2.558  50.493  1.00  0.00     0.142 A 
HETATM    8  C13 UNL     1      24.904   1.742  51.570  1.00  0.00     0.040 A 
HETATM    9  C14 UNL     1      26.130   1.573  52.134  1.00  0.00     0.032 A 
HETATM   10  C15 UNL     1      26.413   0.761  53.212  1.00  0.00     0.000 A 
ENDROOT
BRANCH   7  11
HETATM   11  N3  UNL     1      25.696   3.287  49.904  1.00  0.00    -0.338 N 
HETATM   12  H6  UNL     1      26.500   2.822  49.489  1.00  0.00     0.167 HD
BRANCH  11  13
HETATM   13  C7  UNL     1      25.809   4.693  49.800  1.00  0.00     0.072 A 
HETATM   14  C8  UNL     1      24.997   5.575  50.474  1.00  0.00     0.034 A 
HETATM   15  C9  UNL     1      25.097   6.928  50.382  1.00  0.00     0.021 A 
HETATM   16  C10 UNL     1      26.050   7.519  49.580  1.00  0.00     0.014 A 
HETATM   17 BR1  UNL     1      26.259   9.398  49.391  1.00  0.00    -0.051 Br
HETATM   18  C11 UNL     1      26.890   6.683  48.882  1.00  0.00     0.063 A 
HETATM   19  C12 UNL     1      26.746   5.322  49.012  1.00  0.00     0.144 A 
HETATM   20  F1  UNL     1      27.611   4.563  48.293  1.00  0.00    -0.204 F 
ENDBRANCH  11  13
ENDBRANCH   7  11
BRANCH  10  21
HETATM   21  P1  UNL     1      28.083   0.577  53.923  1.00  0.00    -0.096 P 
HETATM   22  C16 UNL     1      28.882  -1.009  53.392  1.00  0.00     0.046 C 
HETATM   23  H11 UNL     1      28.106   0.756  55.350  1.00  0.00     0.062 HD
ENDBRANCH  10  21
BRANCH   1  24
HETATM   24  O1  UNL     1      25.614  -0.782  54.873  1.00  0.00    -0.355 OA
HETATM   25  C1  UNL     1      24.569  -1.240  55.691  1.00  0.00     0.210 C 
ENDBRANCH   1  24
TORSDOF 4
ENDMDL
MODEL 5
REMARK VINA RESULT:      -7.2      2.861      3.777
REMARK  4 active torsions:
REMARK  status: ('A' for Active; 'I' for Inactive)
REMARK    1  A    between atoms: O1_2  and  C2_3 
REMARK    2  A    between atoms: C6_9  and  N3_10 
REMARK    3  A    between atoms: N3_10  and  C7_11 
REMARK    4  A    between atoms: C15_21  and  P1_22 
ROOT
HETATM    1  C2  UNL     1      23.203   3.935  48.918  1.00  0.00     0.081 A 
HETATM    2  C3  UNL     1      22.271   2.921  48.977  1.00  0.00     0.070 A 
HETATM    3  C4  UNL     1      22.265   2.043  50.035  1.00  0.00     0.074 A 
HETATM    4  N1  UNL     1      21.312   1.100  49.980  1.00  0.00    -0.241 NA
HETATM    5  C5  UNL     1      21.267   0.219  50.992  1.00  0.00     0.236 A 
HETATM    6  N2  UNL     1      22.141   0.297  51.998  1.00  0.00    -0.224 NA
HETATM    7  C6  UNL     1      23.116   1.201  52.127  1.00  0.00     0.142 A 
HETATM    8  C13 UNL     1      23.158   2.103  51.088  1.00  0.00     0.040 A 
HETATM    9  C14 UNL     1      24.055   3.120  50.979  1.00  0.00     0.032 A 
HETATM   10  C15 UNL     1      24.112   4.032  49.946  1.00  0.00     0.000 A 
ENDROOT
BRANCH   7  11
HETATM   11  N3  UNL     1      24.055   1.312  53.176  1.00  0.00    -0.338 N 
HETATM   12  H6  UNL     1      23.863   1.860  54.011  1.00  0.00     0.167 HD
BRANCH  11  13
HETATM   13  C7  UNL     1      25.338   0.720  53.238  1.00  0.00     0.072 A 
HETATM   14  C8  UNL     1      25.595  -0.582  52.877  1.00  0.00     0.034 A 
HETATM   15  C9  UNL     1      26.824  -1.161  52.933  1.00  0.00     0.021 A 
HETATM   16  C10 UNL     1      27.926  -0.456  53.370  1.00  0.00     0.014 A 
HETATM   17 BR1  UNL     1      29.676  -1.185  53.481  1.00  0.00    -0.051 Br
HETATM   18  C11 UNL     1      27.725   0.853  53.745  1.00  0.00     0.063 A 
HETATM   19  C12 UNL     1      26.461   1.389  53.669  1.00  0.00     0.144 A 
HETATM   20  F1  UNL     1      26.343   2.684  54.055  1.00  0.00    -0.204 F 
ENDBRANCH  11  13
ENDBRANCH   7  11
BRANCH  10  21
HETATM   21  P1  UNL     1      25.342   5.378  49.859  1.00  0.00    -0.096 P 
HETATM   22  C16 UNL     1      24.689   6.950  50.592  1.00  0.00     0.046 C 
HETATM   23  H11 UNL     1      25.872   5.565  48.534  1.00  0.00     0.062 HD
ENDBRANCH  10  21
BRANCH   1  24
HETATM   24  O1  UNL     1      23.212   4.816  47.860  1.00  0.00    -0.355 OA
HETATM   25  C1  UNL     1      22.114   4.959  46.996  1.00  0.00     0.210 C 
ENDBRANCH   1  24
TORSDOF 4
ENDMDL
MODEL 6
REMARK VINA RESULT:      -7.1      4.310      6.919
REMARK  4 active torsions:
REMARK  status: ('A' for Active; 'I' for Inactive)
REMARK    1  A    between atoms: O1_2  and  C2_3 
REMARK    2  A    between atoms: C6_9  and  N3_10 
REMARK    3  A    between atoms: N3_10  and  C7_11 
REMARK    4  A    between atoms: C15_21  and  P1_22 
ROOT
HETATM    1  C2  UNL     1      26.196   0.616  53.706  1.00  0.00     0.081 A 
HETATM    2  C3  UNL     1      25.462  -0.204  54.535  1.00  0.00     0.070 A 
HETATM    3  C4  UNL     1      24.154  -0.504  54.235  1.00  0.00     0.074 A 
HETATM    4  N1  UNL     1      23.545  -1.310  55.118  1.00  0.00    -0.241 NA
HETATM    5  C5  UNL     1      22.265  -1.632  54.867  1.00  0.00     0.236 A 
HETATM    6  N2  UNL     1      21.648  -1.159  53.782  1.00  0.00    -0.224 NA
HETATM    7  C6  UNL     1      22.181  -0.355  52.859  1.00  0.00     0.142 A 
HETATM    8  C13 UNL     1      23.493  -0.028  53.119  1.00  0.00     0.040 A 
HETATM    9  C14 UNL     1      24.263   0.775  52.337  1.00  0.00     0.032 A 
HETATM   10  C15 UNL     1      25.577   1.113  52.582  1.00  0.00     0.000 A 
ENDROOT
BRANCH   7  11
HETATM   11  N3  UNL     1      21.558   0.162  51.702  1.00  0.00    -0.338 N 
HETATM   12  H6  UNL     1      21.891  -0.065  50.768  1.00  0.00     0.167 HD
BRANCH  11  13
HETATM   13  C7  UNL     1      20.440   1.027  51.649  1.00  0.00     0.072 A 
HETATM   14  C8  UNL     1      19.158   0.601  51.389  1.00  0.00     0.034 A 
HETATM   15  C9  UNL     1      18.077   1.423  51.336  1.00  0.00     0.021 A 
HETATM   16  C10 UNL     1      18.202   2.780  51.546  1.00  0.00     0.014 A 
HETATM   17 BR1  UNL     1      16.747   4.001  51.490  1.00  0.00    -0.051 Br
HETATM   18  C11 UNL     1      19.463   3.261  51.810  1.00  0.00     0.063 A 
HETATM   19  C12 UNL     1      20.522   2.386  51.852  1.00  0.00     0.144 A 
HETATM   20  F1  UNL     1      21.735   2.935  52.118  1.00  0.00    -0.204 F 
ENDBRANCH  11  13
ENDBRANCH   7  11
BRANCH  10  21
HETATM   21  P1  UNL     1      26.559   2.198  51.490  1.00  0.00    -0.096 P 
HETATM   22  C16 UNL     1      25.478   3.338  50.508  1.00  0.00     0.046 C 
HETATM   23  H11 UNL     1      27.486   1.469  50.666  1.00  0.00     0.062 HD
ENDBRANCH  10  21
BRANCH   1  24
HETATM   24  O1  UNL     1      27.506   0.919  54.002  1.00  0.00    -0.355 OA
HETATM   25  C1  UNL     1      28.307   0.081  54.795  1.00  0.00     0.210 C 
ENDBRANCH   1  24
TORSDOF 4
ENDMDL
MODEL 7
REMARK VINA RESULT:      -7.0      4.468      6.573
REMARK  4 active torsions:
REMARK  status: ('A' for Active; 'I' for Inactive)
REMARK    1  A    between atoms: O1_2  and  C2_3 
REMARK    2  A    between atoms: C6_9  and  N3_10 
REMARK    3  A    between atoms: N3_10  and  C7_11 
REMARK    4  A    between atoms: C15_21  and  P1_22 
ROOT
HETATM    1  C2  UNL     1      25.762   4.049  49.887  1.00  0.00     0.081 A 
HETATM    2  C3  UNL     1      26.453   2.916  50.258  1.00  0.00     0.070 A 
HETATM    3  C4  UNL     1      25.931   2.060  51.199  1.00  0.00     0.074 A 
HETATM    4  N1  UNL     1      26.696   0.993  51.476  1.00  0.00    -0.241 NA
HETATM    5  C5  UNL     1      26.227   0.128  52.390  1.00  0.00     0.236 A 
HETATM    6  N2  UNL     1      25.051   0.341  52.984  1.00  0.00    -0.224 NA
HETATM    7  C6  UNL     1      24.233   1.374  52.765  1.00  0.00     0.142 A 
HETATM    8  C13 UNL     1      24.716   2.258  51.827  1.00  0.00     0.040 A 
HETATM    9  C14 UNL     1      24.078   3.390  51.425  1.00  0.00     0.032 A 
HETATM   10  C15 UNL     1      24.547   4.285  50.487  1.00  0.00     0.000 A 
ENDROOT
BRANCH   7  11
HETATM   11  N3  UNL     1      22.984   1.628  53.374  1.00  0.00    -0.338 N 
HETATM   12  H6  UNL     1      22.797   2.497  53.869  1.00  0.00     0.167 HD
BRANCH  11  13
HETATM   13  C7  UNL     1      21.856   0.775  53.397  1.00  0.00     0.072 A 
HETATM   14  C8  UNL     1      21.769  -0.352  54.179  1.00  0.00     0.034 A 
HETATM   15  C9  UNL     1      20.690  -1.179  54.210  1.00  0.00     0.021 A 
HETATM   16  C10 UNL     1      19.579  -0.930  53.431  1.00  0.00     0.014 A 
HETATM   17 BR1  UNL     1      18.030  -2.030  53.410  1.00  0.00    -0.051 Br
HETATM   18  C11 UNL     1      19.612   0.186  52.628  1.00  0.00     0.063 A 
HETATM   19  C12 UNL     1      20.729   0.988  52.636  1.00  0.00     0.144 A 
HETATM   20  F1  UNL     1      20.687   2.070  51.817  1.00  0.00    -0.204 F 
ENDBRANCH  11  13
ENDBRANCH   7  11
BRANCH  10  21
HETATM   21  P1  UNL     1      23.639   5.789  49.990  1.00  0.00    -0.096 P 
HETATM   22  C16 UNL     1      24.177   7.268  50.968  1.00  0.00     0.046 C 
HETATM   23  H11 UNL     1      22.212   5.609  49.999  1.00  0.00     0.062 HD
ENDBRANCH  10  21
BRANCH   1  24
HETATM   24  O1  UNL     1      26.281   4.908  48.944  1.00  0.00    -0.355 OA
HETATM   25  C1  UNL     1      27.651   4.945  48.640  1.00  0.00     0.210 C 
ENDBRANCH   1  24
TORSDOF 4
ENDMDL
MODEL 8
REMARK VINA RESULT:      -6.7      7.320      9.401
REMARK  4 active torsions:
REMARK  status: ('A' for Active; 'I' for Inactive)
REMARK    1  A    between atoms: O1_2  and  C2_3 
REMARK    2  A    between atoms: C6_9  and  N3_10 
REMARK    3  A    between atoms: N3_10  and  C7_11 
REMARK    4  A    between atoms: C15_21  and  P1_22 
ROOT
HETATM    1  C2  UNL     1      29.533   7.315  47.126  1.00  0.00     0.081 A 
HETATM    2  C3  UNL     1      28.239   7.788  47.174  1.00  0.00     0.070 A 
HETATM    3  C4  UNL     1      27.261   7.072  47.822  1.00  0.00     0.074 A 
HETATM    4  N1  UNL     1      26.043   7.634  47.800  1.00  0.00    -0.241 NA
HETATM    5  C5  UNL     1      25.053   6.972  48.420  1.00  0.00     0.236 A 
HETATM    6  N2  UNL     1      25.295   5.806  49.026  1.00  0.00    -0.224 NA
HETATM    7  C6  UNL     1      26.473   5.181  49.093  1.00  0.00     0.142 A 
HETATM    8  C13 UNL     1      27.484   5.865  48.456  1.00  0.00     0.040 A 
HETATM    9  C14 UNL     1      28.776   5.445  48.378  1.00  0.00     0.032 A 
HETATM   10  C15 UNL     1      29.801   6.115  47.745  1.00  0.00     0.000 A 
ENDROOT
BRANCH   7  11
HETATM   11  N3  UNL     1      26.762   3.952  49.724  1.00  0.00    -0.338 N 
HETATM   12  H6  UNL     1      27.686   3.530  49.676  1.00  0.00     0.167 HD
BRANCH  11  13
HETATM   13  C7  UNL     1      25.873   3.150  50.480  1.00  0.00     0.072 A 
HETATM   14  C8  UNL     1      24.559   2.937  50.136  1.00  0.00     0.034 A 
HETATM   15  C9  UNL     1      23.697   2.169  50.854  1.00  0.00     0.021 A 
HETATM   16  C10 UNL     1      24.101   1.536  52.010  1.00  0.00     0.014 A 
HETATM   17 BR1  UNL     1      22.965   0.446  53.075  1.00  0.00    -0.051 Br
HETATM   18  C11 UNL     1      25.408   1.715  52.402  1.00  0.00     0.063 A 
HETATM   19  C12 UNL     1      26.237   2.503  51.638  1.00  0.00     0.144 A 
HETATM   20  F1  UNL     1      27.511   2.632  52.088  1.00  0.00    -0.204 F 
ENDBRANCH  11  13
ENDBRANCH   7  11
BRANCH  10  21
HETATM   21  P1  UNL     1      31.517   5.497  47.676  1.00  0.00    -0.096 P 
HETATM   22  C16 UNL     1      32.518   6.096  49.116  1.00  0.00     0.046 C 
HETATM   23  H11 UNL     1      32.155   5.758  46.413  1.00  0.00     0.062 HD
ENDBRANCH  10  21
BRANCH   1  24
HETATM   24  O1  UNL     1      30.515   8.029  46.479  1.00  0.00    -0.355 OA
HETATM   25  C1  UNL     1      30.870   9.332  46.863  1.00  0.00     0.210 C 
ENDBRANCH   1  24
TORSDOF 4
ENDMDL
MODEL 9
REMARK VINA RESULT:      -6.7      8.136     10.386
REMARK  4 active torsions:
REMARK  status: ('A' for Active; 'I' for Inactive)
REMARK    1  A    between atoms: O1_2  and  C2_3 
REMARK    2  A    between atoms: C6_9  and  N3_10 
REMARK    3  A    between atoms: N3_10  and  C7_11 
REMARK    4  A    between atoms: C15_21  and  P1_22 
ROOT
HETATM    1  C2  UNL     1      31.444   6.832  47.725  1.00  0.00     0.081 A 
HETATM    2  C3  UNL     1      30.488   7.774  48.036  1.00  0.00     0.070 A 
HETATM    3  C4  UNL     1      29.207   7.388  48.350  1.00  0.00     0.074 A 
HETATM    4  N1  UNL     1      28.368   8.395  48.635  1.00  0.00    -0.241 NA
HETATM    5  C5  UNL     1      27.104   8.067  48.948  1.00  0.00     0.236 A 
HETATM    6  N2  UNL     1      26.723   6.788  48.970  1.00  0.00    -0.224 NA
HETATM    7  C6  UNL     1      27.492   5.730  48.701  1.00  0.00     0.142 A 
HETATM    8  C13 UNL     1      28.787   6.072  48.380  1.00  0.00     0.040 A 
HETATM    9  C14 UNL     1      29.769   5.184  48.065  1.00  0.00     0.032 A 
HETATM   10  C15 UNL     1      31.070   5.508  47.742  1.00  0.00     0.000 A 
ENDROOT
BRANCH   7  11
HETATM   11  N3  UNL     1      27.122   4.368  48.715  1.00  0.00    -0.338 N 
HETATM   12  H6  UNL     1      27.477   3.709  48.026  1.00  0.00     0.167 HD
BRANCH  11  13
HETATM   13  C7  UNL     1      26.250   3.729  49.629  1.00  0.00     0.072 A 
HETATM   14  C8  UNL     1      26.683   2.956  50.680  1.00  0.00     0.034 A 
HETATM   15  C9  UNL     1      25.855   2.339  51.565  1.00  0.00     0.021 A 
HETATM   16  C10 UNL     1      24.485   2.453  51.458  1.00  0.00     0.014 A 
HETATM   17 BR1  UNL     1      23.256   1.625  52.647  1.00  0.00    -0.051 Br
HETATM   18  C11 UNL     1      23.997   3.216  50.423  1.00  0.00     0.063 A 
HETATM   19  C12 UNL     1      24.879   3.819  49.557  1.00  0.00     0.144 A 
HETATM   20  F1  UNL     1      24.323   4.555  48.562  1.00  0.00    -0.204 F 
ENDBRANCH  11  13
ENDBRANCH   7  11
BRANCH  10  21
HETATM   21  P1  UNL     1      32.343   4.267  47.328  1.00  0.00    -0.096 P 
HETATM   22  C16 UNL     1      32.767   4.297  45.524  1.00  0.00     0.046 C 
HETATM   23  H11 UNL     1      32.010   2.947  47.795  1.00  0.00     0.062 HD
ENDBRANCH  10  21
BRANCH   1  24
HETATM   24  O1  UNL     1      32.728   7.215  47.409  1.00  0.00    -0.355 OA
HETATM   25  C1  UNL     1      33.566   7.857  48.335  1.00  0.00     0.210 C 
ENDBRANCH   1  24
TORSDOF 4
ENDMDL
