MODEL 1
REMARK VINA RESULT:      -8.1      0.000      0.000
REMARK  6 active torsions:
REMARK  status: ('A' for Active; 'I' for Inactive)
REMARK    1  A    between atoms: C5_7  and  C6_8 
REMARK    2  A    between atoms: C6_8  and  C7_9 
REMARK    3  A    between atoms: C7_9  and  O2_10 
REMARK    4  A    between atoms: O2_10  and  C8_11 
REMARK    5  A    between atoms: N2_13  and  C10_14 
REMARK    6  A    between atoms: C19_26  and  O3_27 
ROOT
HETATM    1  C8  UNL     1      23.973   2.220  52.290  1.00  0.00     0.188 C 
HETATM    2  C9  UNL     1      24.707   0.946  52.542  1.00  0.00     0.310 C 
HETATM    3  N2  UNL     1      24.474   0.205  53.728  1.00  0.00     0.122 NA
HETATM    4  C15 UNL     1      23.403  -0.798  53.606  1.00  0.00     0.423 C 
HETATM    5  N3  UNL     1      22.134  -0.320  53.303  1.00  0.00    -0.253 NA
HETATM    6  C16 UNL     1      20.982  -0.679  53.739  1.00  0.00     0.228 C 
HETATM    7  N4  UNL     1      19.865   0.038  53.209  1.00  0.00    -0.258 NA
HETATM    8  C17 UNL     1      20.119   1.137  52.577  1.00  0.00     0.099 C 
HETATM    9  C18 UNL     1      21.502   1.537  52.467  1.00  0.00     0.079 C 
HETATM   10  C19 UNL     1      22.539   2.247  52.146  1.00  0.00     0.131 C 
ENDROOT
BRANCH   1  11
HETATM   11  O2  UNL     1      24.488   2.719  51.029  1.00  0.00    -0.381 OA
BRANCH  11  12
HETATM   12  C7  UNL     1      25.849   2.542  50.945  1.00  0.00     0.170 C 
BRANCH  12  13
HETATM   13  C6  UNL     1      26.503   3.411  49.901  1.00  0.00     0.069 C 
BRANCH  13  14
HETATM   14  C5  UNL     1      25.848   4.725  49.679  1.00  0.00     0.277 C 
HETATM   15  C2  UNL     1      26.761   5.514  48.799  1.00  0.00     0.070 C 
HETATM   16  C1  UNL     1      27.978   5.128  48.502  1.00  0.00     0.048 C 
HETATM   17  O1  UNL     1      26.250   6.722  48.287  1.00  0.00    -0.352 OA
HETATM   18  C3  UNL     1      25.018   7.101  48.909  1.00  0.00     0.205 C 
HETATM   19  C4  UNL     1      24.048   5.980  48.731  1.00  0.00     0.297 C 
HETATM   20  N1  UNL     1      24.575   4.668  49.034  1.00  0.00     0.096 N 
HETATM   21  H7  UNL     1      23.872   4.038  49.478  1.00  0.00     0.316 HD
ENDBRANCH  13  14
ENDBRANCH  12  13
ENDBRANCH  11  12
ENDBRANCH   1  11
BRANCH  10  22
HETATM   22  O3  UNL     1      22.722   3.477  51.446  1.00  0.00    -0.378 OA
HETATM   23  C20 UNL     1      21.792   4.517  51.478  1.00  0.00     0.202 C 
ENDBRANCH  10  22
BRANCH   3  24
HETATM   24  C10 UNL     1      25.642  -0.699  53.991  1.00  0.00     0.274 A 
HETATM   25  C11 UNL     1      26.517  -0.670  52.783  1.00  0.00     0.016 A 
HETATM   26  C12 UNL     1      27.712  -0.148  53.112  1.00  0.00     0.040 A 
HETATM   27  C13 UNL     1      27.712   0.202  54.551  1.00  0.00     0.114 A 
HETATM   28  F1  UNL     1      28.831   0.753  55.117  1.00  0.00    -0.206 F 
HETATM   29  C14 UNL     1      26.520  -0.123  55.031  1.00  0.00     0.055 A 
ENDBRANCH   3  24
TORSDOF 6
ENDMDL
MODEL 2
REMARK VINA RESULT:      -8.0      1.428      2.113
REMARK  6 active torsions:
REMARK  status: ('A' for Active; 'I' for Inactive)
REMARK    1  A    between atoms: C5_7  and  C6_8 
REMARK    2  A    between atoms: C6_8  and  C7_9 
REMARK    3  A    between atoms: C7_9  and  O2_10 
REMARK    4  A    between atoms: O2_10  and  C8_11 
REMARK    5  A    between atoms: N2_13  and  C10_14 
REMARK    6  A    between atoms: C19_26  and  O3_27 
ROOT
HETATM    1  C8  UNL     1      23.205   2.146  52.000  1.00  0.00     0.188 C 
HETATM    2  C9  UNL     1      24.478   1.386  51.834  1.00  0.00     0.310 C 
HETATM    3  N2  UNL     1      25.203   0.944  52.970  1.00  0.00     0.122 NA
HETATM    4  C15 UNL     1      24.823  -0.400  53.436  1.00  0.00     0.423 C 
HETATM    5  N3  UNL     1      23.506  -0.567  53.845  1.00  0.00    -0.253 NA
HETATM    6  C16 UNL     1      23.015  -1.235  54.825  1.00  0.00     0.228 C 
HETATM    7  N4  UNL     1      21.593  -1.189  54.958  1.00  0.00    -0.258 NA
HETATM    8  C17 UNL     1      20.968  -0.282  54.281  1.00  0.00     0.099 C 
HETATM    9  C18 UNL     1      21.761   0.597  53.456  1.00  0.00     0.079 C 
HETATM   10  C19 UNL     1      22.052   1.557  52.633  1.00  0.00     0.131 C 
ENDROOT
BRANCH   1  11
HETATM   11  O2  UNL     1      22.771   2.470  50.653  1.00  0.00    -0.381 OA
BRANCH  11  12
HETATM   12  C7  UNL     1      23.817   2.947  49.898  1.00  0.00     0.170 C 
BRANCH  12  13
HETATM   13  C6  UNL     1      23.914   4.451  49.894  1.00  0.00     0.069 C 
BRANCH  13  14
HETATM   14  C5  UNL     1      25.117   5.001  49.219  1.00  0.00     0.277 C 
HETATM   15  C2  UNL     1      25.429   6.298  49.890  1.00  0.00     0.070 C 
HETATM   16  C1  UNL     1      24.625   6.868  50.754  1.00  0.00     0.048 C 
HETATM   17  O1  UNL     1      26.655   6.901  49.549  1.00  0.00    -0.352 OA
HETATM   18  C3  UNL     1      27.276   6.277  48.422  1.00  0.00     0.205 C 
HETATM   19  C4  UNL     1      27.451   4.827  48.736  1.00  0.00     0.297 C 
HETATM   20  N1  UNL     1      26.286   4.184  49.299  1.00  0.00     0.096 N 
HETATM   21  H7  UNL     1      26.170   3.197  48.980  1.00  0.00     0.316 HD
ENDBRANCH  13  14
ENDBRANCH  12  13
ENDBRANCH  11  12
ENDBRANCH   1  11
BRANCH  10  22
HETATM   22  O3  UNL     1      21.280   2.532  51.934  1.00  0.00    -0.378 OA
HETATM   23  C20 UNL     1      19.932   2.772  52.203  1.00  0.00     0.202 C 
ENDBRANCH  10  22
BRANCH   3  24
HETATM   24  C10 UNL     1      26.629   0.687  52.583  1.00  0.00     0.274 A 
HETATM   25  C11 UNL     1      27.322   2.006  52.505  1.00  0.00     0.016 A 
HETATM   26  C12 UNL     1      28.292   2.055  53.436  1.00  0.00     0.040 A 
HETATM   27  C13 UNL     1      28.309   0.780  54.189  1.00  0.00     0.114 A 
HETATM   28  F1  UNL     1      29.221   0.597  55.195  1.00  0.00    -0.206 F 
HETATM   29  C14 UNL     1      27.352   0.015  53.684  1.00  0.00     0.055 A 
ENDBRANCH   3  24
TORSDOF 6
ENDMDL
MODEL 3
REMARK VINA RESULT:      -7.8      1.579      1.968
REMARK  6 active torsions:
REMARK  status: ('A' for Active; 'I' for Inactive)
REMARK    1  A    between atoms: C5_7  and  C6_8 
REMARK    2  A    between atoms: C6_8  and  C7_9 
REMARK    3  A    between atoms: C7_9  and  O2_10 
REMARK    4  A    between atoms: O2_10  and  C8_11 
REMARK    5  A    between atoms: N2_13  and  C10_14 
REMARK    6  A    between atoms: C19_26  and  O3_27 
ROOT
HETATM    1  C8  UNL     1      24.410   3.712  51.290  1.00  0.00     0.188 C 
HETATM    2  C9  UNL     1      24.725   2.257  51.387  1.00  0.00     0.310 C 
HETATM    3  N2  UNL     1      24.367   1.521  52.545  1.00  0.00     0.122 NA
HETATM    4  C15 UNL     1      23.028   0.911  52.476  1.00  0.00     0.423 C 
HETATM    5  N3  UNL     1      21.954   1.781  52.337  1.00  0.00    -0.253 NA
HETATM    6  C16 UNL     1      20.787   1.756  52.869  1.00  0.00     0.228 C 
HETATM    7  N4  UNL     1      19.913   2.827  52.502  1.00  0.00    -0.258 NA
HETATM    8  C17 UNL     1      20.448   3.846  51.914  1.00  0.00     0.099 C 
HETATM    9  C18 UNL     1      21.873   3.810  51.683  1.00  0.00     0.079 C 
HETATM   10  C19 UNL     1      23.052   4.192  51.299  1.00  0.00     0.131 C 
ENDROOT
BRANCH   1  11
HETATM   11  O2  UNL     1      24.953   4.140  50.014  1.00  0.00    -0.381 OA
BRANCH  11  12
HETATM   12  C7  UNL     1      26.165   3.540  49.766  1.00  0.00     0.170 C 
BRANCH  12  13
HETATM   13  C6  UNL     1      27.100   4.396  48.950  1.00  0.00     0.069 C 
BRANCH  13  14
HETATM   14  C5  UNL     1      26.841   5.856  49.025  1.00  0.00     0.277 C 
HETATM   15  C2  UNL     1      28.007   6.531  48.381  1.00  0.00     0.070 C 
HETATM   16  C1  UNL     1      29.100   5.895  48.034  1.00  0.00     0.048 C 
HETATM   17  O1  UNL     1      27.884   7.915  48.154  1.00  0.00    -0.352 OA
HETATM   18  C3  UNL     1      26.746   8.478  48.814  1.00  0.00     0.205 C 
HETATM   19  C4  UNL     1      25.534   7.739  48.351  1.00  0.00     0.297 C 
HETATM   20  N1  UNL     1      25.663   6.300  48.350  1.00  0.00     0.096 N 
HETATM   21  H7  UNL     1      24.780   5.810  48.614  1.00  0.00     0.316 HD
ENDBRANCH  13  14
ENDBRANCH  12  13
ENDBRANCH  11  12
ENDBRANCH   1  11
BRANCH  10  22
HETATM   22  O3  UNL     1      23.554   5.363  50.658  1.00  0.00    -0.378 OA
HETATM   23  C20 UNL     1      22.989   6.628  50.830  1.00  0.00     0.202 C 
ENDBRANCH  10  22
BRANCH   3  24
HETATM   24  C10 UNL     1      25.208   0.282  52.630  1.00  0.00     0.274 A 
HETATM   25  C11 UNL     1      26.514   0.576  51.970  1.00  0.00     0.016 A 
HETATM   26  C12 UNL     1      27.501   0.493  52.879  1.00  0.00     0.040 A 
HETATM   27  C13 UNL     1      26.922   0.141  54.196  1.00  0.00     0.114 A 
HETATM   28  F1  UNL     1      27.743  -0.001  55.284  1.00  0.00    -0.206 F 
HETATM   29  C14 UNL     1      25.613   0.025  54.028  1.00  0.00     0.055 A 
ENDBRANCH   3  24
TORSDOF 6
ENDMDL
MODEL 4
REMARK VINA RESULT:      -7.8      1.923      2.466
REMARK  6 active torsions:
REMARK  status: ('A' for Active; 'I' for Inactive)
REMARK    1  A    between atoms: C5_7  and  C6_8 
REMARK    2  A    between atoms: C6_8  and  C7_9 
REMARK    3  A    between atoms: C7_9  and  O2_10 
REMARK    4  A    between atoms: O2_10  and  C8_11 
REMARK    5  A    between atoms: N2_13  and  C10_14 
REMARK    6  A    between atoms: C19_26  and  O3_27 
ROOT
HETATM    1  C8  UNL     1      23.202   2.190  52.059  1.00  0.00     0.188 C 
HETATM    2  C9  UNL     1      24.479   1.436  51.894  1.00  0.00     0.310 C 
HETATM    3  N2  UNL     1      25.199   0.986  53.031  1.00  0.00     0.122 NA
HETATM    4  C15 UNL     1      24.821  -0.364  53.482  1.00  0.00     0.423 C 
HETATM    5  N3  UNL     1      23.502  -0.540  53.881  1.00  0.00    -0.253 NA
HETATM    6  C16 UNL     1      23.008  -1.219  54.851  1.00  0.00     0.228 C 
HETATM    7  N4  UNL     1      21.584  -1.180  54.976  1.00  0.00    -0.258 NA
HETATM    8  C17 UNL     1      20.960  -0.269  54.303  1.00  0.00     0.099 C 
HETATM    9  C18 UNL     1      21.756   0.621  53.492  1.00  0.00     0.079 C 
HETATM   10  C19 UNL     1      22.048   1.590  52.679  1.00  0.00     0.131 C 
ENDROOT
BRANCH   1  11
HETATM   11  O2  UNL     1      22.776   2.525  50.713  1.00  0.00    -0.381 OA
BRANCH  11  12
HETATM   12  C7  UNL     1      23.857   2.755  49.894  1.00  0.00     0.170 C 
BRANCH  12  13
HETATM   13  C6  UNL     1      23.785   4.073  49.166  1.00  0.00     0.069 C 
BRANCH  13  14
HETATM   14  C5  UNL     1      22.968   5.117  49.835  1.00  0.00     0.277 C 
HETATM   15  C2  UNL     1      23.256   6.401  49.131  1.00  0.00     0.070 C 
HETATM   16  C1  UNL     1      24.213   6.533  48.245  1.00  0.00     0.048 C 
HETATM   17  O1  UNL     1      22.435   7.497  49.465  1.00  0.00    -0.352 OA
HETATM   18  C3  UNL     1      21.622   7.240  50.613  1.00  0.00     0.205 C 
HETATM   19  C4  UNL     1      20.812   6.016  50.340  1.00  0.00     0.297 C 
HETATM   20  N1  UNL     1      21.556   4.908  49.785  1.00  0.00     0.096 N 
HETATM   21  H7  UNL     1      21.224   3.980  50.130  1.00  0.00     0.316 HD
ENDBRANCH  13  14
ENDBRANCH  12  13
ENDBRANCH  11  12
ENDBRANCH   1  11
BRANCH  10  22
HETATM   22  O3  UNL     1      21.276   2.569  51.985  1.00  0.00    -0.378 OA
HETATM   23  C20 UNL     1      19.937   2.830  52.276  1.00  0.00     0.202 C 
ENDBRANCH  10  22
BRANCH   3  24
HETATM   24  C10 UNL     1      26.628   0.738  52.651  1.00  0.00     0.274 A 
HETATM   25  C11 UNL     1      27.279   2.065  52.444  1.00  0.00     0.016 A 
HETATM   26  C12 UNL     1      28.256   2.228  53.354  1.00  0.00     0.040 A 
HETATM   27  C13 UNL     1      28.321   1.029  54.220  1.00  0.00     0.114 A 
HETATM   28  F1  UNL     1      29.248   0.966  55.227  1.00  0.00    -0.206 F 
HETATM   29  C14 UNL     1      27.383   0.192  53.798  1.00  0.00     0.055 A 
ENDBRANCH   3  24
TORSDOF 6
ENDMDL
MODEL 5
REMARK VINA RESULT:      -7.5      2.472      3.300
REMARK  6 active torsions:
REMARK  status: ('A' for Active; 'I' for Inactive)
REMARK    1  A    between atoms: C5_7  and  C6_8 
REMARK    2  A    between atoms: C6_8  and  C7_9 
REMARK    3  A    between atoms: C7_9  and  O2_10 
REMARK    4  A    between atoms: O2_10  and  C8_11 
REMARK    5  A    between atoms: N2_13  and  C10_14 
REMARK    6  A    between atoms: C19_26  and  O3_27 
ROOT
HETATM    1  C8  UNL     1      23.202   2.012  51.934  1.00  0.00     0.188 C 
HETATM    2  C9  UNL     1      24.471   1.252  51.739  1.00  0.00     0.310 C 
HETATM    3  N2  UNL     1      25.264   0.880  52.854  1.00  0.00     0.122 NA
HETATM    4  C15 UNL     1      24.925  -0.438  53.416  1.00  0.00     0.423 C 
HETATM    5  N3  UNL     1      23.635  -0.591  53.909  1.00  0.00    -0.253 NA
HETATM    6  C16 UNL     1      23.208  -1.205  54.951  1.00  0.00     0.228 C 
HETATM    7  N4  UNL     1      21.795  -1.162  55.163  1.00  0.00    -0.258 NA
HETATM    8  C17 UNL     1      21.123  -0.299  54.474  1.00  0.00     0.099 C 
HETATM    9  C18 UNL     1      21.860   0.538  53.557  1.00  0.00     0.079 C 
HETATM   10  C19 UNL     1      22.093   1.451  52.665  1.00  0.00     0.131 C 
ENDROOT
BRANCH   1  11
HETATM   11  O2  UNL     1      22.688   2.256  50.599  1.00  0.00    -0.381 OA
BRANCH  11  12
HETATM   12  C7  UNL     1      23.627   2.886  49.816  1.00  0.00     0.170 C 
BRANCH  12  13
HETATM   13  C6  UNL     1      23.044   3.524  48.581  1.00  0.00     0.069 C 
BRANCH  13  14
HETATM   14  C5  UNL     1      22.016   4.564  48.836  1.00  0.00     0.277 C 
HETATM   15  C2  UNL     1      20.712   3.998  48.381  1.00  0.00     0.070 C 
HETATM   16  C1  UNL     1      20.615   2.879  47.705  1.00  0.00     0.048 C 
HETATM   17  O1  UNL     1      19.557   4.733  48.715  1.00  0.00    -0.352 OA
HETATM   18  C3  UNL     1      19.867   6.033  49.225  1.00  0.00     0.205 C 
HETATM   19  C4  UNL     1      20.766   5.863  50.405  1.00  0.00     0.297 C 
HETATM   20  N1  UNL     1      21.863   4.945  50.205  1.00  0.00     0.096 N 
HETATM   21  H7  UNL     1      22.738   5.241  50.691  1.00  0.00     0.316 HD
ENDBRANCH  13  14
ENDBRANCH  12  13
ENDBRANCH  11  12
ENDBRANCH   1  11
BRANCH  10  22
HETATM   22  O3  UNL     1      21.272   2.380  51.958  1.00  0.00    -0.378 OA
HETATM   23  C20 UNL     1      19.928   2.597  52.266  1.00  0.00     0.202 C 
ENDBRANCH  10  22
BRANCH   3  24
HETATM   24  C10 UNL     1      26.668   0.611  52.400  1.00  0.00     0.274 A 
HETATM   25  C11 UNL     1      27.456   1.863  52.598  1.00  0.00     0.016 A 
HETATM   26  C12 UNL     1      28.425   1.640  53.504  1.00  0.00     0.040 A 
HETATM   27  C13 UNL     1      28.348   0.235  53.965  1.00  0.00     0.114 A 
HETATM   28  F1  UNL     1      29.242  -0.226  54.895  1.00  0.00    -0.206 F 
HETATM   29  C14 UNL     1      27.339  -0.332  53.321  1.00  0.00     0.055 A 
ENDBRANCH   3  24
TORSDOF 6
ENDMDL
MODEL 6
REMARK VINA RESULT:      -7.5      2.549      4.876
REMARK  6 active torsions:
REMARK  status: ('A' for Active; 'I' for Inactive)
REMARK    1  A    between atoms: C5_7  and  C6_8 
REMARK    2  A    between atoms: C6_8  and  C7_9 
REMARK    3  A    between atoms: C7_9  and  O2_10 
REMARK    4  A    between atoms: O2_10  and  C8_11 
REMARK    5  A    between atoms: N2_13  and  C10_14 
REMARK    6  A    between atoms: C19_26  and  O3_27 
ROOT
HETATM    1  C8  UNL     1      24.674   1.829  51.520  1.00  0.00     0.188 C 
HETATM    2  C9  UNL     1      23.811   1.003  52.414  1.00  0.00     0.310 C 
HETATM    3  N2  UNL     1      24.250  -0.270  52.859  1.00  0.00     0.122 NA
HETATM    4  C15 UNL     1      24.997  -0.234  54.128  1.00  0.00     0.423 C 
HETATM    5  N3  UNL     1      26.174   0.502  54.137  1.00  0.00    -0.253 NA
HETATM    6  C16 UNL     1      27.305   0.261  54.693  1.00  0.00     0.228 C 
HETATM    7  N4  UNL     1      28.319   1.249  54.496  1.00  0.00    -0.258 NA
HETATM    8  C17 UNL     1      28.111   2.129  53.572  1.00  0.00     0.099 C 
HETATM    9  C18 UNL     1      26.878   2.032  52.827  1.00  0.00     0.079 C 
HETATM   10  C19 UNL     1      25.961   2.312  51.952  1.00  0.00     0.131 C 
ENDROOT
BRANCH   1  11
HETATM   11  O2  UNL     1      23.901   3.024  51.234  1.00  0.00    -0.381 OA
BRANCH  11  12
HETATM   12  C7  UNL     1      23.064   3.334  52.281  1.00  0.00     0.170 C 
BRANCH  12  13
HETATM   13  C6  UNL     1      22.812   4.813  52.426  1.00  0.00     0.069 C 
BRANCH  13  14
HETATM   14  C5  UNL     1      23.446   5.664  51.387  1.00  0.00     0.277 C 
HETATM   15  C2  UNL     1      22.336   6.301  50.620  1.00  0.00     0.070 C 
HETATM   16  C1  UNL     1      21.079   5.958  50.762  1.00  0.00     0.048 C 
HETATM   17  O1  UNL     1      22.701   7.313  49.711  1.00  0.00    -0.352 OA
HETATM   18  C3  UNL     1      24.116   7.379  49.507  1.00  0.00     0.205 C 
HETATM   19  C4  UNL     1      24.765   7.579  50.836  1.00  0.00     0.297 C 
HETATM   20  N1  UNL     1      24.280   6.711  51.885  1.00  0.00     0.096 N 
HETATM   21  H7  UNL     1      25.028   6.416  52.550  1.00  0.00     0.316 HD
ENDBRANCH  13  14
ENDBRANCH  12  13
ENDBRANCH  11  12
ENDBRANCH   1  11
BRANCH  10  22
HETATM   22  O3  UNL     1      25.824   3.315  50.946  1.00  0.00    -0.378 OA
HETATM   23  C20 UNL     1      26.697   3.432  49.863  1.00  0.00     0.202 C 
ENDBRANCH  10  22
BRANCH   3  24
HETATM   24  C10 UNL     1      23.066  -1.087  53.282  1.00  0.00     0.274 A 
HETATM   25  C11 UNL     1      22.803  -0.792  54.721  1.00  0.00     0.016 A 
HETATM   26  C12 UNL     1      21.595  -0.214  54.844  1.00  0.00     0.040 A 
HETATM   27  C13 UNL     1      20.977  -0.088  53.504  1.00  0.00     0.114 A 
HETATM   28  F1  UNL     1      19.734   0.475  53.378  1.00  0.00    -0.206 F 
HETATM   29  C14 UNL     1      21.835  -0.594  52.629  1.00  0.00     0.055 A 
ENDBRANCH   3  24
TORSDOF 6
ENDMDL
MODEL 7
REMARK VINA RESULT:      -7.3      3.029      6.358
REMARK  6 active torsions:
REMARK  status: ('A' for Active; 'I' for Inactive)
REMARK    1  A    between atoms: C5_7  and  C6_8 
REMARK    2  A    between atoms: C6_8  and  C7_9 
REMARK    3  A    between atoms: C7_9  and  O2_10 
REMARK    4  A    between atoms: O2_10  and  C8_11 
REMARK    5  A    between atoms: N2_13  and  C10_14 
REMARK    6  A    between atoms: C19_26  and  O3_27 
ROOT
HETATM    1  C8  UNL     1      22.558   1.147  51.032  1.00  0.00     0.188 C 
HETATM    2  C9  UNL     1      23.380   1.064  52.274  1.00  0.00     0.310 C 
HETATM    3  N2  UNL     1      24.564   1.834  52.404  1.00  0.00     0.122 NA
HETATM    4  C15 UNL     1      24.351   3.162  53.005  1.00  0.00     0.423 C 
HETATM    5  N3  UNL     1      23.511   4.028  52.317  1.00  0.00    -0.253 NA
HETATM    6  C16 UNL     1      23.599   5.293  52.118  1.00  0.00     0.228 C 
HETATM    7  N4  UNL     1      22.543   5.877  51.352  1.00  0.00    -0.258 NA
HETATM    8  C17 UNL     1      21.769   5.068  50.705  1.00  0.00     0.099 C 
HETATM    9  C18 UNL     1      22.043   3.656  50.815  1.00  0.00     0.079 C 
HETATM   10  C19 UNL     1      21.924   2.377  50.628  1.00  0.00     0.131 C 
ENDROOT
BRANCH   1  11
HETATM   11  O2  UNL     1      21.469   0.208  51.226  1.00  0.00    -0.381 OA
BRANCH  11  12
HETATM   12  C7  UNL     1      21.349  -0.143  52.550  1.00  0.00     0.170 C 
BRANCH  12  13
HETATM   13  C6  UNL     1      19.919  -0.291  53.003  1.00  0.00     0.069 C 
BRANCH  13  14
HETATM   14  C5  UNL     1      18.905  -0.192  51.922  1.00  0.00     0.277 C 
HETATM   15  C2  UNL     1      17.716  -0.970  52.379  1.00  0.00     0.070 C 
HETATM   16  C1  UNL     1      17.727  -1.736  53.443  1.00  0.00     0.048 C 
HETATM   17  O1  UNL     1      16.548  -0.846  51.601  1.00  0.00    -0.352 OA
HETATM   18  C3  UNL     1      16.789  -0.180  50.358  1.00  0.00     0.205 C 
HETATM   19  C4  UNL     1      17.388   1.154  50.659  1.00  0.00     0.297 C 
HETATM   20  N1  UNL     1      18.462   1.133  51.625  1.00  0.00     0.096 N 
HETATM   21  H7  UNL     1      19.215   1.825  51.415  1.00  0.00     0.316 HD
ENDBRANCH  13  14
ENDBRANCH  12  13
ENDBRANCH  11  12
ENDBRANCH   1  11
BRANCH  10  22
HETATM   22  O3  UNL     1      21.029   1.564  49.871  1.00  0.00    -0.378 OA
HETATM   23  C20 UNL     1      20.447   1.983  48.674  1.00  0.00     0.202 C 
ENDBRANCH  10  22
BRANCH   3  24
HETATM   24  C10 UNL     1      25.447   1.220  53.450  1.00  0.00     0.274 A 
HETATM   25  C11 UNL     1      25.881  -0.116  52.947  1.00  0.00     0.016 A 
HETATM   26  C12 UNL     1      27.216  -0.118  52.785  1.00  0.00     0.040 A 
HETATM   27  C13 UNL     1      27.756   1.207  53.167  1.00  0.00     0.114 A 
HETATM   28  F1  UNL     1      29.103   1.443  53.085  1.00  0.00    -0.206 F 
HETATM   29  C14 UNL     1      26.727   1.952  53.544  1.00  0.00     0.055 A 
ENDBRANCH   3  24
TORSDOF 6
ENDMDL
MODEL 8
REMARK VINA RESULT:      -7.2      3.206      6.156
REMARK  6 active torsions:
REMARK  status: ('A' for Active; 'I' for Inactive)
REMARK    1  A    between atoms: C5_7  and  C6_8 
REMARK    2  A    between atoms: C6_8  and  C7_9 
REMARK    3  A    between atoms: C7_9  and  O2_10 
REMARK    4  A    between atoms: O2_10  and  C8_11 
REMARK    5  A    between atoms: N2_13  and  C10_14 
REMARK    6  A    between atoms: C19_26  and  O3_27 
ROOT
HETATM    1  C8  UNL     1      23.194   1.994  50.819  1.00  0.00     0.188 C 
HETATM    2  C9  UNL     1      24.097   3.165  51.012  1.00  0.00     0.310 C 
HETATM    3  N2  UNL     1      24.408   4.019  49.923  1.00  0.00     0.122 NA
HETATM    4  C15 UNL     1      23.481   5.153  49.769  1.00  0.00     0.423 C 
HETATM    5  N3  UNL     1      22.149   4.839  49.526  1.00  0.00    -0.253 NA
HETATM    6  C16 UNL     1      21.292   5.390  48.747  1.00  0.00     0.228 C 
HETATM    7  N4  UNL     1      19.989   4.801  48.741  1.00  0.00    -0.258 NA
HETATM    8  C17 UNL     1      19.870   3.632  49.281  1.00  0.00     0.099 C 
HETATM    9  C18 UNL     1      21.058   3.033  49.838  1.00  0.00     0.079 C 
HETATM   10  C19 UNL     1      21.818   2.160  50.425  1.00  0.00     0.131 C 
ENDROOT
BRANCH   1  11
HETATM   11  O2  UNL     1      23.139   1.332  52.110  1.00  0.00    -0.381 OA
BRANCH  11  12
HETATM   12  C7  UNL     1      24.196   1.710  52.905  1.00  0.00     0.170 C 
BRANCH  12  13
HETATM   13  C6  UNL     1      25.053   0.553  53.351  1.00  0.00     0.069 C 
BRANCH  13  14
HETATM   14  C5  UNL     1      26.438   0.912  53.746  1.00  0.00     0.277 C 
HETATM   15  C2  UNL     1      27.327  -0.161  53.210  1.00  0.00     0.070 C 
HETATM   16  C1  UNL     1      26.872  -1.274  52.689  1.00  0.00     0.048 C 
HETATM   17  O1  UNL     1      28.714   0.076  53.288  1.00  0.00    -0.352 OA
HETATM   18  C3  UNL     1      29.029   1.210  54.101  1.00  0.00     0.205 C 
HETATM   19  C4  UNL     1      28.304   2.392  53.544  1.00  0.00     0.297 C 
HETATM   20  N1  UNL     1      26.913   2.158  53.233  1.00  0.00     0.096 N 
HETATM   21  H7  UNL     1      26.306   2.985  53.424  1.00  0.00     0.316 HD
ENDBRANCH  13  14
ENDBRANCH  12  13
ENDBRANCH  11  12
ENDBRANCH   1  11
BRANCH  10  22
HETATM   22  O3  UNL     1      21.593   0.867  50.987  1.00  0.00    -0.378 OA
HETATM   23  C20 UNL     1      20.319   0.334  51.185  1.00  0.00     0.202 C 
ENDBRANCH  10  22
BRANCH   3  24
HETATM   24  C10 UNL     1      25.676   4.764  50.219  1.00  0.00     0.274 A 
HETATM   25  C11 UNL     1      26.810   3.959  49.680  1.00  0.00     0.016 A 
HETATM   26  C12 UNL     1      27.426   4.652  48.706  1.00  0.00     0.040 A 
HETATM   27  C13 UNL     1      26.748   5.957  48.534  1.00  0.00     0.114 A 
HETATM   28  F1  UNL     1      27.203   6.841  47.591  1.00  0.00    -0.206 F 
HETATM   29  C14 UNL     1      25.753   5.998  49.408  1.00  0.00     0.055 A 
ENDBRANCH   3  24
TORSDOF 6
ENDMDL
MODEL 9
REMARK VINA RESULT:      -7.2      2.751      5.244
REMARK  6 active torsions:
REMARK  status: ('A' for Active; 'I' for Inactive)
REMARK    1  A    between atoms: C5_7  and  C6_8 
REMARK    2  A    between atoms: C6_8  and  C7_9 
REMARK    3  A    between atoms: C7_9  and  O2_10 
REMARK    4  A    between atoms: O2_10  and  C8_11 
REMARK    5  A    between atoms: N2_13  and  C10_14 
REMARK    6  A    between atoms: C19_26  and  O3_27 
ROOT
HETATM    1  C8  UNL     1      24.554   1.825  51.720  1.00  0.00     0.188 C 
HETATM    2  C9  UNL     1      23.727   0.959  52.611  1.00  0.00     0.310 C 
HETATM    3  N2  UNL     1      24.188  -0.328  52.989  1.00  0.00     0.122 NA
HETATM    4  C15 UNL     1      24.979  -0.338  54.231  1.00  0.00     0.423 C 
HETATM    5  N3  UNL     1      26.153   0.404  54.227  1.00  0.00    -0.253 NA
HETATM    6  C16 UNL     1      27.304   0.147  54.731  1.00  0.00     0.228 C 
HETATM    7  N4  UNL     1      28.307   1.148  54.537  1.00  0.00    -0.258 NA
HETATM    8  C17 UNL     1      28.061   2.062  53.657  1.00  0.00     0.099 C 
HETATM    9  C18 UNL     1      26.803   1.988  52.954  1.00  0.00     0.079 C 
HETATM   10  C19 UNL     1      25.854   2.297  52.124  1.00  0.00     0.131 C 
ENDROOT
BRANCH   1  11
HETATM   11  O2  UNL     1      23.766   3.025  51.509  1.00  0.00    -0.381 OA
BRANCH  11  12
HETATM   12  C7  UNL     1      22.583   2.969  52.209  1.00  0.00     0.170 C 
BRANCH  12  13
HETATM   13  C6  UNL     1      21.485   3.799  51.594  1.00  0.00     0.069 C 
BRANCH  13  14
HETATM   14  C5  UNL     1      20.957   3.287  50.304  1.00  0.00     0.277 C 
HETATM   15  C2  UNL     1      21.346   4.279  49.259  1.00  0.00     0.070 C 
HETATM   16  C1  UNL     1      21.865   5.449  49.540  1.00  0.00     0.048 C 
HETATM   17  O1  UNL     1      21.127   3.897  47.920  1.00  0.00    -0.352 OA
HETATM   18  C3  UNL     1      20.335   2.712  47.813  1.00  0.00     0.205 C 
HETATM   19  C4  UNL     1      21.017   1.630  48.583  1.00  0.00     0.297 C 
HETATM   20  N1  UNL     1      21.469   2.016  49.901  1.00  0.00     0.096 N 
HETATM   21  H7  UNL     1      21.380   1.249  50.604  1.00  0.00     0.316 HD
ENDBRANCH  13  14
ENDBRANCH  12  13
ENDBRANCH  11  12
ENDBRANCH   1  11
BRANCH  10  22
HETATM   22  O3  UNL     1      25.676   3.338  51.164  1.00  0.00    -0.378 OA
HETATM   23  C20 UNL     1      26.522   3.517  50.069  1.00  0.00     0.202 C 
ENDBRANCH  10  22
BRANCH   3  24
HETATM   24  C10 UNL     1      23.023  -1.168  53.422  1.00  0.00     0.274 A 
HETATM   25  C11 UNL     1      22.707  -0.810  54.836  1.00  0.00     0.016 A 
HETATM   26  C12 UNL     1      21.475  -0.274  54.895  1.00  0.00     0.040 A 
HETATM   27  C13 UNL     1      20.893  -0.240  53.534  1.00  0.00     0.114 A 
HETATM   28  F1  UNL     1      19.634   0.267  53.344  1.00  0.00    -0.206 F 
HETATM   29  C14 UNL     1      21.794  -0.757  52.711  1.00  0.00     0.055 A 
ENDBRANCH   3  24
TORSDOF 6
ENDMDL
