MODEL 1
REMARK VINA RESULT:      -7.5      0.000      0.000
REMARK  9 active torsions:
REMARK  status: ('A' for Active; 'I' for Inactive)
REMARK    1  A    between atoms: C2_2  and  O1_3 
REMARK    2  A    between atoms: O1_3  and  C3_4 
REMARK       I    between atoms: C3_4  and  N1_6 
REMARK    3  A    between atoms: N1_6  and  C5_8 
REMARK    4  A    between atoms: C5_8  and  C6_9 
REMARK    5  A    between atoms: C6_9  and  C7_10 
REMARK    6  A    between atoms: C7_10  and  C8_12 
REMARK    7  A    between atoms: C11_15  and  O4_16 
REMARK    8  A    between atoms: O4_16  and  C12_17 
REMARK    9  A    between atoms: C12_17  and  C13_18 
ROOT
HETATM    1  C8  UNL     1      23.758  -0.583  53.872  1.00  0.00     0.010 A 
HETATM    2  C9  UNL     1      23.253   0.220  52.842  1.00  0.00     0.018 A 
HETATM    3  C10 UNL     1      21.894   0.413  52.634  1.00  0.00     0.037 A 
HETATM    4  C11 UNL     1      20.991  -0.208  53.469  1.00  0.00     0.069 A 
HETATM    5  C19 UNL     1      21.436  -1.011  54.499  1.00  0.00     0.037 A 
HETATM    6  C20 UNL     1      22.793  -1.158  54.648  1.00  0.00     0.018 A 
ENDROOT
BRANCH   1   7
HETATM    7  C7  UNL     1      25.205  -0.765  54.064  1.00  0.00     0.161 C 
HETATM    8  O3  UNL     1      25.499  -0.974  55.268  1.00  0.00    -0.292 OA
BRANCH   7   9
HETATM    9  C6  UNL     1      26.010  -0.669  52.823  1.00  0.00     0.104 C 
BRANCH   9  10
HETATM   10  C5  UNL     1      27.479  -0.733  53.068  1.00  0.00     0.135 C 
BRANCH  10  11
HETATM   11  N1  UNL     1      28.021   0.386  53.801  1.00  0.00    -0.332 N 
HETATM   12  C3  UNL     1      28.028   1.656  53.113  1.00  0.00     0.362 C 
HETATM   13  O2  UNL     1      28.517   2.571  53.809  1.00  0.00    -0.238 OA
HETATM   14  C4  UNL     1      28.585   0.481  55.133  1.00  0.00     0.155 C 
BRANCH  12  15
HETATM   15  O1  UNL     1      27.542   1.841  51.820  1.00  0.00    -0.304 OA
BRANCH  15  16
HETATM   16  C2  UNL     1      26.494   2.764  51.570  1.00  0.00     0.176 C 
HETATM   17  C1  UNL     1      26.285   2.988  50.091  1.00  0.00     0.034 C 
ENDBRANCH  15  16
ENDBRANCH  12  15
ENDBRANCH  10  11
ENDBRANCH   9  10
ENDBRANCH   7   9
ENDBRANCH   1   7
BRANCH   4  18
HETATM   18  O4  UNL     1      19.629  -0.011  53.255  1.00  0.00    -0.347 OA
BRANCH  18  19
HETATM   19  C12 UNL     1      19.172   0.256  51.952  1.00  0.00     0.214 C 
BRANCH  19  20
HETATM   20  C13 UNL     1      17.871  -0.362  51.666  1.00  0.00    -0.034 A 
HETATM   21  C14 UNL     1      17.206  -0.178  50.469  1.00  0.00     0.009 A 
HETATM   22  C15 UNL     1      15.987  -0.762  50.214  1.00  0.00     0.001 A 
HETATM   23  C16 UNL     1      15.389  -1.565  51.174  1.00  0.00     0.000 A 
HETATM   24  C17 UNL     1      16.025  -1.767  52.372  1.00  0.00     0.001 A 
HETATM   25  C18 UNL     1      17.254  -1.165  52.604  1.00  0.00     0.009 A 
ENDBRANCH  19  20
ENDBRANCH  18  19
ENDBRANCH   4  18
TORSDOF 9
ENDMDL
MODEL 2
REMARK VINA RESULT:      -7.4      4.481      8.080
REMARK  9 active torsions:
REMARK  status: ('A' for Active; 'I' for Inactive)
REMARK    1  A    between atoms: C2_2  and  O1_3 
REMARK    2  A    between atoms: O1_3  and  C3_4 
REMARK       I    between atoms: C3_4  and  N1_6 
REMARK    3  A    between atoms: N1_6  and  C5_8 
REMARK    4  A    between atoms: C5_8  and  C6_9 
REMARK    5  A    between atoms: C6_9  and  C7_10 
REMARK    6  A    between atoms: C7_10  and  C8_12 
REMARK    7  A    between atoms: C11_15  and  O4_16 
REMARK    8  A    between atoms: O4_16  and  C12_17 
REMARK    9  A    between atoms: C12_17  and  C13_18 
ROOT
HETATM    1  C8  UNL     1      22.961   3.295  51.311  1.00  0.00     0.010 A 
HETATM    2  C9  UNL     1      22.861   1.905  51.179  1.00  0.00     0.018 A 
HETATM    3  C10 UNL     1      23.568   1.018  51.978  1.00  0.00     0.037 A 
HETATM    4  C11 UNL     1      24.412   1.514  52.949  1.00  0.00     0.069 A 
HETATM    5  C19 UNL     1      24.548   2.876  53.120  1.00  0.00     0.037 A 
HETATM    6  C20 UNL     1      23.819   3.696  52.295  1.00  0.00     0.018 A 
ENDROOT
BRANCH   1   7
HETATM    7  C7  UNL     1      22.196   4.207  50.446  1.00  0.00     0.161 C 
HETATM    8  O3  UNL     1      21.169   4.651  51.018  1.00  0.00    -0.292 OA
BRANCH   7   9
HETATM    9  C6  UNL     1      22.780   4.415  49.099  1.00  0.00     0.104 C 
BRANCH   9  10
HETATM   10  C5  UNL     1      22.957   5.854  48.751  1.00  0.00     0.135 C 
BRANCH  10  11
HETATM   11  N1  UNL     1      23.765   6.607  49.679  1.00  0.00    -0.332 N 
HETATM   12  C3  UNL     1      25.194   6.423  49.575  1.00  0.00     0.362 C 
HETATM   13  O2  UNL     1      25.824   7.102  50.415  1.00  0.00    -0.238 OA
HETATM   14  C4  UNL     1      23.407   7.536  50.733  1.00  0.00     0.155 C 
BRANCH  12  15
HETATM   15  O1  UNL     1      25.804   5.584  48.645  1.00  0.00    -0.304 OA
BRANCH  15  16
HETATM   16  C2  UNL     1      26.897   4.761  49.024  1.00  0.00     0.176 C 
HETATM   17  C1  UNL     1      26.434   3.437  49.584  1.00  0.00     0.034 C 
ENDBRANCH  15  16
ENDBRANCH  12  15
ENDBRANCH  10  11
ENDBRANCH   9  10
ENDBRANCH   7   9
ENDBRANCH   1   7
BRANCH   4  18
HETATM   18  O4  UNL     1      25.119   0.618  53.747  1.00  0.00    -0.347 OA
BRANCH  18  19
HETATM   19  C12 UNL     1      25.691  -0.522  53.158  1.00  0.00     0.214 C 
BRANCH  19  20
HETATM   20  C13 UNL     1      27.152  -0.562  53.290  1.00  0.00    -0.034 A 
HETATM   21  C14 UNL     1      27.889  -1.711  53.077  1.00  0.00     0.009 A 
HETATM   22  C15 UNL     1      29.258  -1.735  53.205  1.00  0.00     0.001 A 
HETATM   23  C16 UNL     1      29.942  -0.580  53.559  1.00  0.00     0.000 A 
HETATM   24  C17 UNL     1      29.238   0.576  53.778  1.00  0.00     0.001 A 
HETATM   25  C18 UNL     1      27.856   0.572  53.642  1.00  0.00     0.009 A 
ENDBRANCH  19  20
ENDBRANCH  18  19
ENDBRANCH   4  18
TORSDOF 9
ENDMDL
MODEL 3
REMARK VINA RESULT:      -7.4      3.532      8.691
REMARK  9 active torsions:
REMARK  status: ('A' for Active; 'I' for Inactive)
REMARK    1  A    between atoms: C2_2  and  O1_3 
REMARK    2  A    between atoms: O1_3  and  C3_4 
REMARK       I    between atoms: C3_4  and  N1_6 
REMARK    3  A    between atoms: N1_6  and  C5_8 
REMARK    4  A    between atoms: C5_8  and  C6_9 
REMARK    5  A    between atoms: C6_9  and  C7_10 
REMARK    6  A    between atoms: C7_10  and  C8_12 
REMARK    7  A    between atoms: C11_15  and  O4_16 
REMARK    8  A    between atoms: O4_16  and  C12_17 
REMARK    9  A    between atoms: C12_17  and  C13_18 
ROOT
HETATM    1  C8  UNL     1      24.175   2.869  49.703  1.00  0.00     0.010 A 
HETATM    2  C9  UNL     1      25.441   3.315  49.308  1.00  0.00     0.018 A 
HETATM    3  C10 UNL     1      26.567   3.199  50.112  1.00  0.00     0.037 A 
HETATM    4  C11 UNL     1      26.446   2.621  51.357  1.00  0.00     0.069 A 
HETATM    5  C19 UNL     1      25.221   2.165  51.796  1.00  0.00     0.037 A 
HETATM    6  C20 UNL     1      24.149   2.311  50.949  1.00  0.00     0.018 A 
ENDROOT
BRANCH   1   7
HETATM    7  C7  UNL     1      23.002   3.008  48.825  1.00  0.00     0.161 C 
HETATM    8  O3  UNL     1      23.047   4.062  48.141  1.00  0.00    -0.292 OA
BRANCH   7   9
HETATM    9  C6  UNL     1      22.024   1.899  48.921  1.00  0.00     0.104 C 
BRANCH   9  10
HETATM   10  C5  UNL     1      20.666   2.348  49.345  1.00  0.00     0.135 C 
BRANCH  10  11
HETATM   11  N1  UNL     1      20.440   2.334  50.770  1.00  0.00    -0.332 N 
HETATM   12  C3  UNL     1      20.589   3.599  51.451  1.00  0.00     0.362 C 
HETATM   13  O2  UNL     1      20.384   3.505  52.680  1.00  0.00    -0.238 OA
HETATM   14  C4  UNL     1      20.089   1.261  51.677  1.00  0.00     0.155 C 
BRANCH  12  15
HETATM   15  O1  UNL     1      20.924   4.791  50.811  1.00  0.00    -0.304 OA
BRANCH  15  16
HETATM   16  C2  UNL     1      21.595   5.824  51.518  1.00  0.00     0.176 C 
HETATM   17  C1  UNL     1      23.033   5.962  51.076  1.00  0.00     0.034 C 
ENDBRANCH  15  16
ENDBRANCH  12  15
ENDBRANCH  10  11
ENDBRANCH   9  10
ENDBRANCH   7   9
ENDBRANCH   1   7
BRANCH   4  18
HETATM   18  O4  UNL     1      27.580   2.507  52.159  1.00  0.00    -0.347 OA
BRANCH  18  19
HETATM   19  C12 UNL     1      27.486   1.827  53.386  1.00  0.00     0.214 C 
BRANCH  19  20
HETATM   20  C13 UNL     1      28.118   0.503  53.355  1.00  0.00    -0.034 A 
HETATM   21  C14 UNL     1      29.439   0.299  53.703  1.00  0.00     0.009 A 
HETATM   22  C15 UNL     1      30.019  -0.948  53.669  1.00  0.00     0.001 A 
HETATM   23  C16 UNL     1      29.272  -2.049  53.276  1.00  0.00     0.000 A 
HETATM   24  C17 UNL     1      27.958  -1.878  52.925  1.00  0.00     0.001 A 
HETATM   25  C18 UNL     1      27.397  -0.609  52.968  1.00  0.00     0.009 A 
ENDBRANCH  19  20
ENDBRANCH  18  19
ENDBRANCH   4  18
TORSDOF 9
ENDMDL
MODEL 4
REMARK VINA RESULT:      -7.3      4.560     10.468
REMARK  9 active torsions:
REMARK  status: ('A' for Active; 'I' for Inactive)
REMARK    1  A    between atoms: C2_2  and  O1_3 
REMARK    2  A    between atoms: O1_3  and  C3_4 
REMARK       I    between atoms: C3_4  and  N1_6 
REMARK    3  A    between atoms: N1_6  and  C5_8 
REMARK    4  A    between atoms: C5_8  and  C6_9 
REMARK    5  A    between atoms: C6_9  and  C7_10 
REMARK    6  A    between atoms: C7_10  and  C8_12 
REMARK    7  A    between atoms: C11_15  and  O4_16 
REMARK    8  A    between atoms: O4_16  and  C12_17 
REMARK    9  A    between atoms: C12_17  and  C13_18 
ROOT
HETATM    1  C8  UNL     1      25.665   4.094  50.142  1.00  0.00     0.010 A 
HETATM    2  C9  UNL     1      26.838   3.765  49.452  1.00  0.00     0.018 A 
HETATM    3  C10 UNL     1      27.547   4.683  48.690  1.00  0.00     0.037 A 
HETATM    4  C11 UNL     1      27.087   5.979  48.598  1.00  0.00     0.069 A 
HETATM    5  C19 UNL     1      25.935   6.355  49.258  1.00  0.00     0.037 A 
HETATM    6  C20 UNL     1      25.284   5.397  49.995  1.00  0.00     0.018 A 
ENDROOT
BRANCH   1   7
HETATM    7  C7  UNL     1      24.939   3.095  50.941  1.00  0.00     0.161 C 
HETATM    8  O3  UNL     1      23.709   3.348  51.010  1.00  0.00    -0.292 OA
BRANCH   7   9
HETATM    9  C6  UNL     1      25.786   2.011  51.494  1.00  0.00     0.104 C 
BRANCH   9  10
HETATM   10  C5  UNL     1      25.857   2.022  52.983  1.00  0.00     0.135 C 
BRANCH  10  11
HETATM   11  N1  UNL     1      25.403   0.810  53.621  1.00  0.00    -0.332 N 
HETATM   12  C3  UNL     1      26.283   0.245  54.616  1.00  0.00     0.362 C 
HETATM   13  O2  UNL     1      25.825  -0.805  55.116  1.00  0.00    -0.238 OA
HETATM   14  C4  UNL     1      24.199   0.023  53.443  1.00  0.00     0.155 C 
BRANCH  12  15
HETATM   15  O1  UNL     1      27.507   0.805  54.978  1.00  0.00    -0.304 OA
BRANCH  15  16
HETATM   16  C2  UNL     1      28.703   0.045  54.886  1.00  0.00     0.176 C 
HETATM   17  C1  UNL     1      28.942  -0.454  53.481  1.00  0.00     0.034 C 
ENDBRANCH  15  16
ENDBRANCH  12  15
ENDBRANCH  10  11
ENDBRANCH   9  10
ENDBRANCH   7   9
ENDBRANCH   1   7
BRANCH   4  18
HETATM   18  O4  UNL     1      27.803   6.896  47.831  1.00  0.00    -0.347 OA
BRANCH  18  19
HETATM   19  C12 UNL     1      28.585   7.868  48.478  1.00  0.00     0.214 C 
BRANCH  19  20
HETATM   20  C13 UNL     1      30.025   7.595  48.387  1.00  0.00    -0.034 A 
HETATM   21  C14 UNL     1      30.957   8.239  49.178  1.00  0.00     0.009 A 
HETATM   22  C15 UNL     1      32.303   7.974  49.082  1.00  0.00     0.001 A 
HETATM   23  C16 UNL     1      32.762   7.035  48.169  1.00  0.00     0.000 A 
HETATM   24  C17 UNL     1      31.861   6.380  47.370  1.00  0.00     0.001 A 
HETATM   25  C18 UNL     1      30.507   6.666  47.487  1.00  0.00     0.009 A 
ENDBRANCH  19  20
ENDBRANCH  18  19
ENDBRANCH   4  18
TORSDOF 9
ENDMDL
MODEL 5
REMARK VINA RESULT:      -7.3      5.325      8.858
REMARK  9 active torsions:
REMARK  status: ('A' for Active; 'I' for Inactive)
REMARK    1  A    between atoms: C2_2  and  O1_3 
REMARK    2  A    between atoms: O1_3  and  C3_4 
REMARK       I    between atoms: C3_4  and  N1_6 
REMARK    3  A    between atoms: N1_6  and  C5_8 
REMARK    4  A    between atoms: C5_8  and  C6_9 
REMARK    5  A    between atoms: C6_9  and  C7_10 
REMARK    6  A    between atoms: C7_10  and  C8_12 
REMARK    7  A    between atoms: C11_15  and  O4_16 
REMARK    8  A    between atoms: O4_16  and  C12_17 
REMARK    9  A    between atoms: C12_17  and  C13_18 
ROOT
HETATM    1  C8  UNL     1      27.253   6.091  48.430  1.00  0.00     0.010 A 
HETATM    2  C9  UNL     1      25.925   6.341  48.795  1.00  0.00     0.018 A 
HETATM    3  C10 UNL     1      25.112   5.383  49.386  1.00  0.00     0.037 A 
HETATM    4  C11 UNL     1      25.621   4.126  49.628  1.00  0.00     0.069 A 
HETATM    5  C19 UNL     1      26.924   3.827  49.286  1.00  0.00     0.037 A 
HETATM    6  C20 UNL     1      27.672   4.821  48.706  1.00  0.00     0.018 A 
ENDROOT
BRANCH   1   7
HETATM    7  C7  UNL     1      28.087   7.130  47.805  1.00  0.00     0.161 C 
HETATM    8  O3  UNL     1      27.491   7.710  46.862  1.00  0.00    -0.292 OA
BRANCH   7   9
HETATM    9  C6  UNL     1      29.435   7.281  48.402  1.00  0.00     0.104 C 
BRANCH   9  10
HETATM   10  C5  UNL     1      30.528   6.777  47.522  1.00  0.00     0.135 C 
BRANCH  10  11
HETATM   11  N1  UNL     1      31.858   6.926  48.061  1.00  0.00    -0.332 N 
HETATM   12  C3  UNL     1      32.522   5.708  48.463  1.00  0.00     0.362 C 
HETATM   13  O2  UNL     1      33.664   5.919  48.925  1.00  0.00    -0.238 OA
HETATM   14  C4  UNL     1      32.677   8.099  48.291  1.00  0.00     0.155 C 
BRANCH  12  15
HETATM   15  O1  UNL     1      31.955   4.440  48.350  1.00  0.00    -0.304 OA
BRANCH  15  16
HETATM   16  C2  UNL     1      32.526   3.472  47.482  1.00  0.00     0.176 C 
HETATM   17  C1  UNL     1      32.565   3.954  46.052  1.00  0.00     0.034 C 
ENDBRANCH  15  16
ENDBRANCH  12  15
ENDBRANCH  10  11
ENDBRANCH   9  10
ENDBRANCH   7   9
ENDBRANCH   1   7
BRANCH   4  18
HETATM   18  O4  UNL     1      24.800   3.169  50.221  1.00  0.00    -0.347 OA
BRANCH  18  19
HETATM   19  C12 UNL     1      24.787   3.050  51.621  1.00  0.00     0.214 C 
BRANCH  19  20
HETATM   20  C13 UNL     1      25.153   1.706  52.084  1.00  0.00    -0.034 A 
HETATM   21  C14 UNL     1      24.302   0.918  52.834  1.00  0.00     0.009 A 
HETATM   22  C15 UNL     1      24.657  -0.340  53.261  1.00  0.00     0.001 A 
HETATM   23  C16 UNL     1      25.905  -0.854  52.940  1.00  0.00     0.000 A 
HETATM   24  C17 UNL     1      26.773  -0.096  52.196  1.00  0.00     0.001 A 
HETATM   25  C18 UNL     1      26.388   1.172  51.778  1.00  0.00     0.009 A 
ENDBRANCH  19  20
ENDBRANCH  18  19
ENDBRANCH   4  18
TORSDOF 9
ENDMDL
MODEL 6
REMARK VINA RESULT:      -7.3      5.096      8.384
REMARK  9 active torsions:
REMARK  status: ('A' for Active; 'I' for Inactive)
REMARK    1  A    between atoms: C2_2  and  O1_3 
REMARK    2  A    between atoms: O1_3  and  C3_4 
REMARK       I    between atoms: C3_4  and  N1_6 
REMARK    3  A    between atoms: N1_6  and  C5_8 
REMARK    4  A    between atoms: C5_8  and  C6_9 
REMARK    5  A    between atoms: C6_9  and  C7_10 
REMARK    6  A    between atoms: C7_10  and  C8_12 
REMARK    7  A    between atoms: C11_15  and  O4_16 
REMARK    8  A    between atoms: O4_16  and  C12_17 
REMARK    9  A    between atoms: C12_17  and  C13_18 
ROOT
HETATM    1  C8  UNL     1      26.946   5.044  49.057  1.00  0.00     0.010 A 
HETATM    2  C9  UNL     1      25.887   5.833  49.519  1.00  0.00     0.018 A 
HETATM    3  C10 UNL     1      24.797   5.309  50.201  1.00  0.00     0.037 A 
HETATM    4  C11 UNL     1      24.742   3.953  50.440  1.00  0.00     0.069 A 
HETATM    5  C19 UNL     1      25.760   3.130  50.005  1.00  0.00     0.037 A 
HETATM    6  C20 UNL     1      26.808   3.714  49.337  1.00  0.00     0.018 A 
ENDROOT
BRANCH   1   7
HETATM    7  C7  UNL     1      28.086   5.633  48.337  1.00  0.00     0.161 C 
HETATM    8  O3  UNL     1      29.057   4.838  48.258  1.00  0.00    -0.292 OA
BRANCH   7   9
HETATM    9  C6  UNL     1      27.865   7.018  47.858  1.00  0.00     0.104 C 
BRANCH   9  10
HETATM   10  C5  UNL     1      29.126   7.716  47.476  1.00  0.00     0.135 C 
BRANCH  10  11
HETATM   11  N1  UNL     1      29.809   8.374  48.563  1.00  0.00    -0.332 N 
HETATM   12  C3  UNL     1      31.123   7.870  48.888  1.00  0.00     0.362 C 
HETATM   13  O2  UNL     1      31.646   8.484  49.843  1.00  0.00    -0.238 OA
HETATM   14  C4  UNL     1      29.414   9.471  49.423  1.00  0.00     0.155 C 
BRANCH  12  15
HETATM   15  O1  UNL     1      31.739   6.817  48.215  1.00  0.00    -0.304 OA
BRANCH  15  16
HETATM   16  C2  UNL     1      32.392   5.784  48.937  1.00  0.00     0.176 C 
HETATM   17  C1  UNL     1      33.853   5.679  48.569  1.00  0.00     0.034 C 
ENDBRANCH  15  16
ENDBRANCH  12  15
ENDBRANCH  10  11
ENDBRANCH   9  10
ENDBRANCH   7   9
ENDBRANCH   1   7
BRANCH   4  18
HETATM   18  O4  UNL     1      23.646   3.433  51.124  1.00  0.00    -0.347 OA
BRANCH  18  19
HETATM   19  C12 UNL     1      23.674   3.387  52.529  1.00  0.00     0.214 C 
BRANCH  19  20
HETATM   20  C13 UNL     1      24.368   2.202  53.048  1.00  0.00    -0.034 A 
HETATM   21  C14 UNL     1      25.599   2.271  53.670  1.00  0.00     0.009 A 
HETATM   22  C15 UNL     1      26.238   1.152  54.152  1.00  0.00     0.001 A 
HETATM   23  C16 UNL     1      25.646  -0.095  54.019  1.00  0.00     0.000 A 
HETATM   24  C17 UNL     1      24.424  -0.197  53.405  1.00  0.00     0.001 A 
HETATM   25  C18 UNL     1      23.801   0.949  52.928  1.00  0.00     0.009 A 
ENDBRANCH  19  20
ENDBRANCH  18  19
ENDBRANCH   4  18
TORSDOF 9
ENDMDL
MODEL 7
REMARK VINA RESULT:      -7.3      3.496      9.049
REMARK  9 active torsions:
REMARK  status: ('A' for Active; 'I' for Inactive)
REMARK    1  A    between atoms: C2_2  and  O1_3 
REMARK    2  A    between atoms: O1_3  and  C3_4 
REMARK       I    between atoms: C3_4  and  N1_6 
REMARK    3  A    between atoms: N1_6  and  C5_8 
REMARK    4  A    between atoms: C5_8  and  C6_9 
REMARK    5  A    between atoms: C6_9  and  C7_10 
REMARK    6  A    between atoms: C7_10  and  C8_12 
REMARK    7  A    between atoms: C11_15  and  O4_16 
REMARK    8  A    between atoms: O4_16  and  C12_17 
REMARK    9  A    between atoms: C12_17  and  C13_18 
ROOT
HETATM    1  C8  UNL     1      24.081   3.336  49.826  1.00  0.00     0.010 A 
HETATM    2  C9  UNL     1      24.009   2.599  51.014  1.00  0.00     0.018 A 
HETATM    3  C10 UNL     1      25.133   2.204  51.726  1.00  0.00     0.037 A 
HETATM    4  C11 UNL     1      26.382   2.545  51.253  1.00  0.00     0.069 A 
HETATM    5  C19 UNL     1      26.509   3.270  50.086  1.00  0.00     0.037 A 
HETATM    6  C20 UNL     1      25.355   3.628  49.433  1.00  0.00     0.018 A 
ENDROOT
BRANCH   1   7
HETATM    7  C7  UNL     1      22.868   3.739  49.097  1.00  0.00     0.161 C 
HETATM    8  O3  UNL     1      23.137   4.386  48.053  1.00  0.00    -0.292 OA
BRANCH   7   9
HETATM    9  C6  UNL     1      21.597   3.308  49.727  1.00  0.00     0.104 C 
BRANCH   9  10
HETATM   10  C5  UNL     1      21.015   4.334  50.638  1.00  0.00     0.135 C 
BRANCH  10  11
HETATM   11  N1  UNL     1      19.582   4.262  50.796  1.00  0.00    -0.332 N 
HETATM   12  C3  UNL     1      19.101   3.441  51.882  1.00  0.00     0.362 C 
HETATM   13  O2  UNL     1      17.853   3.423  51.950  1.00  0.00    -0.238 OA
HETATM   14  C4  UNL     1      18.500   4.867  50.045  1.00  0.00     0.155 C 
BRANCH  12  15
HETATM   15  O1  UNL     1      19.933   2.747  52.759  1.00  0.00    -0.304 OA
BRANCH  15  16
HETATM   16  C2  UNL     1      20.172   1.359  52.578  1.00  0.00     0.176 C 
HETATM   17  C1  UNL     1      20.898   0.756  53.757  1.00  0.00     0.034 C 
ENDBRANCH  15  16
ENDBRANCH  12  15
ENDBRANCH  10  11
ENDBRANCH   9  10
ENDBRANCH   7   9
ENDBRANCH   1   7
BRANCH   4  18
HETATM   18  O4  UNL     1      27.506   2.145  51.971  1.00  0.00    -0.347 OA
BRANCH  18  19
HETATM   19  C12 UNL     1      27.335   1.459  53.186  1.00  0.00     0.214 C 
BRANCH  19  20
HETATM   20  C13 UNL     1      27.781   0.062  53.121  1.00  0.00    -0.034 A 
HETATM   21  C14 UNL     1      29.045  -0.337  53.511  1.00  0.00     0.009 A 
HETATM   22  C15 UNL     1      29.450  -1.650  53.445  1.00  0.00     0.001 A 
HETATM   23  C16 UNL     1      28.578  -2.621  52.974  1.00  0.00     0.000 A 
HETATM   24  C17 UNL     1      27.317  -2.256  52.578  1.00  0.00     0.001 A 
HETATM   25  C18 UNL     1      26.934  -0.924  52.656  1.00  0.00     0.009 A 
ENDBRANCH  19  20
ENDBRANCH  18  19
ENDBRANCH   4  18
TORSDOF 9
ENDMDL
MODEL 8
REMARK VINA RESULT:      -7.2      5.664      8.439
REMARK  9 active torsions:
REMARK  status: ('A' for Active; 'I' for Inactive)
REMARK    1  A    between atoms: C2_2  and  O1_3 
REMARK    2  A    between atoms: O1_3  and  C3_4 
REMARK       I    between atoms: C3_4  and  N1_6 
REMARK    3  A    between atoms: N1_6  and  C5_8 
REMARK    4  A    between atoms: C5_8  and  C6_9 
REMARK    5  A    between atoms: C6_9  and  C7_10 
REMARK    6  A    between atoms: C7_10  and  C8_12 
REMARK    7  A    between atoms: C11_15  and  O4_16 
REMARK    8  A    between atoms: O4_16  and  C12_17 
REMARK    9  A    between atoms: C12_17  and  C13_18 
ROOT
HETATM    1  C8  UNL     1      27.207   5.358  48.664  1.00  0.00     0.010 A 
HETATM    2  C9  UNL     1      26.028   6.106  48.571  1.00  0.00     0.018 A 
HETATM    3  C10 UNL     1      24.792   5.622  48.976  1.00  0.00     0.037 A 
HETATM    4  C11 UNL     1      24.707   4.347  49.495  1.00  0.00     0.069 A 
HETATM    5  C19 UNL     1      25.839   3.567  49.607  1.00  0.00     0.037 A 
HETATM    6  C20 UNL     1      27.029   4.109  49.188  1.00  0.00     0.018 A 
ENDROOT
BRANCH   1   7
HETATM    7  C7  UNL     1      28.501   5.904  48.224  1.00  0.00     0.161 C 
HETATM    8  O3  UNL     1      29.433   5.069  48.349  1.00  0.00    -0.292 OA
BRANCH   7   9
HETATM    9  C6  UNL     1      28.446   7.301  47.732  1.00  0.00     0.104 C 
BRANCH   9  10
HETATM   10  C5  UNL     1      29.064   8.280  48.672  1.00  0.00     0.135 C 
BRANCH  10  11
HETATM   11  N1  UNL     1      28.150   9.252  49.223  1.00  0.00    -0.332 N 
HETATM   12  C3  UNL     1      28.200  10.574  48.644  1.00  0.00     0.362 C 
HETATM   13  O2  UNL     1      27.386  11.358  49.177  1.00  0.00    -0.238 OA
HETATM   14  C4  UNL     1      27.167   9.154  50.283  1.00  0.00     0.155 C 
BRANCH  12  15
HETATM   15  O1  UNL     1      29.059  10.936  47.607  1.00  0.00    -0.304 OA
BRANCH  15  16
HETATM   16  C2  UNL     1      30.018  11.966  47.793  1.00  0.00     0.176 C 
HETATM   17  C1  UNL     1      30.805  11.776  49.068  1.00  0.00     0.034 C 
ENDBRANCH  15  16
ENDBRANCH  12  15
ENDBRANCH  10  11
ENDBRANCH   9  10
ENDBRANCH   7   9
ENDBRANCH   1   7
BRANCH   4  18
HETATM   18  O4  UNL     1      23.464   3.866  49.899  1.00  0.00    -0.347 OA
BRANCH  18  19
HETATM   19  C12 UNL     1      23.031   2.612  49.435  1.00  0.00     0.214 C 
BRANCH  19  20
HETATM   20  C13 UNL     1      22.699   1.684  50.523  1.00  0.00    -0.034 A 
HETATM   21  C14 UNL     1      23.543   1.455  51.592  1.00  0.00     0.009 A 
HETATM   22  C15 UNL     1      23.220   0.583  52.605  1.00  0.00     0.001 A 
HETATM   23  C16 UNL     1      22.013  -0.101  52.572  1.00  0.00     0.000 A 
HETATM   24  C17 UNL     1      21.153   0.105  51.523  1.00  0.00     0.001 A 
HETATM   25  C18 UNL     1      21.505   0.991  50.514  1.00  0.00     0.009 A 
ENDBRANCH  19  20
ENDBRANCH  18  19
ENDBRANCH   4  18
TORSDOF 9
ENDMDL
MODEL 9
REMARK VINA RESULT:      -7.2      4.826      7.856
REMARK  9 active torsions:
REMARK  status: ('A' for Active; 'I' for Inactive)
REMARK    1  A    between atoms: C2_2  and  O1_3 
REMARK    2  A    between atoms: O1_3  and  C3_4 
REMARK       I    between atoms: C3_4  and  N1_6 
REMARK    3  A    between atoms: N1_6  and  C5_8 
REMARK    4  A    between atoms: C5_8  and  C6_9 
REMARK    5  A    between atoms: C6_9  and  C7_10 
REMARK    6  A    between atoms: C7_10  and  C8_12 
REMARK    7  A    between atoms: C11_15  and  O4_16 
REMARK    8  A    between atoms: O4_16  and  C12_17 
REMARK    9  A    between atoms: C12_17  and  C13_18 
ROOT
HETATM    1  C8  UNL     1      26.730   5.220  48.875  1.00  0.00     0.010 A 
HETATM    2  C9  UNL     1      25.375   5.568  48.884  1.00  0.00     0.018 A 
HETATM    3  C10 UNL     1      24.376   4.705  49.315  1.00  0.00     0.037 A 
HETATM    4  C11 UNL     1      24.721   3.446  49.755  1.00  0.00     0.069 A 
HETATM    5  C19 UNL     1      26.043   3.051  49.766  1.00  0.00     0.037 A 
HETATM    6  C20 UNL     1      26.979   3.955  49.327  1.00  0.00     0.018 A 
ENDROOT
BRANCH   1   7
HETATM    7  C7  UNL     1      27.762   6.160  48.411  1.00  0.00     0.161 C 
HETATM    8  O3  UNL     1      27.330   7.339  48.340  1.00  0.00    -0.292 OA
BRANCH   7   9
HETATM    9  C6  UNL     1      29.078   5.541  48.126  1.00  0.00     0.104 C 
BRANCH   9  10
HETATM   10  C5  UNL     1      30.089   6.513  47.621  1.00  0.00     0.135 C 
BRANCH  10  11
HETATM   11  N1  UNL     1      31.372   6.452  48.279  1.00  0.00    -0.332 N 
HETATM   12  C3  UNL     1      32.440   5.826  47.536  1.00  0.00     0.362 C 
HETATM   13  O2  UNL     1      33.515   5.805  48.173  1.00  0.00    -0.238 OA
HETATM   14  C4  UNL     1      31.805   6.905  49.586  1.00  0.00     0.155 C 
BRANCH  12  15
HETATM   15  O1  UNL     1      32.292   5.305  46.252  1.00  0.00    -0.304 OA
BRANCH  15  16
HETATM   16  C2  UNL     1      32.782   4.009  45.940  1.00  0.00     0.176 C 
HETATM   17  C1  UNL     1      31.939   2.925  46.569  1.00  0.00     0.034 C 
ENDBRANCH  15  16
ENDBRANCH  12  15
ENDBRANCH  10  11
ENDBRANCH   9  10
ENDBRANCH   7   9
ENDBRANCH   1   7
BRANCH   4  18
HETATM   18  O4  UNL     1      23.715   2.584  50.186  1.00  0.00    -0.347 OA
BRANCH  18  19
HETATM   19  C12 UNL     1      23.129   2.791  51.447  1.00  0.00     0.214 C 
BRANCH  19  20
HETATM   20  C13 UNL     1      23.192   1.603  52.308  1.00  0.00    -0.034 A 
HETATM   21  C14 UNL     1      22.085   1.095  52.959  1.00  0.00     0.009 A 
HETATM   22  C15 UNL     1      22.158  -0.019  53.763  1.00  0.00     0.001 A 
HETATM   23  C16 UNL     1      23.371  -0.668  53.940  1.00  0.00     0.000 A 
HETATM   24  C17 UNL     1      24.488  -0.187  53.306  1.00  0.00     0.001 A 
HETATM   25  C18 UNL     1      24.387   0.940  52.501  1.00  0.00     0.009 A 
ENDBRANCH  19  20
ENDBRANCH  18  19
ENDBRANCH   4  18
TORSDOF 9
ENDMDL
