MODEL 1
REMARK VINA RESULT:      -8.6      0.000      0.000
REMARK  7 active torsions:
REMARK  status: ('A' for Active; 'I' for Inactive)
REMARK    1  A    between atoms: C4_4  and  C5_5 
REMARK    2  A    between atoms: C5_5  and  C6_6 
REMARK    3  A    between atoms: C6_6  and  C7_7 
REMARK    4  A    between atoms: C11_11  and  C12_12 
REMARK    5  A    between atoms: C13_13  and  C14_14 
REMARK       I    between atoms: C14_14  and  N1_16 
REMARK    6  A    between atoms: N1_16  and  C15_17 
REMARK    7  A    between atoms: C20_22  and  N2_23 
ROOT
HETATM    1  C7  UNL     1      22.648   3.630  50.512  1.00  0.00     0.064 A 
HETATM    2  C8  UNL     1      23.130   3.975  49.150  1.00  0.00    -0.013 A 
HETATM    3  C9  UNL     1      24.421   4.249  49.069  1.00  0.00    -0.002 A 
HETATM    4  C10 UNL     1      24.890   4.094  50.438  1.00  0.00     0.008 A 
HETATM    5  C11 UNL     1      23.938   3.750  51.287  1.00  0.00    -0.047 A 
ENDROOT
BRANCH   5   6
HETATM    6  C12 UNL     1      24.069   3.522  52.719  1.00  0.00     0.013 C 
HETATM    7  C13 UNL     1      24.785   2.720  53.474  1.00  0.00     0.075 C 
BRANCH   7   8
HETATM    8  C14 UNL     1      25.783   1.684  53.246  1.00  0.00     0.245 C 
HETATM    9  O1  UNL     1      26.677   1.263  52.433  1.00  0.00    -0.268 OA
HETATM   10  N1  UNL     1      25.984   0.628  54.213  1.00  0.00    -0.322 N 
HETATM   11  H12 UNL     1      25.391   0.613  55.105  1.00  0.00     0.169 HD
BRANCH  10  12
HETATM   12  C15 UNL     1      27.012  -0.301  53.809  1.00  0.00     0.061 A 
HETATM   13  C16 UNL     1      26.764  -1.423  53.055  1.00  0.00     0.032 A 
HETATM   14  C17 UNL     1      27.774  -2.289  52.689  1.00  0.00     0.002 A 
HETATM   15  C18 UNL     1      29.080  -2.045  53.078  1.00  0.00     0.002 A 
HETATM   16  C19 UNL     1      29.356  -0.926  53.837  1.00  0.00     0.031 A 
HETATM   17  C20 UNL     1      28.328  -0.092  54.178  1.00  0.00     0.052 A 
BRANCH  17  18
HETATM   18  N2  UNL     1      28.683   1.051  54.966  1.00  0.00    -0.397 N 
HETATM   19  H17 UNL     1      27.968   1.657  55.427  1.00  0.00     0.156 HD
HETATM   20  H18 UNL     1      29.656   1.394  55.160  1.00  0.00     0.156 HD
ENDBRANCH  17  18
ENDBRANCH  10  12
ENDBRANCH   7   8
ENDBRANCH   5   6
BRANCH   1  21
HETATM   21  C6  UNL     1      22.176   2.238  50.639  1.00  0.00    -0.011 C 
BRANCH  21  22
HETATM   22  C5  UNL     1      22.101   0.981  50.979  1.00  0.00     0.028 C 
BRANCH  22  23
HETATM   23  C4  UNL     1      21.694   0.279  52.206  1.00  0.00     0.060 A 
HETATM   24  C3  UNL     1      22.463  -0.216  53.161  1.00  0.00     0.060 A 
HETATM   25  C2  UNL     1      22.090  -0.909  54.375  1.00  0.00     0.025 A 
HETATM   26  C1  UNL     1      22.985  -1.341  55.228  1.00  0.00     0.043 C 
HETATM   27  N4  UNL     1      20.691  -1.077  54.557  1.00  0.00    -0.351 N 
HETATM   28  C21 UNL     1      19.879  -0.544  53.529  1.00  0.00     0.208 A 
HETATM   29  H20 UNL     1      20.321  -1.564  55.399  1.00  0.00     0.166 HD
HETATM   30  N3  UNL     1      20.328   0.057  52.487  1.00  0.00    -0.244 NA
ENDBRANCH  22  23
ENDBRANCH  21  22
ENDBRANCH   1  21
TORSDOF 7
ENDMDL
MODEL 2
REMARK VINA RESULT:      -8.4      2.466      5.015
REMARK  7 active torsions:
REMARK  status: ('A' for Active; 'I' for Inactive)
REMARK    1  A    between atoms: C4_4  and  C5_5 
REMARK    2  A    between atoms: C5_5  and  C6_6 
REMARK    3  A    between atoms: C6_6  and  C7_7 
REMARK    4  A    between atoms: C11_11  and  C12_12 
REMARK    5  A    between atoms: C13_13  and  C14_14 
REMARK       I    between atoms: C14_14  and  N1_16 
REMARK    6  A    between atoms: N1_16  and  C15_17 
REMARK    7  A    between atoms: C20_22  and  N2_23 
ROOT
HETATM    1  C7  UNL     1      22.883   1.365  51.080  1.00  0.00     0.064 A 
HETATM    2  C8  UNL     1      21.677   0.503  50.982  1.00  0.00    -0.013 A 
HETATM    3  C9  UNL     1      20.806   0.650  51.965  1.00  0.00    -0.002 A 
HETATM    4  C10 UNL     1      21.414   1.666  52.811  1.00  0.00     0.008 A 
HETATM    5  C11 UNL     1      22.578   2.100  52.363  1.00  0.00    -0.047 A 
ENDROOT
BRANCH   5   6
HETATM    6  C12 UNL     1      23.443   3.101  52.970  1.00  0.00     0.013 C 
HETATM    7  C13 UNL     1      24.661   3.107  53.461  1.00  0.00     0.075 C 
BRANCH   7   8
HETATM    8  C14 UNL     1      25.725   2.126  53.633  1.00  0.00     0.245 C 
HETATM    9  O1  UNL     1      26.293   1.347  54.474  1.00  0.00    -0.268 OA
HETATM   10  N1  UNL     1      26.578   1.761  52.525  1.00  0.00    -0.322 N 
HETATM   11  H12 UNL     1      26.422   2.220  51.568  1.00  0.00     0.169 HD
BRANCH  10  12
HETATM   12  C15 UNL     1      27.568   0.777  52.891  1.00  0.00     0.061 A 
HETATM   13  C16 UNL     1      27.374  -0.577  52.758  1.00  0.00     0.032 A 
HETATM   14  C17 UNL     1      28.345  -1.488  53.121  1.00  0.00     0.002 A 
HETATM   15  C18 UNL     1      29.555  -1.054  53.633  1.00  0.00     0.002 A 
HETATM   16  C19 UNL     1      29.776   0.300  53.778  1.00  0.00     0.031 A 
HETATM   17  C20 UNL     1      28.789   1.171  53.407  1.00  0.00     0.052 A 
BRANCH  17  18
HETATM   18  N2  UNL     1      29.082   2.562  53.583  1.00  0.00    -0.397 N 
HETATM   19  H17 UNL     1      29.813   2.902  54.247  1.00  0.00     0.156 HD
HETATM   20  H18 UNL     1      28.616   3.362  53.087  1.00  0.00     0.156 HD
ENDBRANCH  17  18
ENDBRANCH  10  12
ENDBRANCH   7   8
ENDBRANCH   5   6
BRANCH   1  21
HETATM   21  C6  UNL     1      22.985   2.366  50.002  1.00  0.00    -0.011 C 
BRANCH  21  22
HETATM   22  C5  UNL     1      23.438   3.319  49.234  1.00  0.00     0.028 C 
BRANCH  22  23
HETATM   23  C4  UNL     1      24.485   4.340  49.385  1.00  0.00     0.060 A 
HETATM   24  C3  UNL     1      25.730   4.310  48.939  1.00  0.00     0.060 A 
HETATM   25  C2  UNL     1      26.778   5.298  49.073  1.00  0.00     0.025 A 
HETATM   26  C1  UNL     1      27.972   5.113  48.566  1.00  0.00     0.043 C 
HETATM   27  N4  UNL     1      26.405   6.466  49.790  1.00  0.00    -0.351 N 
HETATM   28  C21 UNL     1      25.073   6.487  50.262  1.00  0.00     0.208 A 
HETATM   29  H20 UNL     1      27.090   7.236  49.941  1.00  0.00     0.166 HD
HETATM   30  N3  UNL     1      24.223   5.540  50.080  1.00  0.00    -0.244 NA
ENDBRANCH  22  23
ENDBRANCH  21  22
ENDBRANCH   1  21
TORSDOF 7
ENDMDL
MODEL 3
REMARK VINA RESULT:      -8.1      2.238      5.646
REMARK  7 active torsions:
REMARK  status: ('A' for Active; 'I' for Inactive)
REMARK    1  A    between atoms: C4_4  and  C5_5 
REMARK    2  A    between atoms: C5_5  and  C6_6 
REMARK    3  A    between atoms: C6_6  and  C7_7 
REMARK    4  A    between atoms: C11_11  and  C12_12 
REMARK    5  A    between atoms: C13_13  and  C14_14 
REMARK       I    between atoms: C14_14  and  N1_16 
REMARK    6  A    between atoms: N1_16  and  C15_17 
REMARK    7  A    between atoms: C20_22  and  N2_23 
ROOT
HETATM    1  C7  UNL     1      25.024   4.694  49.709  1.00  0.00     0.064 A 
HETATM    2  C8  UNL     1      24.880   5.927  50.526  1.00  0.00    -0.013 A 
HETATM    3  C9  UNL     1      23.633   6.306  50.749  1.00  0.00    -0.002 A 
HETATM    4  C10 UNL     1      22.841   5.298  50.058  1.00  0.00     0.008 A 
HETATM    5  C11 UNL     1      23.570   4.374  49.458  1.00  0.00    -0.047 A 
ENDROOT
BRANCH   5   6
HETATM    6  C12 UNL     1      23.094   3.238  48.682  1.00  0.00     0.013 C 
HETATM    7  C13 UNL     1      22.574   2.066  48.967  1.00  0.00     0.075 C 
BRANCH   7   8
HETATM    8  C14 UNL     1      22.226   1.344  50.184  1.00  0.00     0.245 C 
HETATM    9  O1  UNL     1      21.537   0.374  50.656  1.00  0.00    -0.268 OA
HETATM   10  N1  UNL     1      22.782   1.737  51.459  1.00  0.00    -0.322 N 
HETATM   11  H12 UNL     1      23.458   2.568  51.504  1.00  0.00     0.169 HD
BRANCH  10  12
HETATM   12  C15 UNL     1      22.319   0.905  52.543  1.00  0.00     0.061 A 
HETATM   13  C16 UNL     1      23.006  -0.195  52.999  1.00  0.00     0.032 A 
HETATM   14  C17 UNL     1      22.531  -0.969  54.038  1.00  0.00     0.002 A 
HETATM   15  C18 UNL     1      21.334  -0.651  54.656  1.00  0.00     0.002 A 
HETATM   16  C19 UNL     1      20.624   0.449  54.218  1.00  0.00     0.031 A 
HETATM   17  C20 UNL     1      21.128   1.189  53.186  1.00  0.00     0.052 A 
BRANCH  17  18
HETATM   18  N2  UNL     1      20.342   2.316  52.779  1.00  0.00    -0.397 N 
HETATM   19  H17 UNL     1      20.005   2.440  51.799  1.00  0.00     0.156 HD
HETATM   20  H18 UNL     1      20.030   3.109  53.393  1.00  0.00     0.156 HD
ENDBRANCH  17  18
ENDBRANCH  10  12
ENDBRANCH   7   8
ENDBRANCH   5   6
BRANCH   1  21
HETATM   21  C6  UNL     1      25.613   3.561  50.445  1.00  0.00    -0.011 C 
BRANCH  21  22
HETATM   22  C5  UNL     1      26.408   2.584  50.788  1.00  0.00     0.028 C 
BRANCH  22  23
HETATM   23  C4  UNL     1      26.936   2.102  52.073  1.00  0.00     0.060 A 
HETATM   24  C3  UNL     1      26.373   1.266  52.929  1.00  0.00     0.060 A 
HETATM   25  C2  UNL     1      26.870   0.776  54.197  1.00  0.00     0.025 A 
HETATM   26  C1  UNL     1      26.181  -0.058  54.934  1.00  0.00     0.043 C 
HETATM   27  N4  UNL     1      28.149   1.273  54.565  1.00  0.00    -0.351 N 
HETATM   28  C21 UNL     1      28.741   2.166  53.642  1.00  0.00     0.208 A 
HETATM   29  H20 UNL     1      28.593   0.980  55.460  1.00  0.00     0.166 HD
HETATM   30  N3  UNL     1      28.199   2.531  52.536  1.00  0.00    -0.244 NA
ENDBRANCH  22  23
ENDBRANCH  21  22
ENDBRANCH   1  21
TORSDOF 7
ENDMDL
MODEL 4
REMARK VINA RESULT:      -8.1      2.707      4.973
REMARK  7 active torsions:
REMARK  status: ('A' for Active; 'I' for Inactive)
REMARK    1  A    between atoms: C4_4  and  C5_5 
REMARK    2  A    between atoms: C5_5  and  C6_6 
REMARK    3  A    between atoms: C6_6  and  C7_7 
REMARK    4  A    between atoms: C11_11  and  C12_12 
REMARK    5  A    between atoms: C13_13  and  C14_14 
REMARK       I    between atoms: C14_14  and  N1_16 
REMARK    6  A    between atoms: N1_16  and  C15_17 
REMARK    7  A    between atoms: C20_22  and  N2_23 
ROOT
HETATM    1  C7  UNL     1      23.173   1.516  51.136  1.00  0.00     0.064 A 
HETATM    2  C8  UNL     1      22.403   1.741  49.885  1.00  0.00    -0.013 A 
HETATM    3  C9  UNL     1      21.282   1.048  49.789  1.00  0.00    -0.002 A 
HETATM    4  C10 UNL     1      21.242   0.288  51.030  1.00  0.00     0.008 A 
HETATM    5  C11 UNL     1      22.278   0.511  51.819  1.00  0.00    -0.047 A 
ENDROOT
BRANCH   5   6
HETATM    6  C12 UNL     1      22.544  -0.087  53.120  1.00  0.00     0.013 C 
HETATM    7  C13 UNL     1      23.623  -0.361  53.816  1.00  0.00     0.075 C 
BRANCH   7   8
HETATM    8  C14 UNL     1      25.059  -0.200  53.628  1.00  0.00     0.245 C 
HETATM    9  O1  UNL     1      25.957   0.309  52.871  1.00  0.00    -0.268 OA
HETATM   10  N1  UNL     1      25.995  -0.773  54.568  1.00  0.00    -0.322 N 
HETATM   11  H12 UNL     1      25.624  -1.321  55.411  1.00  0.00     0.169 HD
BRANCH  10  12
HETATM   12  C15 UNL     1      27.368  -0.507  54.211  1.00  0.00     0.061 A 
HETATM   13  C16 UNL     1      28.035   0.639  54.575  1.00  0.00     0.032 A 
HETATM   14  C17 UNL     1      29.349   0.859  54.214  1.00  0.00     0.002 A 
HETATM   15  C18 UNL     1      30.037  -0.081  53.468  1.00  0.00     0.002 A 
HETATM   16  C19 UNL     1      29.390  -1.241  53.089  1.00  0.00     0.031 A 
HETATM   17  C20 UNL     1      28.089  -1.421  53.466  1.00  0.00     0.052 A 
BRANCH  17  18
HETATM   18  N2  UNL     1      27.477  -2.645  53.041  1.00  0.00    -0.397 N 
HETATM   19  H17 UNL     1      27.828  -3.582  53.342  1.00  0.00     0.156 HD
HETATM   20  H18 UNL     1      26.645  -2.736  52.407  1.00  0.00     0.156 HD
ENDBRANCH  17  18
ENDBRANCH  10  12
ENDBRANCH   7   8
ENDBRANCH   5   6
BRANCH   1  21
HETATM   21  C6  UNL     1      23.256   2.707  52.003  1.00  0.00    -0.011 C 
BRANCH  21  22
HETATM   22  C5  UNL     1      23.230   3.945  52.414  1.00  0.00     0.028 C 
BRANCH  22  23
HETATM   23  C4  UNL     1      23.016   5.237  51.745  1.00  0.00     0.060 A 
HETATM   24  C3  UNL     1      23.922   6.112  51.344  1.00  0.00     0.060 A 
HETATM   25  C2  UNL     1      23.740   7.388  50.685  1.00  0.00     0.025 A 
HETATM   26  C1  UNL     1      24.755   8.145  50.349  1.00  0.00     0.043 C 
HETATM   27  N4  UNL     1      22.386   7.741  50.438  1.00  0.00    -0.351 N 
HETATM   28  C21 UNL     1      21.426   6.797  50.871  1.00  0.00     0.208 A 
HETATM   29  H20 UNL     1      22.151   8.639  49.969  1.00  0.00     0.166 HD
HETATM   30  N3  UNL     1      21.710   5.687  51.451  1.00  0.00    -0.244 NA
ENDBRANCH  22  23
ENDBRANCH  21  22
ENDBRANCH   1  21
TORSDOF 7
ENDMDL
MODEL 5
REMARK VINA RESULT:      -8.0      3.230      5.952
REMARK  7 active torsions:
REMARK  status: ('A' for Active; 'I' for Inactive)
REMARK    1  A    between atoms: C4_4  and  C5_5 
REMARK    2  A    between atoms: C5_5  and  C6_6 
REMARK    3  A    between atoms: C6_6  and  C7_7 
REMARK    4  A    between atoms: C11_11  and  C12_12 
REMARK    5  A    between atoms: C13_13  and  C14_14 
REMARK       I    between atoms: C14_14  and  N1_16 
REMARK    6  A    between atoms: N1_16  and  C15_17 
REMARK    7  A    between atoms: C20_22  and  N2_23 
ROOT
HETATM    1  C7  UNL     1      24.032   3.016  49.935  1.00  0.00     0.064 A 
HETATM    2  C8  UNL     1      23.091   2.352  48.997  1.00  0.00    -0.013 A 
HETATM    3  C9  UNL     1      21.932   1.999  49.526  1.00  0.00    -0.002 A 
HETATM    4  C10 UNL     1      22.045   2.428  50.913  1.00  0.00     0.008 A 
HETATM    5  C11 UNL     1      23.201   3.002  51.195  1.00  0.00    -0.047 A 
ENDROOT
BRANCH   5   6
HETATM    6  C12 UNL     1      23.634   3.535  52.480  1.00  0.00     0.013 C 
HETATM    7  C13 UNL     1      24.539   3.200  53.370  1.00  0.00     0.075 C 
BRANCH   7   8
HETATM    8  C14 UNL     1      25.537   2.147  53.503  1.00  0.00     0.245 C 
HETATM    9  O1  UNL     1      25.901   1.143  54.208  1.00  0.00    -0.268 OA
HETATM   10  N1  UNL     1      26.621   2.035  52.553  1.00  0.00    -0.322 N 
HETATM   11  H12 UNL     1      26.686   2.736  51.745  1.00  0.00     0.169 HD
BRANCH  10  12
HETATM   12  C15 UNL     1      27.504   0.933  52.852  1.00  0.00     0.061 A 
HETATM   13  C16 UNL     1      27.191  -0.380  52.587  1.00  0.00     0.032 A 
HETATM   14  C17 UNL     1      28.061  -1.408  52.887  1.00  0.00     0.002 A 
HETATM   15  C18 UNL     1      29.287  -1.138  53.470  1.00  0.00     0.002 A 
HETATM   16  C19 UNL     1      29.626   0.171  53.747  1.00  0.00     0.031 A 
HETATM   17  C20 UNL     1      28.737   1.160  53.434  1.00  0.00     0.052 A 
BRANCH  17  18
HETATM   18  N2  UNL     1      29.149   2.496  53.748  1.00  0.00    -0.397 N 
HETATM   19  H17 UNL     1      29.171   3.258  53.033  1.00  0.00     0.156 HD
HETATM   20  H18 UNL     1      29.462   2.846  54.687  1.00  0.00     0.156 HD
ENDBRANCH  17  18
ENDBRANCH  10  12
ENDBRANCH   7   8
ENDBRANCH   5   6
BRANCH   1  21
HETATM   21  C6  UNL     1      24.311   4.424  49.597  1.00  0.00    -0.011 C 
BRANCH  21  22
HETATM   22  C5  UNL     1      24.798   5.486  49.016  1.00  0.00     0.028 C 
BRANCH  22  23
HETATM   23  C4  UNL     1      26.143   6.076  48.931  1.00  0.00     0.060 A 
HETATM   24  C3  UNL     1      27.271   5.496  48.557  1.00  0.00     0.060 A 
HETATM   25  C2  UNL     1      28.603   6.052  48.464  1.00  0.00     0.025 A 
HETATM   26  C1  UNL     1      29.627   5.334  48.072  1.00  0.00     0.043 C 
HETATM   27  N4  UNL     1      28.703   7.421  48.830  1.00  0.00    -0.351 N 
HETATM   28  C21 UNL     1      27.490   8.031  49.228  1.00  0.00     0.208 A 
HETATM   29  H20 UNL     1      29.620   7.912  48.798  1.00  0.00     0.166 HD
HETATM   30  N3  UNL     1      26.356   7.429  49.271  1.00  0.00    -0.244 NA
ENDBRANCH  22  23
ENDBRANCH  21  22
ENDBRANCH   1  21
TORSDOF 7
ENDMDL
MODEL 6
REMARK VINA RESULT:      -7.9      3.011      6.276
REMARK  7 active torsions:
REMARK  status: ('A' for Active; 'I' for Inactive)
REMARK    1  A    between atoms: C4_4  and  C5_5 
REMARK    2  A    between atoms: C5_5  and  C6_6 
REMARK    3  A    between atoms: C6_6  and  C7_7 
REMARK    4  A    between atoms: C11_11  and  C12_12 
REMARK    5  A    between atoms: C13_13  and  C14_14 
REMARK       I    between atoms: C14_14  and  N1_16 
REMARK    6  A    between atoms: N1_16  and  C15_17 
REMARK    7  A    between atoms: C20_22  and  N2_23 
ROOT
HETATM    1  C7  UNL     1      22.217   1.808  52.636  1.00  0.00     0.064 A 
HETATM    2  C8  UNL     1      22.110   0.519  51.904  1.00  0.00    -0.013 A 
HETATM    3  C9  UNL     1      21.578   0.606  50.698  1.00  0.00    -0.002 A 
HETATM    4  C10 UNL     1      21.286   2.025  50.555  1.00  0.00     0.008 A 
HETATM    5  C11 UNL     1      21.623   2.743  51.611  1.00  0.00    -0.047 A 
ENDROOT
BRANCH   5   6
HETATM    6  C12 UNL     1      21.462   4.178  51.793  1.00  0.00     0.013 C 
HETATM    7  C13 UNL     1      22.183   5.240  51.514  1.00  0.00     0.075 C 
BRANCH   7   8
HETATM    8  C14 UNL     1      23.477   5.492  50.894  1.00  0.00     0.245 C 
HETATM    9  O1  UNL     1      24.608   6.071  51.049  1.00  0.00    -0.268 OA
HETATM   10  N1  UNL     1      23.785   4.957  49.588  1.00  0.00    -0.322 N 
HETATM   11  H12 UNL     1      23.052   4.367  49.075  1.00  0.00     0.169 HD
BRANCH  10  12
HETATM   12  C15 UNL     1      25.112   5.314  49.144  1.00  0.00     0.061 A 
HETATM   13  C16 UNL     1      26.209   4.503  49.311  1.00  0.00     0.032 A 
HETATM   14  C17 UNL     1      27.463   4.880  48.874  1.00  0.00     0.002 A 
HETATM   15  C18 UNL     1      27.648   6.100  48.248  1.00  0.00     0.002 A 
HETATM   16  C19 UNL     1      26.562   6.934  48.068  1.00  0.00     0.031 A 
HETATM   17  C20 UNL     1      25.337   6.524  48.515  1.00  0.00     0.052 A 
BRANCH  17  18
HETATM   18  N2  UNL     1      24.253   7.436  48.298  1.00  0.00    -0.397 N 
HETATM   19  H17 UNL     1      24.112   7.931  47.389  1.00  0.00     0.156 HD
HETATM   20  H18 UNL     1      23.512   7.697  48.994  1.00  0.00     0.156 HD
ENDBRANCH  17  18
ENDBRANCH  10  12
ENDBRANCH   7   8
ENDBRANCH   5   6
BRANCH   1  21
HETATM   21  C6  UNL     1      23.606   2.236  52.883  1.00  0.00    -0.011 C 
BRANCH  21  22
HETATM   22  C5  UNL     1      24.901   2.211  53.041  1.00  0.00     0.028 C 
BRANCH  22  23
HETATM   23  C4  UNL     1      25.875   1.145  53.319  1.00  0.00     0.060 A 
HETATM   24  C3  UNL     1      25.992  -0.033  52.728  1.00  0.00     0.060 A 
HETATM   25  C2  UNL     1      26.939  -1.098  52.981  1.00  0.00     0.025 A 
HETATM   26  C1  UNL     1      26.921  -2.216  52.298  1.00  0.00     0.043 C 
HETATM   27  N4  UNL     1      27.872  -0.829  54.017  1.00  0.00    -0.351 N 
HETATM   28  C21 UNL     1      27.737   0.432  54.642  1.00  0.00     0.208 A 
HETATM   29  H20 UNL     1      28.594  -1.533  54.275  1.00  0.00     0.166 HD
HETATM   30  N3  UNL     1      26.848   1.306  54.329  1.00  0.00    -0.244 NA
ENDBRANCH  22  23
ENDBRANCH  21  22
ENDBRANCH   1  21
TORSDOF 7
ENDMDL
MODEL 7
REMARK VINA RESULT:      -7.7      4.197      7.538
REMARK  7 active torsions:
REMARK  status: ('A' for Active; 'I' for Inactive)
REMARK    1  A    between atoms: C4_4  and  C5_5 
REMARK    2  A    between atoms: C5_5  and  C6_6 
REMARK    3  A    between atoms: C6_6  and  C7_7 
REMARK    4  A    between atoms: C11_11  and  C12_12 
REMARK    5  A    between atoms: C13_13  and  C14_14 
REMARK       I    between atoms: C14_14  and  N1_16 
REMARK    6  A    between atoms: N1_16  and  C15_17 
REMARK    7  A    between atoms: C20_22  and  N2_23 
ROOT
HETATM    1  C7  UNL     1      24.576   2.938  51.426  1.00  0.00     0.064 A 
HETATM    2  C8  UNL     1      23.103   3.029  51.259  1.00  0.00    -0.013 A 
HETATM    3  C9  UNL     1      22.698   3.307  50.032  1.00  0.00    -0.002 A 
HETATM    4  C10 UNL     1      23.939   3.424  49.280  1.00  0.00     0.008 A 
HETATM    5  C11 UNL     1      25.020   3.228  50.014  1.00  0.00    -0.047 A 
ENDROOT
BRANCH   5   6
HETATM    6  C12 UNL     1      26.408   3.278  49.574  1.00  0.00     0.013 C 
HETATM    7  C13 UNL     1      27.191   4.200  49.064  1.00  0.00     0.075 C 
BRANCH   7   8
HETATM    8  C14 UNL     1      27.054   5.603  48.696  1.00  0.00     0.245 C 
HETATM    9  O1  UNL     1      26.280   6.462  48.147  1.00  0.00    -0.268 OA
HETATM   10  N1  UNL     1      28.107   6.549  48.986  1.00  0.00    -0.322 N 
HETATM   11  H12 UNL     1      28.997   6.210  49.479  1.00  0.00     0.169 HD
BRANCH  10  12
HETATM   12  C15 UNL     1      27.786   7.886  48.546  1.00  0.00     0.061 A 
HETATM   13  C16 UNL     1      28.108   8.369  47.299  1.00  0.00     0.032 A 
HETATM   14  C17 UNL     1      27.784   9.654  46.914  1.00  0.00     0.002 A 
HETATM   15  C18 UNL     1      27.118  10.498  47.784  1.00  0.00     0.002 A 
HETATM   16  C19 UNL     1      26.784  10.038  49.042  1.00  0.00     0.031 A 
HETATM   17  C20 UNL     1      27.122   8.759  49.386  1.00  0.00     0.052 A 
BRANCH  17  18
HETATM   18  N2  UNL     1      26.746   8.344  50.705  1.00  0.00    -0.397 N 
HETATM   19  H17 UNL     1      25.938   7.707  50.883  1.00  0.00     0.156 HD
HETATM   20  H18 UNL     1      27.218   8.621  51.601  1.00  0.00     0.156 HD
ENDBRANCH  17  18
ENDBRANCH  10  12
ENDBRANCH   7   8
ENDBRANCH   5   6
BRANCH   1  21
HETATM   21  C6  UNL     1      25.051   1.587  51.779  1.00  0.00    -0.011 C 
BRANCH  21  22
HETATM   22  C5  UNL     1      25.283   0.489  52.445  1.00  0.00     0.028 C 
BRANCH  22  23
HETATM   23  C4  UNL     1      26.489  -0.313  52.701  1.00  0.00     0.060 A 
HETATM   24  C3  UNL     1      27.679   0.102  53.100  1.00  0.00     0.060 A 
HETATM   25  C2  UNL     1      28.880  -0.663  53.359  1.00  0.00     0.025 A 
HETATM   26  C1  UNL     1      29.992  -0.094  53.753  1.00  0.00     0.043 C 
HETATM   27  N4  UNL     1      28.748  -2.063  53.152  1.00  0.00    -0.351 N 
HETATM   28  C21 UNL     1      27.471  -2.494  52.726  1.00  0.00     0.208 A 
HETATM   29  H20 UNL     1      29.556  -2.699  53.312  1.00  0.00     0.166 HD
HETATM   30  N3  UNL     1      26.470  -1.713  52.527  1.00  0.00    -0.244 NA
ENDBRANCH  22  23
ENDBRANCH  21  22
ENDBRANCH   1  21
TORSDOF 7
ENDMDL
MODEL 8
REMARK VINA RESULT:      -7.5      1.936      2.620
REMARK  7 active torsions:
REMARK  status: ('A' for Active; 'I' for Inactive)
REMARK    1  A    between atoms: C4_4  and  C5_5 
REMARK    2  A    between atoms: C5_5  and  C6_6 
REMARK    3  A    between atoms: C6_6  and  C7_7 
REMARK    4  A    between atoms: C11_11  and  C12_12 
REMARK    5  A    between atoms: C13_13  and  C14_14 
REMARK       I    between atoms: C14_14  and  N1_16 
REMARK    6  A    between atoms: N1_16  and  C15_17 
REMARK    7  A    between atoms: C20_22  and  N2_23 
ROOT
HETATM    1  C7  UNL     1      22.802   3.749  52.214  1.00  0.00     0.064 A 
HETATM    2  C8  UNL     1      23.445   4.565  51.152  1.00  0.00    -0.013 A 
HETATM    3  C9  UNL     1      24.127   3.874  50.255  1.00  0.00    -0.002 A 
HETATM    4  C10 UNL     1      23.969   2.495  50.693  1.00  0.00     0.008 A 
HETATM    5  C11 UNL     1      23.237   2.368  51.786  1.00  0.00    -0.047 A 
ENDROOT
BRANCH   5   6
HETATM    6  C12 UNL     1      22.894   1.137  52.483  1.00  0.00     0.013 C 
HETATM    7  C13 UNL     1      23.569   0.207  53.118  1.00  0.00     0.075 C 
BRANCH   7   8
HETATM    8  C14 UNL     1      24.971  -0.041  53.430  1.00  0.00     0.245 C 
HETATM    9  O1  UNL     1      25.778  -0.442  54.338  1.00  0.00    -0.268 OA
HETATM   10  N1  UNL     1      26.000   0.208  52.445  1.00  0.00    -0.322 N 
HETATM   11  H12 UNL     1      25.723   0.576  51.478  1.00  0.00     0.169 HD
BRANCH  10  12
HETATM   12  C15 UNL     1      27.321  -0.096  52.940  1.00  0.00     0.061 A 
HETATM   13  C16 UNL     1      27.892  -1.344  52.853  1.00  0.00     0.032 A 
HETATM   14  C17 UNL     1      29.159  -1.597  53.339  1.00  0.00     0.002 A 
HETATM   15  C18 UNL     1      29.896  -0.587  53.932  1.00  0.00     0.002 A 
HETATM   16  C19 UNL     1      29.345   0.675  54.032  1.00  0.00     0.031 A 
HETATM   17  C20 UNL     1      28.088   0.885  53.539  1.00  0.00     0.052 A 
BRANCH  17  18
HETATM   18  N2  UNL     1      27.576   2.217  53.674  1.00  0.00    -0.397 N 
HETATM   19  H17 UNL     1      26.881   2.620  53.007  1.00  0.00     0.156 HD
HETATM   20  H18 UNL     1      27.828   2.906  54.424  1.00  0.00     0.156 HD
ENDBRANCH  17  18
ENDBRANCH  10  12
ENDBRANCH   7   8
ENDBRANCH   5   6
BRANCH   1  21
HETATM   21  C6  UNL     1      21.328   3.786  52.180  1.00  0.00    -0.011 C 
BRANCH  21  22
HETATM   22  C5  UNL     1      20.083   3.440  51.995  1.00  0.00     0.028 C 
BRANCH  22  23
HETATM   23  C4  UNL     1      19.402   2.152  51.790  1.00  0.00     0.060 A 
HETATM   24  C3  UNL     1      19.449   1.070  52.548  1.00  0.00     0.060 A 
HETATM   25  C2  UNL     1      18.790  -0.206  52.369  1.00  0.00     0.025 A 
HETATM   26  C1  UNL     1      18.942  -1.189  53.222  1.00  0.00     0.043 C 
HETATM   27  N4  UNL     1      17.978  -0.298  51.207  1.00  0.00    -0.351 N 
HETATM   28  C21 UNL     1      17.936   0.865  50.404  1.00  0.00     0.208 A 
HETATM   29  H20 UNL     1      17.463  -1.176  50.989  1.00  0.00     0.166 HD
HETATM   30  N3  UNL     1      18.570   1.951  50.667  1.00  0.00    -0.244 NA
ENDBRANCH  22  23
ENDBRANCH  21  22
ENDBRANCH   1  21
TORSDOF 7
ENDMDL
MODEL 9
REMARK VINA RESULT:      -7.4      3.135      5.883
REMARK  7 active torsions:
REMARK  status: ('A' for Active; 'I' for Inactive)
REMARK    1  A    between atoms: C4_4  and  C5_5 
REMARK    2  A    between atoms: C5_5  and  C6_6 
REMARK    3  A    between atoms: C6_6  and  C7_7 
REMARK    4  A    between atoms: C11_11  and  C12_12 
REMARK    5  A    between atoms: C13_13  and  C14_14 
REMARK       I    between atoms: C14_14  and  N1_16 
REMARK    6  A    between atoms: N1_16  and  C15_17 
REMARK    7  A    between atoms: C20_22  and  N2_23 
ROOT
HETATM    1  C7  UNL     1      24.237   2.193  51.258  1.00  0.00     0.064 A 
HETATM    2  C8  UNL     1      25.062   1.186  51.975  1.00  0.00    -0.013 A 
HETATM    3  C9  UNL     1      25.324   1.478  53.237  1.00  0.00    -0.002 A 
HETATM    4  C10 UNL     1      24.658   2.756  53.438  1.00  0.00     0.008 A 
HETATM    5  C11 UNL     1      24.035   3.202  52.361  1.00  0.00    -0.047 A 
ENDROOT
BRANCH   5   6
HETATM    6  C12 UNL     1      23.282   4.441  52.225  1.00  0.00     0.013 C 
HETATM    7  C13 UNL     1      23.458   5.573  51.581  1.00  0.00     0.075 C 
BRANCH   7   8
HETATM    8  C14 UNL     1      24.479   6.129  50.703  1.00  0.00     0.245 C 
HETATM    9  O1  UNL     1      25.398   7.015  50.608  1.00  0.00    -0.268 OA
HETATM   10  N1  UNL     1      24.679   5.597  49.374  1.00  0.00    -0.322 N 
HETATM   11  H12 UNL     1      24.067   4.783  49.036  1.00  0.00     0.169 HD
BRANCH  10  12
HETATM   12  C15 UNL     1      25.732   6.277  48.660  1.00  0.00     0.061 A 
HETATM   13  C16 UNL     1      25.517   7.372  47.857  1.00  0.00     0.032 A 
HETATM   14  C17 UNL     1      26.550   7.996  47.188  1.00  0.00     0.002 A 
HETATM   15  C18 UNL     1      27.846   7.529  47.312  1.00  0.00     0.002 A 
HETATM   16  C19 UNL     1      28.090   6.430  48.111  1.00  0.00     0.031 A 
HETATM   17  C20 UNL     1      27.040   5.840  48.757  1.00  0.00     0.052 A 
BRANCH  17  18
HETATM   18  N2  UNL     1      27.361   4.705  49.570  1.00  0.00    -0.397 N 
HETATM   19  H17 UNL     1      27.648   4.795  50.571  1.00  0.00     0.156 HD
HETATM   20  H18 UNL     1      27.346   3.700  49.268  1.00  0.00     0.156 HD
ENDBRANCH  17  18
ENDBRANCH  10  12
ENDBRANCH   7   8
ENDBRANCH   5   6
BRANCH   1  21
HETATM   21  C6  UNL     1      22.908   1.694  50.857  1.00  0.00    -0.011 C 
BRANCH  21  22
HETATM   22  C5  UNL     1      21.811   0.989  50.811  1.00  0.00     0.028 C 
BRANCH  22  23
HETATM   23  C4  UNL     1      20.992   0.310  51.826  1.00  0.00     0.060 A 
HETATM   24  C3  UNL     1      19.690   0.077  51.808  1.00  0.00     0.060 A 
HETATM   25  C2  UNL     1      18.861  -0.588  52.790  1.00  0.00     0.025 A 
HETATM   26  C1  UNL     1      17.571  -0.739  52.619  1.00  0.00     0.043 C 
HETATM   27  N4  UNL     1      19.558  -1.053  53.938  1.00  0.00    -0.351 N 
HETATM   28  C21 UNL     1      20.948  -0.798  53.946  1.00  0.00     0.208 A 
HETATM   29  H20 UNL     1      19.050  -1.544  54.702  1.00  0.00     0.166 HD
HETATM   30  N3  UNL     1      21.581  -0.192  53.006  1.00  0.00    -0.244 NA
ENDBRANCH  22  23
ENDBRANCH  21  22
ENDBRANCH   1  21
TORSDOF 7
ENDMDL
