MODEL 1
REMARK VINA RESULT:      -7.9      0.000      0.000
REMARK  7 active torsions:
REMARK  status: ('A' for Active; 'I' for Inactive)
REMARK    1  A    between atoms: C1_2  and  C2_3 
REMARK       I    between atoms: C1_2  and  N2_12 
REMARK    2  A    between atoms: C3_4  and  C4_5 
REMARK    3  A    between atoms: C4_5  and  N1_6 
REMARK    4  A    between atoms: N2_12  and  C9_13 
REMARK    5  A    between atoms: C12_16  and  N3_17 
REMARK    6  A    between atoms: N3_17  and  C13_18 
REMARK    7  A    between atoms: C14_19  and  C15_20 
ROOT
HETATM    1  C9  UNL     1      25.143   2.787  51.967  1.00  0.00     0.131 A 
HETATM    2  C10 UNL     1      25.815   2.164  52.992  1.00  0.00     0.068 A 
HETATM    3  C11 UNL     1      25.259   1.038  53.523  1.00  0.00     0.044 A 
HETATM    4  C12 UNL     1      25.992   0.462  54.538  1.00  0.00     0.141 A 
HETATM    5  N4  UNL     1      25.493  -0.664  55.093  1.00  0.00    -0.224 NA
HETATM    6  C16 UNL     1      24.333  -1.178  54.657  1.00  0.00     0.236 A 
HETATM    7  N5  UNL     1      23.629  -0.610  53.674  1.00  0.00    -0.240 NA
HETATM    8  C17 UNL     1      24.070   0.507  53.080  1.00  0.00     0.089 A 
HETATM    9  C18 UNL     1      23.415   1.150  52.053  1.00  0.00     0.151 A 
HETATM   10  N6  UNL     1      23.959   2.260  51.526  1.00  0.00    -0.241 NA
ENDROOT
BRANCH   1  11
HETATM   11  N2  UNL     1      25.359   3.947  51.134  1.00  0.00    -0.301 N 
HETATM   12  C1  UNL     1      26.219   3.974  49.990  1.00  0.00     0.302 C 
HETATM   13  O1  UNL     1      26.837   2.964  49.631  1.00  0.00    -0.258 OA
HETATM   14  H11 UNL     1      24.802   4.787  51.474  1.00  0.00     0.171 HD
BRANCH  12  15
HETATM   15  C2  UNL     1      26.349   5.225  49.260  1.00  0.00    -0.004 C 
HETATM   16  C3  UNL     1      26.472   6.270  48.631  1.00  0.00    -0.066 C 
BRANCH  16  17
HETATM   17  C4  UNL     1      26.633   7.526  47.899  1.00  0.00     0.366 C 
BRANCH  17  18
HETATM   18  N1  UNL     1      25.681   8.462  48.435  1.00  0.00     0.103 N 
HETATM   19  C5  UNL     1      25.767   9.762  47.784  1.00  0.00     0.299 C 
HETATM   20  C6  UNL     1      27.129  10.393  48.031  1.00  0.00     0.198 C 
HETATM   21  O2  UNL     1      27.405  10.485  49.379  1.00  0.00    -0.388 OA
HETATM   22  C7  UNL     1      27.200   9.320  50.083  1.00  0.00     0.198 C 
HETATM   23  C8  UNL     1      25.874   8.681  49.859  1.00  0.00     0.299 C 
ENDBRANCH  17  18
ENDBRANCH  16  17
ENDBRANCH  12  15
ENDBRANCH   1  11
BRANCH   4  24
HETATM   24  N3  UNL     1      27.208   1.011  55.013  1.00  0.00    -0.350 N 
HETATM   25  H13 UNL     1      27.587   1.817  55.513  1.00  0.00     0.166 HD
BRANCH  24  26
HETATM   26  C13 UNL     1      28.200   0.070  54.638  1.00  0.00     0.088 C 
HETATM   27  C14 UNL     1      28.988  -0.650  53.871  1.00  0.00     0.021 C 
BRANCH  27  28
HETATM   28  C15 UNL     1      30.025  -1.635  53.511  1.00  0.00     0.251 C 
HETATM   29  F1  UNL     1      29.447  -2.890  53.495  1.00  0.00    -0.251 F 
ENDBRANCH  27  28
ENDBRANCH  24  26
ENDBRANCH   4  24
TORSDOF 7
ENDMDL
MODEL 2
REMARK VINA RESULT:      -7.3      2.929      4.386
REMARK  7 active torsions:
REMARK  status: ('A' for Active; 'I' for Inactive)
REMARK    1  A    between atoms: C1_2  and  C2_3 
REMARK       I    between atoms: C1_2  and  N2_12 
REMARK    2  A    between atoms: C3_4  and  C4_5 
REMARK    3  A    between atoms: C4_5  and  N1_6 
REMARK    4  A    between atoms: N2_12  and  C9_13 
REMARK    5  A    between atoms: C12_16  and  N3_17 
REMARK    6  A    between atoms: N3_17  and  C13_18 
REMARK    7  A    between atoms: C14_19  and  C15_20 
ROOT
HETATM    1  C9  UNL     1      26.127   2.172  51.960  1.00  0.00     0.131 A 
HETATM    2  C10 UNL     1      24.824   1.844  52.251  1.00  0.00     0.068 A 
HETATM    3  C11 UNL     1      24.608   0.811  53.115  1.00  0.00     0.044 A 
HETATM    4  C12 UNL     1      23.280   0.545  53.368  1.00  0.00     0.141 A 
HETATM    5  N4  UNL     1      23.008  -0.463  54.227  1.00  0.00    -0.224 NA
HETATM    6  C16 UNL     1      24.007  -1.157  54.794  1.00  0.00     0.236 A 
HETATM    7  N5  UNL     1      25.291  -0.892  54.540  1.00  0.00    -0.240 NA
HETATM    8  C17 UNL     1      25.628   0.095  53.698  1.00  0.00     0.089 A 
HETATM    9  C18 UNL     1      26.924   0.443  53.389  1.00  0.00     0.151 A 
HETATM   10  N6  UNL     1      27.141   1.460  52.540  1.00  0.00    -0.241 NA
ENDROOT
BRANCH   1  11
HETATM   11  N2  UNL     1      26.793   3.161  51.144  1.00  0.00    -0.301 N 
HETATM   12  C1  UNL     1      26.347   3.576  49.849  1.00  0.00     0.302 C 
HETATM   13  O1  UNL     1      25.322   3.100  49.343  1.00  0.00    -0.258 OA
HETATM   14  H11 UNL     1      27.661   3.548  51.622  1.00  0.00     0.171 HD
BRANCH  12  15
HETATM   15  C2  UNL     1      27.135   4.571  49.139  1.00  0.00    -0.004 C 
HETATM   16  C3  UNL     1      27.811   5.394  48.532  1.00  0.00    -0.066 C 
BRANCH  16  17
HETATM   17  C4  UNL     1      28.628   6.384  47.831  1.00  0.00     0.366 C 
BRANCH  17  18
HETATM   18  N1  UNL     1      27.882   7.613  47.797  1.00  0.00     0.103 N 
HETATM   19  C5  UNL     1      28.228   8.430  46.641  1.00  0.00     0.299 C 
HETATM   20  C6  UNL     1      29.689   8.851  46.705  1.00  0.00     0.198 C 
HETATM   21  O2  UNL     1      29.975   9.502  47.887  1.00  0.00    -0.388 OA
HETATM   22  C7  UNL     1      29.539   8.847  49.017  1.00  0.00     0.198 C 
HETATM   23  C8  UNL     1      28.112   8.424  48.981  1.00  0.00     0.299 C 
ENDBRANCH  17  18
ENDBRANCH  16  17
ENDBRANCH  12  15
ENDBRANCH   1  11
BRANCH   4  24
HETATM   24  N3  UNL     1      22.224   1.263  52.758  1.00  0.00    -0.350 N 
HETATM   25  H13 UNL     1      22.032   2.104  52.210  1.00  0.00     0.166 HD
BRANCH  24  26
HETATM   26  C13 UNL     1      21.060   0.502  53.037  1.00  0.00     0.088 C 
HETATM   27  C14 UNL     1      19.898  -0.082  52.855  1.00  0.00     0.021 C 
BRANCH  27  28
HETATM   28  C15 UNL     1      18.698  -0.879  53.173  1.00  0.00     0.251 C 
HETATM   29  F1  UNL     1      19.103  -2.053  53.779  1.00  0.00    -0.251 F 
ENDBRANCH  27  28
ENDBRANCH  24  26
ENDBRANCH   4  24
TORSDOF 7
ENDMDL
MODEL 3
REMARK VINA RESULT:      -7.2      2.082      2.803
REMARK  7 active torsions:
REMARK  status: ('A' for Active; 'I' for Inactive)
REMARK    1  A    between atoms: C1_2  and  C2_3 
REMARK       I    between atoms: C1_2  and  N2_12 
REMARK    2  A    between atoms: C3_4  and  C4_5 
REMARK    3  A    between atoms: C4_5  and  N1_6 
REMARK    4  A    between atoms: N2_12  and  C9_13 
REMARK    5  A    between atoms: C12_16  and  N3_17 
REMARK    6  A    between atoms: N3_17  and  C13_18 
REMARK    7  A    between atoms: C14_19  and  C15_20 
ROOT
HETATM    1  C9  UNL     1      24.305   3.464  49.981  1.00  0.00     0.131 A 
HETATM    2  C10 UNL     1      24.332   2.698  51.123  1.00  0.00     0.068 A 
HETATM    3  C11 UNL     1      23.331   1.789  51.300  1.00  0.00     0.044 A 
HETATM    4  C12 UNL     1      23.428   1.050  52.459  1.00  0.00     0.141 A 
HETATM    5  N4  UNL     1      22.468   0.125  52.680  1.00  0.00    -0.224 NA
HETATM    6  C16 UNL     1      21.475  -0.046  51.793  1.00  0.00     0.236 A 
HETATM    7  N5  UNL     1      21.390   0.677  50.674  1.00  0.00    -0.240 NA
HETATM    8  C17 UNL     1      22.311   1.610  50.395  1.00  0.00     0.089 A 
HETATM    9  C18 UNL     1      22.306   2.390  49.260  1.00  0.00     0.151 A 
HETATM   10  N6  UNL     1      23.290   3.287  49.081  1.00  0.00    -0.241 NA
ENDROOT
BRANCH   1  11
HETATM   11  N2  UNL     1      25.133   4.496  49.402  1.00  0.00    -0.301 N 
HETATM   12  C1  UNL     1      26.541   4.374  49.176  1.00  0.00     0.302 C 
HETATM   13  O1  UNL     1      27.146   3.333  49.465  1.00  0.00    -0.258 OA
HETATM   14  H11 UNL     1      24.570   5.366  49.162  1.00  0.00     0.171 HD
BRANCH  12  15
HETATM   15  C2  UNL     1      27.244   5.509  48.599  1.00  0.00    -0.004 C 
HETATM   16  C3  UNL     1      27.850   6.465  48.129  1.00  0.00    -0.066 C 
BRANCH  16  17
HETATM   17  C4  UNL     1      28.554   7.621  47.575  1.00  0.00     0.366 C 
BRANCH  17  18
HETATM   18  N1  UNL     1      27.891   8.802  48.059  1.00  0.00     0.103 N 
HETATM   19  C5  UNL     1      28.171   9.965  47.226  1.00  0.00     0.299 C 
HETATM   20  C6  UNL     1      29.655  10.298  47.259  1.00  0.00     0.198 C 
HETATM   21  O2  UNL     1      30.101  10.484  48.551  1.00  0.00    -0.388 OA
HETATM   22  C7  UNL     1      29.740   9.484  49.427  1.00  0.00     0.198 C 
HETATM   23  C8  UNL     1      28.293   9.138  49.414  1.00  0.00     0.299 C 
ENDBRANCH  17  18
ENDBRANCH  16  17
ENDBRANCH  12  15
ENDBRANCH   1  11
BRANCH   4  24
HETATM   24  N3  UNL     1      24.463   1.240  53.406  1.00  0.00    -0.350 N 
HETATM   25  H13 UNL     1      24.797   1.895  54.116  1.00  0.00     0.166 HD
BRANCH  24  26
HETATM   26  C13 UNL     1      25.284   0.090  53.280  1.00  0.00     0.088 C 
HETATM   27  C14 UNL     1      26.198  -0.724  52.802  1.00  0.00     0.021 C 
BRANCH  27  28
HETATM   28  C15 UNL     1      27.038  -1.931  52.694  1.00  0.00     0.251 C 
HETATM   29  F1  UNL     1      26.549  -2.713  51.665  1.00  0.00    -0.251 F 
ENDBRANCH  27  28
ENDBRANCH  24  26
ENDBRANCH   4  24
TORSDOF 7
ENDMDL
MODEL 4
REMARK VINA RESULT:      -7.0      5.591      9.548
REMARK  7 active torsions:
REMARK  status: ('A' for Active; 'I' for Inactive)
REMARK    1  A    between atoms: C1_2  and  C2_3 
REMARK       I    between atoms: C1_2  and  N2_12 
REMARK    2  A    between atoms: C3_4  and  C4_5 
REMARK    3  A    between atoms: C4_5  and  N1_6 
REMARK    4  A    between atoms: N2_12  and  C9_13 
REMARK    5  A    between atoms: C12_16  and  N3_17 
REMARK    6  A    between atoms: N3_17  and  C13_18 
REMARK    7  A    between atoms: C14_19  and  C15_20 
ROOT
HETATM    1  C9  UNL     1      23.111   0.345  52.413  1.00  0.00     0.131 A 
HETATM    2  C10 UNL     1      23.864   1.253  51.704  1.00  0.00     0.068 A 
HETATM    3  C11 UNL     1      25.155   1.447  52.095  1.00  0.00     0.044 A 
HETATM    4  C12 UNL     1      25.851   2.361  51.333  1.00  0.00     0.141 A 
HETATM    5  N4  UNL     1      27.142   2.585  51.669  1.00  0.00    -0.224 NA
HETATM    6  C16 UNL     1      27.695   1.932  52.703  1.00  0.00     0.236 A 
HETATM    7  N5  UNL     1      27.011   1.050  53.436  1.00  0.00    -0.240 NA
HETATM    8  C17 UNL     1      25.728   0.782  53.154  1.00  0.00     0.089 A 
HETATM    9  C18 UNL     1      24.953  -0.120  53.849  1.00  0.00     0.151 A 
HETATM   10  N6  UNL     1      23.680  -0.316  53.467  1.00  0.00    -0.241 NA
ENDROOT
BRANCH   1  11
HETATM   11  N2  UNL     1      21.762  -0.164  52.346  1.00  0.00    -0.301 N 
HETATM   12  C1  UNL     1      20.598   0.569  52.741  1.00  0.00     0.302 C 
HETATM   13  O1  UNL     1      20.687   1.728  53.167  1.00  0.00    -0.258 OA
HETATM   14  H11 UNL     1      21.733  -1.157  51.966  1.00  0.00     0.171 HD
BRANCH  12  15
HETATM   15  C2  UNL     1      19.304  -0.086  52.631  1.00  0.00    -0.004 C 
HETATM   16  C3  UNL     1      18.218  -0.643  52.518  1.00  0.00    -0.066 C 
BRANCH  16  17
HETATM   17  C4  UNL     1      16.911  -1.285  52.385  1.00  0.00     0.366 C 
BRANCH  17  18
HETATM   18  N1  UNL     1      16.164  -0.541  51.406  1.00  0.00     0.103 N 
HETATM   19  C5  UNL     1      15.615   0.690  51.960  1.00  0.00     0.299 C 
HETATM   20  C6  UNL     1      14.621   0.379  53.069  1.00  0.00     0.198 C 
HETATM   21  O2  UNL     1      13.623  -0.465  52.630  1.00  0.00    -0.388 OA
HETATM   22  C7  UNL     1      14.075  -1.583  51.964  1.00  0.00     0.198 C 
HETATM   23  C8  UNL     1      15.049  -1.306  50.873  1.00  0.00     0.299 C 
ENDBRANCH  17  18
ENDBRANCH  16  17
ENDBRANCH  12  15
ENDBRANCH   1  11
BRANCH   4  24
HETATM   24  N3  UNL     1      25.266   3.064  50.253  1.00  0.00    -0.350 N 
HETATM   25  H13 UNL     1      24.389   3.166  49.738  1.00  0.00     0.166 HD
BRANCH  24  26
HETATM   26  C13 UNL     1      26.302   3.899  49.761  1.00  0.00     0.088 C 
HETATM   27  C14 UNL     1      26.965   4.688  48.947  1.00  0.00     0.021 C 
BRANCH  27  28
HETATM   28  C15 UNL     1      28.057   5.552  48.461  1.00  0.00     0.251 C 
HETATM   29  F1  UNL     1      29.067   4.745  47.971  1.00  0.00    -0.251 F 
ENDBRANCH  27  28
ENDBRANCH  24  26
ENDBRANCH   4  24
TORSDOF 7
ENDMDL
MODEL 5
REMARK VINA RESULT:      -7.0      4.715      7.086
REMARK  7 active torsions:
REMARK  status: ('A' for Active; 'I' for Inactive)
REMARK    1  A    between atoms: C1_2  and  C2_3 
REMARK       I    between atoms: C1_2  and  N2_12 
REMARK    2  A    between atoms: C3_4  and  C4_5 
REMARK    3  A    between atoms: C4_5  and  N1_6 
REMARK    4  A    between atoms: N2_12  and  C9_13 
REMARK    5  A    between atoms: C12_16  and  N3_17 
REMARK    6  A    between atoms: N3_17  and  C13_18 
REMARK    7  A    between atoms: C14_19  and  C15_20 
ROOT
HETATM    1  C9  UNL     1      26.004   6.511  49.195  1.00  0.00     0.131 A 
HETATM    2  C10 UNL     1      25.263   6.197  50.311  1.00  0.00     0.068 A 
HETATM    3  C11 UNL     1      23.910   6.348  50.236  1.00  0.00     0.044 A 
HETATM    4  C12 UNL     1      23.232   6.005  51.386  1.00  0.00     0.141 A 
HETATM    5  N4  UNL     1      21.886   6.124  51.365  1.00  0.00    -0.224 NA
HETATM    6  C16 UNL     1      21.262   6.559  50.259  1.00  0.00     0.236 A 
HETATM    7  N5  UNL     1      21.929   6.891  49.151  1.00  0.00    -0.240 NA
HETATM    8  C17 UNL     1      23.265   6.795  49.106  1.00  0.00     0.089 A 
HETATM    9  C18 UNL     1      24.029   7.103  48.003  1.00  0.00     0.151 A 
HETATM   10  N6  UNL     1      25.363   6.956  48.071  1.00  0.00    -0.241 NA
ENDROOT
BRANCH   1  11
HETATM   11  N2  UNL     1      27.402   6.491  48.836  1.00  0.00    -0.301 N 
HETATM   12  C1  UNL     1      28.156   5.301  48.582  1.00  0.00     0.302 C 
HETATM   13  O1  UNL     1      27.628   4.183  48.646  1.00  0.00    -0.258 OA
HETATM   14  H11 UNL     1      27.811   7.471  48.784  1.00  0.00     0.171 HD
BRANCH  12  15
HETATM   15  C2  UNL     1      29.565   5.441  48.247  1.00  0.00    -0.004 C 
HETATM   16  C3  UNL     1      30.753   5.538  47.959  1.00  0.00    -0.066 C 
BRANCH  16  17
HETATM   17  C4  UNL     1      32.175   5.655  47.639  1.00  0.00     0.366 C 
BRANCH  17  18
HETATM   18  N1  UNL     1      32.408   4.907  46.433  1.00  0.00     0.103 N 
HETATM   19  C5  UNL     1      32.224   3.475  46.634  1.00  0.00     0.299 C 
HETATM   20  C6  UNL     1      33.237   2.943  47.637  1.00  0.00     0.198 C 
HETATM   21  O2  UNL     1      34.528   3.236  47.252  1.00  0.00    -0.388 OA
HETATM   22  C7  UNL     1      34.735   4.552  46.904  1.00  0.00     0.198 C 
HETATM   23  C8  UNL     1      33.756   5.098  45.924  1.00  0.00     0.299 C 
ENDBRANCH  17  18
ENDBRANCH  16  17
ENDBRANCH  12  15
ENDBRANCH   1  11
BRANCH   4  24
HETATM   24  N3  UNL     1      23.888   5.562  52.561  1.00  0.00    -0.350 N 
HETATM   25  H13 UNL     1      24.489   5.889  53.320  1.00  0.00     0.166 HD
BRANCH  24  26
HETATM   26  C13 UNL     1      23.554   4.188  52.665  1.00  0.00     0.088 C 
HETATM   27  C14 UNL     1      23.665   2.883  52.562  1.00  0.00     0.021 C 
BRANCH  27  28
HETATM   28  C15 UNL     1      23.292   1.461  52.683  1.00  0.00     0.251 C 
HETATM   29  F1  UNL     1      24.363   0.692  52.266  1.00  0.00    -0.251 F 
ENDBRANCH  27  28
ENDBRANCH  24  26
ENDBRANCH   4  24
TORSDOF 7
ENDMDL
MODEL 6
REMARK VINA RESULT:      -7.0      3.929      5.083
REMARK  7 active torsions:
REMARK  status: ('A' for Active; 'I' for Inactive)
REMARK    1  A    between atoms: C1_2  and  C2_3 
REMARK       I    between atoms: C1_2  and  N2_12 
REMARK    2  A    between atoms: C3_4  and  C4_5 
REMARK    3  A    between atoms: C4_5  and  N1_6 
REMARK    4  A    between atoms: N2_12  and  C9_13 
REMARK    5  A    between atoms: C12_16  and  N3_17 
REMARK    6  A    between atoms: N3_17  and  C13_18 
REMARK    7  A    between atoms: C14_19  and  C15_20 
ROOT
HETATM    1  C9  UNL     1      24.748   4.738  50.525  1.00  0.00     0.131 A 
HETATM    2  C10 UNL     1      24.331   3.525  51.022  1.00  0.00     0.068 A 
HETATM    3  C11 UNL     1      23.052   3.435  51.485  1.00  0.00     0.044 A 
HETATM    4  C12 UNL     1      22.701   2.189  51.957  1.00  0.00     0.141 A 
HETATM    5  N4  UNL     1      21.439   2.040  52.418  1.00  0.00    -0.224 NA
HETATM    6  C16 UNL     1      20.587   3.076  52.406  1.00  0.00     0.236 A 
HETATM    7  N5  UNL     1      20.938   4.280  51.948  1.00  0.00    -0.240 NA
HETATM    8  C17 UNL     1      22.174   4.494  51.476  1.00  0.00     0.089 A 
HETATM    9  C18 UNL     1      22.615   5.699  50.974  1.00  0.00     0.151 A 
HETATM   10  N6  UNL     1      23.875   5.792  50.516  1.00  0.00    -0.241 NA
ENDROOT
BRANCH   1  11
HETATM   11  N2  UNL     1      25.961   5.262  49.943  1.00  0.00    -0.301 N 
HETATM   12  C1  UNL     1      26.909   4.483  49.207  1.00  0.00     0.302 C 
HETATM   13  O1  UNL     1      26.729   3.274  49.012  1.00  0.00    -0.258 OA
HETATM   14  H11 UNL     1      26.070   6.304  50.127  1.00  0.00     0.171 HD
BRANCH  12  15
HETATM   15  C2  UNL     1      28.096   5.150  48.696  1.00  0.00    -0.004 C 
HETATM   16  C3  UNL     1      29.084   5.726  48.255  1.00  0.00    -0.066 C 
BRANCH  16  17
HETATM   17  C4  UNL     1      30.267   6.394  47.713  1.00  0.00     0.366 C 
BRANCH  17  18
HETATM   18  N1  UNL     1      30.948   7.023  48.812  1.00  0.00     0.103 N 
HETATM   19  C5  UNL     1      31.806   8.115  48.370  1.00  0.00     0.299 C 
HETATM   20  C6  UNL     1      32.910   7.591  47.463  1.00  0.00     0.198 C 
HETATM   21  O2  UNL     1      33.638   6.595  48.078  1.00  0.00    -0.388 OA
HETATM   22  C7  UNL     1      32.875   5.601  48.649  1.00  0.00     0.198 C 
HETATM   23  C8  UNL     1      31.787   6.087  49.542  1.00  0.00     0.299 C 
ENDBRANCH  17  18
ENDBRANCH  16  17
ENDBRANCH  12  15
ENDBRANCH   1  11
BRANCH   4  24
HETATM   24  N3  UNL     1      23.603   1.098  51.988  1.00  0.00    -0.350 N 
HETATM   25  H13 UNL     1      24.422   0.715  51.511  1.00  0.00     0.166 HD
BRANCH  24  26
HETATM   26  C13 UNL     1      23.170   0.303  53.079  1.00  0.00     0.088 C 
HETATM   27  C14 UNL     1      23.214  -0.569  54.062  1.00  0.00     0.021 C 
BRANCH  27  28
HETATM   28  C15 UNL     1      22.737  -1.384  55.194  1.00  0.00     0.251 C 
HETATM   29  F1  UNL     1      21.719  -2.203  54.743  1.00  0.00    -0.251 F 
ENDBRANCH  27  28
ENDBRANCH  24  26
ENDBRANCH   4  24
TORSDOF 7
ENDMDL
MODEL 7
REMARK VINA RESULT:      -6.7      3.550      4.238
REMARK  7 active torsions:
REMARK  status: ('A' for Active; 'I' for Inactive)
REMARK    1  A    between atoms: C1_2  and  C2_3 
REMARK       I    between atoms: C1_2  and  N2_12 
REMARK    2  A    between atoms: C3_4  and  C4_5 
REMARK    3  A    between atoms: C4_5  and  N1_6 
REMARK    4  A    between atoms: N2_12  and  C9_13 
REMARK    5  A    between atoms: C12_16  and  N3_17 
REMARK    6  A    between atoms: N3_17  and  C13_18 
REMARK    7  A    between atoms: C14_19  and  C15_20 
ROOT
HETATM    1  C9  UNL     1      23.688   1.641  51.598  1.00  0.00     0.131 A 
HETATM    2  C10 UNL     1      24.741   1.447  52.461  1.00  0.00     0.068 A 
HETATM    3  C11 UNL     1      24.586   0.524  53.452  1.00  0.00     0.044 A 
HETATM    4  C12 UNL     1      25.684   0.376  54.272  1.00  0.00     0.141 A 
HETATM    5  N4  UNL     1      25.591  -0.535  55.266  1.00  0.00    -0.224 NA
HETATM    6  C16 UNL     1      24.466  -1.250  55.426  1.00  0.00     0.236 A 
HETATM    7  N5  UNL     1      23.407  -1.097  54.627  1.00  0.00    -0.240 NA
HETATM    8  C17 UNL     1      23.436  -0.211  53.622  1.00  0.00     0.089 A 
HETATM    9  C18 UNL     1      22.395   0.002  52.744  1.00  0.00     0.151 A 
HETATM   10  N6  UNL     1      22.543   0.910  51.765  1.00  0.00    -0.241 NA
ENDROOT
BRANCH   1  11
HETATM   11  N2  UNL     1      23.427   2.470  50.444  1.00  0.00    -0.301 N 
HETATM   12  C1  UNL     1      23.545   3.896  50.429  1.00  0.00     0.302 C 
HETATM   13  O1  UNL     1      23.901   4.520  51.438  1.00  0.00    -0.258 OA
HETATM   14  H11 UNL     1      23.135   1.893  49.600  1.00  0.00     0.171 HD
BRANCH  12  15
HETATM   15  C2  UNL     1      23.231   4.597  49.194  1.00  0.00    -0.004 C 
HETATM   16  C3  UNL     1      22.949   5.176  48.150  1.00  0.00    -0.066 C 
BRANCH  16  17
HETATM   17  C4  UNL     1      22.631   5.854  46.894  1.00  0.00     0.366 C 
BRANCH  17  18
HETATM   18  N1  UNL     1      21.214   5.724  46.682  1.00  0.00     0.103 N 
HETATM   19  C5  UNL     1      20.835   4.357  46.347  1.00  0.00     0.299 C 
HETATM   20  C6  UNL     1      21.477   3.933  45.034  1.00  0.00     0.198 C 
HETATM   21  O2  UNL     1      21.164   4.807  44.014  1.00  0.00    -0.388 OA
HETATM   22  C7  UNL     1      21.361   6.135  44.322  1.00  0.00     0.198 C 
HETATM   23  C8  UNL     1      20.743   6.576  45.603  1.00  0.00     0.299 C 
ENDBRANCH  17  18
ENDBRANCH  16  17
ENDBRANCH  12  15
ENDBRANCH   1  11
BRANCH   4  24
HETATM   24  N3  UNL     1      26.866   1.141  54.118  1.00  0.00    -0.350 N 
HETATM   25  H13 UNL     1      27.203   2.106  54.084  1.00  0.00     0.166 HD
BRANCH  24  26
HETATM   26  C13 UNL     1      27.900   0.183  53.969  1.00  0.00     0.088 C 
HETATM   27  C14 UNL     1      29.112  -0.318  53.884  1.00  0.00     0.021 C 
BRANCH  27  28
HETATM   28  C15 UNL     1      30.167  -1.336  53.726  1.00  0.00     0.251 C 
HETATM   29  F1  UNL     1      29.569  -2.534  53.381  1.00  0.00    -0.251 F 
ENDBRANCH  27  28
ENDBRANCH  24  26
ENDBRANCH   4  24
TORSDOF 7
ENDMDL
MODEL 8
REMARK VINA RESULT:      -6.7      6.282     10.095
REMARK  7 active torsions:
REMARK  status: ('A' for Active; 'I' for Inactive)
REMARK    1  A    between atoms: C1_2  and  C2_3 
REMARK       I    between atoms: C1_2  and  N2_12 
REMARK    2  A    between atoms: C3_4  and  C4_5 
REMARK    3  A    between atoms: C4_5  and  N1_6 
REMARK    4  A    between atoms: N2_12  and  C9_13 
REMARK    5  A    between atoms: C12_16  and  N3_17 
REMARK    6  A    between atoms: N3_17  and  C13_18 
REMARK    7  A    between atoms: C14_19  and  C15_20 
ROOT
HETATM    1  C9  UNL     1      21.971  -0.979  53.834  1.00  0.00     0.131 A 
HETATM    2  C10 UNL     1      22.968  -0.305  53.169  1.00  0.00     0.068 A 
HETATM    3  C11 UNL     1      24.193  -0.237  53.764  1.00  0.00     0.044 A 
HETATM    4  C12 UNL     1      25.145   0.443  53.037  1.00  0.00     0.141 A 
HETATM    5  N4  UNL     1      26.382   0.532  53.575  1.00  0.00    -0.224 NA
HETATM    6  C16 UNL     1      26.643  -0.026  54.767  1.00  0.00     0.236 A 
HETATM    7  N5  UNL     1      25.712  -0.681  55.465  1.00  0.00    -0.240 NA
HETATM    8  C17 UNL     1      24.467  -0.806  54.987  1.00  0.00     0.089 A 
HETATM    9  C18 UNL     1      23.450  -1.474  55.634  1.00  0.00     0.151 A 
HETATM   10  N6  UNL     1      22.242  -1.544  55.050  1.00  0.00    -0.241 NA
ENDROOT
BRANCH   1  11
HETATM   11  N2  UNL     1      20.585  -1.298  53.583  1.00  0.00    -0.301 N 
HETATM   12  C1  UNL     1      19.619  -0.371  53.076  1.00  0.00     0.302 C 
HETATM   13  O1  UNL     1      19.933   0.795  52.805  1.00  0.00    -0.258 OA
HETATM   14  H11 UNL     1      20.363  -2.311  53.820  1.00  0.00     0.171 HD
BRANCH  12  15
HETATM   15  C2  UNL     1      18.254  -0.837  52.891  1.00  0.00    -0.004 C 
HETATM   16  C3  UNL     1      17.110  -1.244  52.720  1.00  0.00    -0.066 C 
BRANCH  16  17
HETATM   17  C4  UNL     1      15.740  -1.708  52.504  1.00  0.00     0.366 C 
BRANCH  17  18
HETATM   18  N1  UNL     1      15.101  -0.769  51.621  1.00  0.00     0.103 N 
HETATM   19  C5  UNL     1      14.815   0.497  52.285  1.00  0.00     0.299 C 
HETATM   20  C6  UNL     1      13.831   0.288  53.427  1.00  0.00     0.198 C 
HETATM   21  O2  UNL     1      12.675  -0.325  52.991  1.00  0.00    -0.388 OA
HETATM   22  C7  UNL     1      12.882  -1.453  52.228  1.00  0.00     0.198 C 
HETATM   23  C8  UNL     1      13.842  -1.277  51.103  1.00  0.00     0.299 C 
ENDBRANCH  17  18
ENDBRANCH  16  17
ENDBRANCH  12  15
ENDBRANCH   1  11
BRANCH   4  24
HETATM   24  N3  UNL     1      24.869   1.048  51.787  1.00  0.00    -0.350 N 
HETATM   25  H13 UNL     1      24.857   0.856  50.783  1.00  0.00     0.166 HD
BRANCH  24  26
HETATM   26  C13 UNL     1      24.477   2.373  52.105  1.00  0.00     0.088 C 
HETATM   27  C14 UNL     1      24.028   3.390  52.807  1.00  0.00     0.021 C 
BRANCH  27  28
HETATM   28  C15 UNL     1      23.628   4.776  53.110  1.00  0.00     0.251 C 
HETATM   29  F1  UNL     1      22.311   4.945  52.723  1.00  0.00    -0.251 F 
ENDBRANCH  27  28
ENDBRANCH  24  26
ENDBRANCH   4  24
TORSDOF 7
ENDMDL
MODEL 9
REMARK VINA RESULT:      -6.6      4.770      9.238
REMARK  7 active torsions:
REMARK  status: ('A' for Active; 'I' for Inactive)
REMARK    1  A    between atoms: C1_2  and  C2_3 
REMARK       I    between atoms: C1_2  and  N2_12 
REMARK    2  A    between atoms: C3_4  and  C4_5 
REMARK    3  A    between atoms: C4_5  and  N1_6 
REMARK    4  A    between atoms: N2_12  and  C9_13 
REMARK    5  A    between atoms: C12_16  and  N3_17 
REMARK    6  A    between atoms: N3_17  and  C13_18 
REMARK    7  A    between atoms: C14_19  and  C15_20 
ROOT
HETATM    1  C9  UNL     1      27.503   5.642  48.644  1.00  0.00     0.131 A 
HETATM    2  C10 UNL     1      28.774   5.291  48.253  1.00  0.00     0.068 A 
HETATM    3  C11 UNL     1      29.691   6.290  48.109  1.00  0.00     0.044 A 
HETATM    4  C12 UNL     1      30.944   5.864  47.726  1.00  0.00     0.141 A 
HETATM    5  N4  UNL     1      31.897   6.812  47.579  1.00  0.00    -0.224 NA
HETATM    6  C16 UNL     1      31.607   8.103  47.802  1.00  0.00     0.236 A 
HETATM    7  N5  UNL     1      30.388   8.505  48.170  1.00  0.00    -0.240 NA
HETATM    8  C17 UNL     1      29.400   7.615  48.335  1.00  0.00     0.089 A 
HETATM    9  C18 UNL     1      28.119   7.941  48.724  1.00  0.00     0.151 A 
HETATM   10  N6  UNL     1      27.213   6.960  48.868  1.00  0.00    -0.241 NA
ENDROOT
BRANCH   1  11
HETATM   11  N2  UNL     1      26.270   4.943  48.922  1.00  0.00    -0.301 N 
HETATM   12  C1  UNL     1      26.152   3.838  49.824  1.00  0.00     0.302 C 
HETATM   13  O1  UNL     1      27.133   3.413  50.447  1.00  0.00    -0.258 OA
HETATM   14  H11 UNL     1      25.454   5.348  48.374  1.00  0.00     0.171 HD
BRANCH  12  15
HETATM   15  C2  UNL     1      24.843   3.224  49.988  1.00  0.00    -0.004 C 
HETATM   16  C3  UNL     1      23.741   2.711  50.146  1.00  0.00    -0.066 C 
BRANCH  16  17
HETATM   17  C4  UNL     1      22.436   2.077  50.333  1.00  0.00     0.366 C 
BRANCH  17  18
HETATM   18  N1  UNL     1      21.980   2.412  51.654  1.00  0.00     0.103 N 
HETATM   19  C5  UNL     1      22.738   1.717  52.687  1.00  0.00     0.299 C 
HETATM   20  C6  UNL     1      22.545   0.213  52.567  1.00  0.00     0.198 C 
HETATM   21  O2  UNL     1      21.209  -0.129  52.606  1.00  0.00    -0.388 OA
HETATM   22  C7  UNL     1      20.410   0.600  51.753  1.00  0.00     0.198 C 
HETATM   23  C8  UNL     1      20.579   2.076  51.850  1.00  0.00     0.299 C 
ENDBRANCH  17  18
ENDBRANCH  16  17
ENDBRANCH  12  15
ENDBRANCH   1  11
BRANCH   4  24
HETATM   24  N3  UNL     1      31.249   4.505  47.473  1.00  0.00    -0.350 N 
HETATM   25  H13 UNL     1      30.947   3.555  47.700  1.00  0.00     0.166 HD
BRANCH  24  26
HETATM   26  C13 UNL     1      32.363   4.541  46.596  1.00  0.00     0.088 C 
HETATM   27  C14 UNL     1      33.053   4.486  45.479  1.00  0.00     0.021 C 
BRANCH  27  28
HETATM   28  C15 UNL     1      34.229   4.530  44.590  1.00  0.00     0.251 C 
HETATM   29  F1  UNL     1      35.331   4.098  45.304  1.00  0.00    -0.251 F 
ENDBRANCH  27  28
ENDBRANCH  24  26
ENDBRANCH   4  24
TORSDOF 7
ENDMDL
