MODEL 1
REMARK VINA RESULT:      -7.2      0.000      0.000
REMARK  8 active torsions:
REMARK  status: ('A' for Active; 'I' for Inactive)
REMARK    1  A    between atoms: C2_2  and  N2_8 
REMARK    2  A    between atoms: C3_3  and  C4_4 
REMARK    3  A    between atoms: C4_4  and  N1_5 
REMARK    4  A    between atoms: N1_5  and  C5_6 
REMARK    5  A    between atoms: N2_8  and  C6_9 
REMARK    6  A    between atoms: C11_14  and  O2_15 
REMARK    7  A    between atoms: O2_15  and  C12_16 
REMARK    8  A    between atoms: C12_16  and  C13_17 
ROOT
HETATM    1  C6  UNL     1      25.218  -0.085  53.832  1.00  0.00     0.067 A 
HETATM    2  C7  UNL     1      24.238  -0.882  54.404  1.00  0.00     0.048 A 
HETATM    3  C8  UNL     1      22.911  -0.593  54.167  1.00  0.00     0.025 A 
HETATM    4  C9  UNL     1      22.545   0.472  53.374  1.00  0.00     0.068 A 
HETATM    5  C10 UNL     1      23.551   1.212  52.846  1.00  0.00     0.071 A 
HETATM    6  C11 UNL     1      24.897   1.010  53.020  1.00  0.00     0.097 A 
HETATM    7  N3  UNL     1      21.322   0.786  53.123  1.00  0.00    -0.268 NA
HETATM    8  C14 UNL     1      20.271  -0.016  53.695  1.00  0.00     0.298 C 
HETATM    9  N4  UNL     1      20.804  -1.297  54.089  1.00  0.00    -0.265 NA
HETATM   10  C15 UNL     1      21.945  -1.309  54.678  1.00  0.00     0.095 C 
ENDROOT
BRANCH   1  11
HETATM   11  N2  UNL     1      26.572  -0.474  54.143  1.00  0.00    -0.358 N 
HETATM   12  H9  UNL     1      27.048  -0.202  55.047  1.00  0.00     0.166 HD
BRANCH  11  13
HETATM   13  C2  UNL     1      27.310  -1.249  53.217  1.00  0.00     0.003 C 
HETATM   14  C1  UNL     1      26.747  -2.195  52.195  1.00  0.00     0.068 C 
HETATM   15  C3  UNL     1      28.614  -1.132  53.254  1.00  0.00     0.017 C 
BRANCH  15  16
HETATM   16  C4  UNL     1      29.381  -0.256  54.183  1.00  0.00     0.151 C 
BRANCH  16  17
HETATM   17  N1  UNL     1      29.669   0.979  53.453  1.00  0.00    -0.365 N 
HETATM   18  H7  UNL     1      30.229   1.043  52.567  1.00  0.00     0.162 HD
BRANCH  17  19
HETATM   19  C5  UNL     1      29.121   2.157  54.037  1.00  0.00     0.348 C 
HETATM   20  O1  UNL     1      29.671   2.405  55.162  1.00  0.00    -0.284 OA
ENDBRANCH  17  19
ENDBRANCH  16  17
ENDBRANCH  15  16
ENDBRANCH  11  13
ENDBRANCH   1  11
BRANCH   6  21
HETATM   21  O2  UNL     1      26.016   1.633  52.579  1.00  0.00    -0.346 OA
BRANCH  21  22
HETATM   22  C12 UNL     1      26.571   1.791  51.326  1.00  0.00     0.207 C 
BRANCH  22  23
HETATM   23  C13 UNL     1      26.113   3.050  50.636  1.00  0.00     0.248 C 
HETATM   24  F1  UNL     1      26.886   3.177  49.484  1.00  0.00    -0.253 F 
ENDBRANCH  22  23
ENDBRANCH  21  22
ENDBRANCH   6  21
TORSDOF 8
ENDMDL
MODEL 2
REMARK VINA RESULT:      -7.0      2.699      4.137
REMARK  8 active torsions:
REMARK  status: ('A' for Active; 'I' for Inactive)
REMARK    1  A    between atoms: C2_2  and  N2_8 
REMARK    2  A    between atoms: C3_3  and  C4_4 
REMARK    3  A    between atoms: C4_4  and  N1_5 
REMARK    4  A    between atoms: N1_5  and  C5_6 
REMARK    5  A    between atoms: N2_8  and  C6_9 
REMARK    6  A    between atoms: C11_14  and  O2_15 
REMARK    7  A    between atoms: O2_15  and  C12_16 
REMARK    8  A    between atoms: C12_16  and  C13_17 
ROOT
HETATM    1  C6  UNL     1      25.035   0.525  52.985  1.00  0.00     0.067 A 
HETATM    2  C7  UNL     1      25.436   1.525  52.113  1.00  0.00     0.048 A 
HETATM    3  C8  UNL     1      24.505   2.104  51.277  1.00  0.00     0.025 A 
HETATM    4  C9  UNL     1      23.186   1.705  51.295  1.00  0.00     0.068 A 
HETATM    5  C10 UNL     1      22.860   0.722  52.170  1.00  0.00     0.071 A 
HETATM    6  C11 UNL     1      23.707   0.084  53.040  1.00  0.00     0.097 A 
HETATM    7  N3  UNL     1      22.279   2.211  50.535  1.00  0.00    -0.268 NA
HETATM    8  C14 UNL     1      22.650   3.254  49.613  1.00  0.00     0.298 C 
HETATM    9  N4  UNL     1      23.897   3.845  50.034  1.00  0.00    -0.265 NA
HETATM   10  C15 UNL     1      24.824   3.051  50.435  1.00  0.00     0.095 C 
ENDROOT
BRANCH   1  11
HETATM   11  N2  UNL     1      26.086  -0.012  53.815  1.00  0.00    -0.358 N 
HETATM   12  H9  UNL     1      26.172   0.218  54.842  1.00  0.00     0.166 HD
BRANCH  11  13
HETATM   13  C2  UNL     1      27.050  -0.882  53.251  1.00  0.00     0.003 C 
HETATM   14  C1  UNL     1      26.788  -1.989  52.270  1.00  0.00     0.068 C 
HETATM   15  C3  UNL     1      28.294  -0.706  53.621  1.00  0.00     0.017 C 
BRANCH  15  16
HETATM   16  C4  UNL     1      28.777   0.327  54.580  1.00  0.00     0.151 C 
BRANCH  16  17
HETATM   17  N1  UNL     1      29.546   1.296  53.799  1.00  0.00    -0.365 N 
HETATM   18  H7  UNL     1      30.540   1.170  53.484  1.00  0.00     0.162 HD
BRANCH  17  19
HETATM   19  C5  UNL     1      28.839   2.488  53.467  1.00  0.00     0.348 C 
HETATM   20  O1  UNL     1      27.837   2.651  54.241  1.00  0.00    -0.284 OA
ENDBRANCH  17  19
ENDBRANCH  16  17
ENDBRANCH  15  16
ENDBRANCH  11  13
ENDBRANCH   1  11
BRANCH   6  21
HETATM   21  O2  UNL     1      23.558  -0.896  53.965  1.00  0.00    -0.346 OA
BRANCH  21  22
HETATM   22  C12 UNL     1      22.652  -1.094  54.985  1.00  0.00     0.207 C 
BRANCH  22  23
HETATM   23  C13 UNL     1      21.310  -1.569  54.494  1.00  0.00     0.248 C 
HETATM   24  F1  UNL     1      20.525  -0.432  54.316  1.00  0.00    -0.253 F 
ENDBRANCH  22  23
ENDBRANCH  21  22
ENDBRANCH   6  21
TORSDOF 8
ENDMDL
MODEL 3
REMARK VINA RESULT:      -6.8      3.376      6.360
REMARK  8 active torsions:
REMARK  status: ('A' for Active; 'I' for Inactive)
REMARK    1  A    between atoms: C2_2  and  N2_8 
REMARK    2  A    between atoms: C3_3  and  C4_4 
REMARK    3  A    between atoms: C4_4  and  N1_5 
REMARK    4  A    between atoms: N1_5  and  C5_6 
REMARK    5  A    between atoms: N2_8  and  C6_9 
REMARK    6  A    between atoms: C11_14  and  O2_15 
REMARK    7  A    between atoms: O2_15  and  C12_16 
REMARK    8  A    between atoms: C12_16  and  C13_17 
ROOT
HETATM    1  C6  UNL     1      24.457   1.477  53.034  1.00  0.00     0.067 A 
HETATM    2  C7  UNL     1      25.674   2.108  53.239  1.00  0.00     0.048 A 
HETATM    3  C8  UNL     1      26.787   1.347  53.532  1.00  0.00     0.025 A 
HETATM    4  C9  UNL     1      26.706  -0.026  53.622  1.00  0.00     0.068 A 
HETATM    5  C10 UNL     1      25.487  -0.579  53.411  1.00  0.00     0.071 A 
HETATM    6  C11 UNL     1      24.324   0.086  53.116  1.00  0.00     0.097 A 
HETATM    7  N3  UNL     1      27.712  -0.781  53.894  1.00  0.00    -0.268 NA
HETATM    8  C14 UNL     1      28.998  -0.169  54.114  1.00  0.00     0.298 C 
HETATM    9  N4  UNL     1      29.002   1.157  53.548  1.00  0.00    -0.265 NA
HETATM   10  C15 UNL     1      27.959   1.885  53.735  1.00  0.00     0.095 C 
ENDROOT
BRANCH   1  11
HETATM   11  N2  UNL     1      23.359   2.365  52.734  1.00  0.00    -0.358 N 
HETATM   12  H9  UNL     1      22.577   2.552  53.419  1.00  0.00     0.166 HD
BRANCH  11  13
HETATM   13  C2  UNL     1      23.309   3.020  51.481  1.00  0.00     0.003 C 
HETATM   14  C1  UNL     1      23.232   2.364  50.131  1.00  0.00     0.068 C 
HETATM   15  C3  UNL     1      23.331   4.330  51.497  1.00  0.00     0.017 C 
BRANCH  15  16
HETATM   16  C4  UNL     1      23.405   5.182  52.717  1.00  0.00     0.151 C 
BRANCH  16  17
HETATM   17  N1  UNL     1      24.259   6.321  52.380  1.00  0.00    -0.365 N 
HETATM   18  H7  UNL     1      24.913   6.806  53.044  1.00  0.00     0.162 HD
BRANCH  17  19
HETATM   19  C5  UNL     1      24.155   6.765  51.030  1.00  0.00     0.348 C 
HETATM   20  O1  UNL     1      23.838   8.001  50.982  1.00  0.00    -0.284 OA
ENDBRANCH  17  19
ENDBRANCH  16  17
ENDBRANCH  15  16
ENDBRANCH  11  13
ENDBRANCH   1  11
BRANCH   6  21
HETATM   21  O2  UNL     1      23.045  -0.295  52.878  1.00  0.00    -0.346 OA
BRANCH  21  22
HETATM   22  C12 UNL     1      22.214  -1.218  53.477  1.00  0.00     0.207 C 
BRANCH  22  23
HETATM   23  C13 UNL     1      22.007  -0.955  54.946  1.00  0.00     0.248 C 
HETATM   24  F1  UNL     1      21.295   0.239  55.041  1.00  0.00    -0.253 F 
ENDBRANCH  22  23
ENDBRANCH  21  22
ENDBRANCH   6  21
TORSDOF 8
ENDMDL
MODEL 4
REMARK VINA RESULT:      -6.8      3.148      6.141
REMARK  8 active torsions:
REMARK  status: ('A' for Active; 'I' for Inactive)
REMARK    1  A    between atoms: C2_2  and  N2_8 
REMARK    2  A    between atoms: C3_3  and  C4_4 
REMARK    3  A    between atoms: C4_4  and  N1_5 
REMARK    4  A    between atoms: N1_5  and  C5_6 
REMARK    5  A    between atoms: N2_8  and  C6_9 
REMARK    6  A    between atoms: C11_14  and  O2_15 
REMARK    7  A    between atoms: O2_15  and  C12_16 
REMARK    8  A    between atoms: C12_16  and  C13_17 
ROOT
HETATM    1  C6  UNL     1      24.957   1.612  52.113  1.00  0.00     0.067 A 
HETATM    2  C7  UNL     1      26.282   2.001  52.226  1.00  0.00     0.048 A 
HETATM    3  C8  UNL     1      27.101   1.350  53.125  1.00  0.00     0.025 A 
HETATM    4  C9  UNL     1      26.623   0.322  53.907  1.00  0.00     0.068 A 
HETATM    5  C10 UNL     1      25.318  -0.009  53.748  1.00  0.00     0.071 A 
HETATM    6  C11 UNL     1      24.423   0.574  52.886  1.00  0.00     0.097 A 
HETATM    7  N3  UNL     1      27.344  -0.317  54.761  1.00  0.00    -0.268 NA
HETATM    8  C14 UNL     1      28.728   0.053  54.913  1.00  0.00     0.298 C 
HETATM    9  N4  UNL     1      29.159   0.787  53.748  1.00  0.00    -0.265 NA
HETATM   10  C15 UNL     1      28.358   1.673  53.275  1.00  0.00     0.095 C 
ENDROOT
BRANCH   1  11
HETATM   11  N2  UNL     1      24.188   2.357  51.145  1.00  0.00    -0.358 N 
HETATM   12  H9  UNL     1      23.825   1.924  50.252  1.00  0.00     0.166 HD
BRANCH  11  13
HETATM   13  C2  UNL     1      23.898   3.723  51.380  1.00  0.00     0.003 C 
HETATM   14  C1  UNL     1      23.037   4.277  52.479  1.00  0.00     0.068 C 
HETATM   15  C3  UNL     1      24.433   4.591  50.558  1.00  0.00     0.017 C 
BRANCH  15  16
HETATM   16  C4  UNL     1      25.316   4.264  49.403  1.00  0.00     0.151 C 
BRANCH  16  17
HETATM   17  N1  UNL     1      26.635   4.815  49.715  1.00  0.00    -0.365 N 
HETATM   18  H7  UNL     1      27.065   4.856  50.672  1.00  0.00     0.162 HD
BRANCH  17  19
HETATM   19  C5  UNL     1      27.348   5.324  48.591  1.00  0.00     0.348 C 
HETATM   20  O1  UNL     1      28.516   4.813  48.527  1.00  0.00    -0.284 OA
ENDBRANCH  17  19
ENDBRANCH  16  17
ENDBRANCH  15  16
ENDBRANCH  11  13
ENDBRANCH   1  11
BRANCH   6  21
HETATM   21  O2  UNL     1      23.114   0.376  52.599  1.00  0.00    -0.346 OA
BRANCH  21  22
HETATM   22  C12 UNL     1      22.181  -0.535  53.049  1.00  0.00     0.207 C 
BRANCH  22  23
HETATM   23  C13 UNL     1      21.558  -0.138  54.362  1.00  0.00     0.248 C 
HETATM   24  F1  UNL     1      22.239  -0.839  55.355  1.00  0.00    -0.253 F 
ENDBRANCH  22  23
ENDBRANCH  21  22
ENDBRANCH   6  21
TORSDOF 8
ENDMDL
MODEL 5
REMARK VINA RESULT:      -6.8      2.497      6.178
REMARK  8 active torsions:
REMARK  status: ('A' for Active; 'I' for Inactive)
REMARK    1  A    between atoms: C2_2  and  N2_8 
REMARK    2  A    between atoms: C3_3  and  C4_4 
REMARK    3  A    between atoms: C4_4  and  N1_5 
REMARK    4  A    between atoms: N1_5  and  C5_6 
REMARK    5  A    between atoms: N2_8  and  C6_9 
REMARK    6  A    between atoms: C11_14  and  O2_15 
REMARK    7  A    between atoms: O2_15  and  C12_16 
REMARK    8  A    between atoms: C12_16  and  C13_17 
ROOT
HETATM    1  C6  UNL     1      24.554   0.414  53.253  1.00  0.00     0.067 A 
HETATM    2  C7  UNL     1      25.675  -0.262  53.709  1.00  0.00     0.048 A 
HETATM    3  C8  UNL     1      26.837   0.442  53.947  1.00  0.00     0.025 A 
HETATM    4  C9  UNL     1      26.899   1.803  53.740  1.00  0.00     0.068 A 
HETATM    5  C10 UNL     1      25.769   2.403  53.293  1.00  0.00     0.071 A 
HETATM    6  C11 UNL     1      24.568   1.796  53.026  1.00  0.00     0.097 A 
HETATM    7  N3  UNL     1      27.958   2.506  53.946  1.00  0.00    -0.268 NA
HETATM    8  C14 UNL     1      29.147   1.845  54.420  1.00  0.00     0.298 C 
HETATM    9  N4  UNL     1      28.790   0.574  55.002  1.00  0.00    -0.265 NA
HETATM   10  C15 UNL     1      27.923  -0.141  54.378  1.00  0.00     0.095 C 
ENDROOT
BRANCH   1  11
HETATM   11  N2  UNL     1      23.394  -0.416  53.036  1.00  0.00    -0.358 N 
HETATM   12  H9  UNL     1      23.138  -0.796  52.084  1.00  0.00     0.166 HD
BRANCH  11  13
HETATM   13  C2  UNL     1      22.553  -0.746  54.126  1.00  0.00     0.003 C 
HETATM   14  C1  UNL     1      22.985  -1.318  55.446  1.00  0.00     0.068 C 
HETATM   15  C3  UNL     1      21.270  -0.531  53.970  1.00  0.00     0.017 C 
BRANCH  15  16
HETATM   16  C4  UNL     1      20.626   0.028  52.748  1.00  0.00     0.151 C 
BRANCH  16  17
HETATM   17  N1  UNL     1      20.331   1.432  53.036  1.00  0.00    -0.365 N 
HETATM   18  H7  UNL     1      20.681   1.968  53.868  1.00  0.00     0.162 HD
BRANCH  17  19
HETATM   19  C5  UNL     1      19.496   2.073  52.075  1.00  0.00     0.348 C 
HETATM   20  O1  UNL     1      19.356   3.312  52.349  1.00  0.00    -0.284 OA
ENDBRANCH  17  19
ENDBRANCH  16  17
ENDBRANCH  15  16
ENDBRANCH  11  13
ENDBRANCH   1  11
BRANCH   6  21
HETATM   21  O2  UNL     1      23.362   2.228  52.585  1.00  0.00    -0.346 OA
BRANCH  21  22
HETATM   22  C12 UNL     1      22.985   3.208  51.691  1.00  0.00     0.207 C 
BRANCH  22  23
HETATM   23  C13 UNL     1      22.641   4.513  52.362  1.00  0.00     0.248 C 
HETATM   24  F1  UNL     1      23.826   5.238  52.455  1.00  0.00    -0.253 F 
ENDBRANCH  22  23
ENDBRANCH  21  22
ENDBRANCH   6  21
TORSDOF 8
ENDMDL
MODEL 6
REMARK VINA RESULT:      -6.6      3.054      6.728
REMARK  8 active torsions:
REMARK  status: ('A' for Active; 'I' for Inactive)
REMARK    1  A    between atoms: C2_2  and  N2_8 
REMARK    2  A    between atoms: C3_3  and  C4_4 
REMARK    3  A    between atoms: C4_4  and  N1_5 
REMARK    4  A    between atoms: N1_5  and  C5_6 
REMARK    5  A    between atoms: N2_8  and  C6_9 
REMARK    6  A    between atoms: C11_14  and  O2_15 
REMARK    7  A    between atoms: O2_15  and  C12_16 
REMARK    8  A    between atoms: C12_16  and  C13_17 
ROOT
HETATM    1  C6  UNL     1      24.259   1.302  52.903  1.00  0.00     0.067 A 
HETATM    2  C7  UNL     1      25.419   2.051  53.017  1.00  0.00     0.048 A 
HETATM    3  C8  UNL     1      26.529   1.488  53.612  1.00  0.00     0.025 A 
HETATM    4  C9  UNL     1      26.502   0.197  54.091  1.00  0.00     0.068 A 
HETATM    5  C10 UNL     1      25.336  -0.480  53.948  1.00  0.00     0.071 A 
HETATM    6  C11 UNL     1      24.180  -0.014  53.375  1.00  0.00     0.097 A 
HETATM    7  N3  UNL     1      27.508  -0.375  54.654  1.00  0.00    -0.268 NA
HETATM    8  C14 UNL     1      28.736   0.366  54.795  1.00  0.00     0.298 C 
HETATM    9  N4  UNL     1      28.738   1.472  53.869  1.00  0.00    -0.265 NA
HETATM   10  C15 UNL     1      27.650   2.146  53.747  1.00  0.00     0.095 C 
ENDROOT
BRANCH   1  11
HETATM   11  N2  UNL     1      23.159   1.985  52.266  1.00  0.00    -0.358 N 
HETATM   12  H9  UNL     1      22.330   2.355  52.808  1.00  0.00     0.166 HD
BRANCH  11  13
HETATM   13  C2  UNL     1      23.169   2.178  50.864  1.00  0.00     0.003 C 
HETATM   14  C1  UNL     1      24.198   2.933  50.073  1.00  0.00     0.068 C 
HETATM   15  C3  UNL     1      22.182   1.644  50.187  1.00  0.00     0.017 C 
BRANCH  15  16
HETATM   16  C4  UNL     1      21.058   0.857  50.765  1.00  0.00     0.151 C 
BRANCH  16  17
HETATM   17  N1  UNL     1      19.909   1.761  50.841  1.00  0.00    -0.365 N 
HETATM   18  H7  UNL     1      19.447   2.225  50.021  1.00  0.00     0.162 HD
BRANCH  17  19
HETATM   19  C5  UNL     1      19.422   1.993  52.160  1.00  0.00     0.348 C 
HETATM   20  O1  UNL     1      20.114   2.889  52.749  1.00  0.00    -0.284 OA
ENDBRANCH  17  19
ENDBRANCH  16  17
ENDBRANCH  15  16
ENDBRANCH  11  13
ENDBRANCH   1  11
BRANCH   6  21
HETATM   21  O2  UNL     1      22.951  -0.538  53.151  1.00  0.00    -0.346 OA
BRANCH  21  22
HETATM   22  C12 UNL     1      22.148  -1.391  53.879  1.00  0.00     0.207 C 
BRANCH  22  23
HETATM   23  C13 UNL     1      20.808  -0.790  54.216  1.00  0.00     0.248 C 
HETATM   24  F1  UNL     1      21.058   0.485  54.719  1.00  0.00    -0.253 F 
ENDBRANCH  22  23
ENDBRANCH  21  22
ENDBRANCH   6  21
TORSDOF 8
ENDMDL
MODEL 7
REMARK VINA RESULT:      -6.6      2.147      5.863
REMARK  8 active torsions:
REMARK  status: ('A' for Active; 'I' for Inactive)
REMARK    1  A    between atoms: C2_2  and  N2_8 
REMARK    2  A    between atoms: C3_3  and  C4_4 
REMARK    3  A    between atoms: C4_4  and  N1_5 
REMARK    4  A    between atoms: N1_5  and  C5_6 
REMARK    5  A    between atoms: N2_8  and  C6_9 
REMARK    6  A    between atoms: C11_14  and  O2_15 
REMARK    7  A    between atoms: O2_15  and  C12_16 
REMARK    8  A    between atoms: C12_16  and  C13_17 
ROOT
HETATM    1  C6  UNL     1      24.761   1.620  51.709  1.00  0.00     0.067 A 
HETATM    2  C7  UNL     1      24.902   0.690  52.728  1.00  0.00     0.048 A 
HETATM    3  C8  UNL     1      26.139   0.510  53.310  1.00  0.00     0.025 A 
HETATM    4  C9  UNL     1      27.232   1.239  52.896  1.00  0.00     0.068 A 
HETATM    5  C10 UNL     1      27.027   2.131  51.896  1.00  0.00     0.071 A 
HETATM    6  C11 UNL     1      25.842   2.384  51.253  1.00  0.00     0.097 A 
HETATM    7  N3  UNL     1      28.408   1.110  53.405  1.00  0.00    -0.268 NA
HETATM    8  C14 UNL     1      28.601   0.155  54.466  1.00  0.00     0.298 C 
HETATM    9  N4  UNL     1      27.328  -0.163  55.064  1.00  0.00    -0.265 NA
HETATM   10  C15 UNL     1      26.332  -0.350  54.273  1.00  0.00     0.095 C 
ENDROOT
BRANCH   1  11
HETATM   11  N2  UNL     1      23.427   1.728  51.170  1.00  0.00    -0.358 N 
HETATM   12  H9  UNL     1      23.154   1.308  50.240  1.00  0.00     0.166 HD
BRANCH  11  13
HETATM   13  C2  UNL     1      22.429   2.419  51.899  1.00  0.00     0.003 C 
HETATM   14  C1  UNL     1      22.423   3.883  52.239  1.00  0.00     0.068 C 
HETATM   15  C3  UNL     1      21.408   1.714  52.320  1.00  0.00     0.017 C 
BRANCH  15  16
HETATM   16  C4  UNL     1      21.211   0.254  52.097  1.00  0.00     0.151 C 
BRANCH  16  17
HETATM   17  N1  UNL     1      20.904  -0.331  53.403  1.00  0.00    -0.365 N 
HETATM   18  H7  UNL     1      20.044  -0.130  53.971  1.00  0.00     0.162 HD
BRANCH  17  19
HETATM   19  C5  UNL     1      21.887  -1.239  53.894  1.00  0.00     0.348 C 
HETATM   20  O1  UNL     1      21.549  -1.701  55.034  1.00  0.00    -0.284 OA
ENDBRANCH  17  19
ENDBRANCH  16  17
ENDBRANCH  15  16
ENDBRANCH  11  13
ENDBRANCH   1  11
BRANCH   6  21
HETATM   21  O2  UNL     1      25.460   3.219  50.257  1.00  0.00    -0.346 OA
BRANCH  21  22
HETATM   22  C12 UNL     1      25.509   4.590  50.111  1.00  0.00     0.207 C 
BRANCH  22  23
HETATM   23  C13 UNL     1      26.418   5.029  48.993  1.00  0.00     0.248 C 
HETATM   24  F1  UNL     1      27.386   4.037  48.853  1.00  0.00    -0.253 F 
ENDBRANCH  22  23
ENDBRANCH  21  22
ENDBRANCH   6  21
TORSDOF 8
ENDMDL
MODEL 8
REMARK VINA RESULT:      -6.3      2.936      4.713
REMARK  8 active torsions:
REMARK  status: ('A' for Active; 'I' for Inactive)
REMARK    1  A    between atoms: C2_2  and  N2_8 
REMARK    2  A    between atoms: C3_3  and  C4_4 
REMARK    3  A    between atoms: C4_4  and  N1_5 
REMARK    4  A    between atoms: N1_5  and  C5_6 
REMARK    5  A    between atoms: N2_8  and  C6_9 
REMARK    6  A    between atoms: C11_14  and  O2_15 
REMARK    7  A    between atoms: O2_15  and  C12_16 
REMARK    8  A    between atoms: C12_16  and  C13_17 
ROOT
HETATM    1  C6  UNL     1      24.554   1.883  52.944  1.00  0.00     0.067 A 
HETATM    2  C7  UNL     1      23.171   1.962  52.887  1.00  0.00     0.048 A 
HETATM    3  C8  UNL     1      22.418   0.870  53.264  1.00  0.00     0.025 A 
HETATM    4  C9  UNL     1      23.016  -0.293  53.695  1.00  0.00     0.068 A 
HETATM    5  C10 UNL     1      24.372  -0.305  53.727  1.00  0.00     0.071 A 
HETATM    6  C11 UNL     1      25.210   0.723  53.375  1.00  0.00     0.097 A 
HETATM    7  N3  UNL     1      22.360  -1.340  54.057  1.00  0.00    -0.268 NA
HETATM    8  C14 UNL     1      20.920  -1.303  54.014  1.00  0.00     0.298 C 
HETATM    9  N4  UNL     1      20.476   0.069  53.991  1.00  0.00    -0.265 NA
HETATM   10  C15 UNL     1      21.112   0.886  53.231  1.00  0.00     0.095 C 
ENDROOT
BRANCH   1  11
HETATM   11  N2  UNL     1      25.246   3.079  52.529  1.00  0.00    -0.358 N 
HETATM   12  H9  UNL     1      25.722   3.727  53.214  1.00  0.00     0.166 HD
BRANCH  11  13
HETATM   13  C2  UNL     1      25.301   3.416  51.155  1.00  0.00     0.003 C 
HETATM   14  C1  UNL     1      26.058   2.683  50.084  1.00  0.00     0.068 C 
HETATM   15  C3  UNL     1      24.625   4.474  50.778  1.00  0.00     0.017 C 
BRANCH  15  16
HETATM   16  C4  UNL     1      23.808   5.345  51.668  1.00  0.00     0.151 C 
BRANCH  16  17
HETATM   17  N1  UNL     1      24.455   6.657  51.678  1.00  0.00    -0.365 N 
HETATM   18  H7  UNL     1      24.551   7.281  52.517  1.00  0.00     0.162 HD
BRANCH  17  19
HETATM   19  C5  UNL     1      24.980   7.071  50.419  1.00  0.00     0.348 C 
HETATM   20  O1  UNL     1      26.033   7.775  50.575  1.00  0.00    -0.284 OA
ENDBRANCH  17  19
ENDBRANCH  16  17
ENDBRANCH  15  16
ENDBRANCH  11  13
ENDBRANCH   1  11
BRANCH   6  21
HETATM   21  O2  UNL     1      26.554   0.885  53.345  1.00  0.00    -0.346 OA
BRANCH  21  22
HETATM   22  C12 UNL     1      27.551   0.628  54.263  1.00  0.00     0.207 C 
BRANCH  22  23
HETATM   23  C13 UNL     1      28.919   0.545  53.636  1.00  0.00     0.248 C 
HETATM   24  F1  UNL     1      29.001  -0.703  53.022  1.00  0.00    -0.253 F 
ENDBRANCH  22  23
ENDBRANCH  21  22
ENDBRANCH   6  21
TORSDOF 8
ENDMDL
MODEL 9
REMARK VINA RESULT:      -5.9      8.013     10.985
REMARK  8 active torsions:
REMARK  status: ('A' for Active; 'I' for Inactive)
REMARK    1  A    between atoms: C2_2  and  N2_8 
REMARK    2  A    between atoms: C3_3  and  C4_4 
REMARK    3  A    between atoms: C4_4  and  N1_5 
REMARK    4  A    between atoms: N1_5  and  C5_6 
REMARK    5  A    between atoms: N2_8  and  C6_9 
REMARK    6  A    between atoms: C11_14  and  O2_15 
REMARK    7  A    between atoms: O2_15  and  C12_16 
REMARK    8  A    between atoms: C12_16  and  C13_17 
ROOT
HETATM    1  C6  UNL     1      30.378   6.167  48.436  1.00  0.00     0.067 A 
HETATM    2  C7  UNL     1      30.656   5.010  47.725  1.00  0.00     0.048 A 
HETATM    3  C8  UNL     1      31.948   4.770  47.307  1.00  0.00     0.025 A 
HETATM    4  C9  UNL     1      32.963   5.659  47.585  1.00  0.00     0.068 A 
HETATM    5  C10 UNL     1      32.624   6.771  48.283  1.00  0.00     0.071 A 
HETATM    6  C11 UNL     1      31.375   7.102  48.742  1.00  0.00     0.097 A 
HETATM    7  N3  UNL     1      34.183   5.483  47.217  1.00  0.00    -0.268 NA
HETATM    8  C14 UNL     1      34.518   4.293  46.476  1.00  0.00     0.298 C 
HETATM    9  N4  UNL     1      33.490   3.301  46.671  1.00  0.00    -0.265 NA
HETATM   10  C15 UNL     1      32.268   3.697  46.635  1.00  0.00     0.095 C 
ENDROOT
BRANCH   1  11
HETATM   11  N2  UNL     1      28.997   6.322  48.825  1.00  0.00    -0.358 N 
HETATM   12  H9  UNL     1      28.626   5.976  49.752  1.00  0.00     0.166 HD
BRANCH  11  13
HETATM   13  C2  UNL     1      28.087   6.958  47.947  1.00  0.00     0.003 C 
HETATM   14  C1  UNL     1      28.428   7.668  46.668  1.00  0.00     0.068 C 
HETATM   15  C3  UNL     1      26.821   6.925  48.282  1.00  0.00     0.017 C 
BRANCH  15  16
HETATM   16  C4  UNL     1      26.262   6.278  49.502  1.00  0.00     0.151 C 
BRANCH  16  17
HETATM   17  N1  UNL     1      26.140   7.328  50.514  1.00  0.00    -0.365 N 
HETATM   18  H7  UNL     1      26.634   7.338  51.441  1.00  0.00     0.162 HD
BRANCH  17  19
HETATM   19  C5  UNL     1      25.268   8.398  50.159  1.00  0.00     0.348 C 
HETATM   20  O1  UNL     1      24.120   8.245  50.696  1.00  0.00    -0.284 OA
ENDBRANCH  17  19
ENDBRANCH  16  17
ENDBRANCH  15  16
ENDBRANCH  11  13
ENDBRANCH   1  11
BRANCH   6  21
HETATM   21  O2  UNL     1      30.865   8.145  49.441  1.00  0.00    -0.346 OA
BRANCH  21  22
HETATM   22  C12 UNL     1      30.878   9.509  49.235  1.00  0.00     0.207 C 
BRANCH  22  23
HETATM   23  C13 UNL     1      29.499  10.115  49.231  1.00  0.00     0.248 C 
HETATM   24  F1  UNL     1      28.716   9.331  50.076  1.00  0.00    -0.253 F 
ENDBRANCH  22  23
ENDBRANCH  21  22
ENDBRANCH   6  21
TORSDOF 8
ENDMDL
