MODEL 1
REMARK VINA RESULT:      -7.3      0.000      0.000
REMARK  4 active torsions:
REMARK  status: ('A' for Active; 'I' for Inactive)
REMARK    1  A    between atoms: C1_2  and  C2_3 
REMARK    2  A    between atoms: S1_8  and  N1_9 
REMARK       I    between atoms: N1_9  and  C7_10 
REMARK    3  A    between atoms: C7_10  and  C8_12 
REMARK    4  A    between atoms: N2_13  and  C9_14 
ROOT
HETATM    1  N1  UNL     1      26.752   3.514  51.066  1.00  0.00    -0.302 N 
HETATM    2  C7  UNL     1      26.389   3.799  49.708  1.00  0.00     0.268 C 
HETATM    3  O2  UNL     1      25.502   2.980  49.288  1.00  0.00    -0.266 OA
HETATM    4  H6  UNL     1      27.478   4.126  51.520  1.00  0.00     0.176 HD
ENDROOT
BRANCH   1   5
HETATM    5  S1  UNL     1      25.843   2.119  51.693  1.00  0.00    -0.096 SA
HETATM    6  C6  UNL     1      24.407   2.452  52.395  1.00  0.00     0.055 C 
HETATM    7  C5  UNL     1      23.462   1.478  52.993  1.00  0.00     0.008 C 
HETATM    8  C4  UNL     1      23.802   0.259  53.381  1.00  0.00     0.001 C 
HETATM    9  C3  UNL     1      24.986  -0.557  53.415  1.00  0.00     0.011 C 
HETATM   10  C2  UNL     1      26.032  -0.422  52.664  1.00  0.00    -0.010 C 
HETATM   11  C15 UNL     1      26.547   0.439  51.568  1.00  0.00     0.131 C 
BRANCH  10  12
HETATM   12  C1  UNL     1      27.016  -1.469  53.029  1.00  0.00     0.266 C 
HETATM   13  O1  UNL     1      28.005  -1.228  53.765  1.00  0.00    -0.302 OA
ENDBRANCH  10  12
ENDBRANCH   1   5
BRANCH   2  14
HETATM   14  C8  UNL     1      26.965   4.887  48.924  1.00  0.00     0.192 C 
HETATM   15  N2  UNL     1      28.250   4.828  48.816  1.00  0.00    -0.256 NA
BRANCH  15  16
HETATM   16  C9  UNL     1      28.932   5.835  48.073  1.00  0.00     0.058 A 
HETATM   17  C10 UNL     1      28.347   6.989  47.581  1.00  0.00     0.031 A 
HETATM   18  C11 UNL     1      29.140   7.866  46.881  1.00  0.00     0.004 A 
HETATM   19  C12 UNL     1      30.489   7.644  46.652  1.00  0.00     0.019 A 
HETATM   20  C13 UNL     1      31.060   6.483  47.152  1.00  0.00     0.013 A 
HETATM   21 BR1  UNL     1      32.916   6.227  46.808  1.00  0.00    -0.051 Br
HETATM   22  C14 UNL     1      30.272   5.579  47.865  1.00  0.00     0.050 A 
ENDBRANCH  15  16
ENDBRANCH   2  14
TORSDOF 4
ENDMDL
MODEL 2
REMARK VINA RESULT:      -7.0      1.541      1.742
REMARK  4 active torsions:
REMARK  status: ('A' for Active; 'I' for Inactive)
REMARK    1  A    between atoms: C1_2  and  C2_3 
REMARK    2  A    between atoms: S1_8  and  N1_9 
REMARK       I    between atoms: N1_9  and  C7_10 
REMARK    3  A    between atoms: C7_10  and  C8_12 
REMARK    4  A    between atoms: N2_13  and  C9_14 
ROOT
HETATM    1  N1  UNL     1      24.905   3.917  51.763  1.00  0.00    -0.302 N 
HETATM    2  C7  UNL     1      25.159   3.986  50.354  1.00  0.00     0.268 C 
HETATM    3  O2  UNL     1      24.747   2.932  49.761  1.00  0.00    -0.266 OA
HETATM    4  H6  UNL     1      25.202   4.733  52.358  1.00  0.00     0.176 HD
ENDROOT
BRANCH   1   5
HETATM    5  S1  UNL     1      24.107   2.387  52.196  1.00  0.00    -0.096 SA
HETATM    6  C6  UNL     1      22.479   2.431  52.310  1.00  0.00     0.055 C 
HETATM    7  C5  UNL     1      21.580   1.302  52.653  1.00  0.00     0.008 C 
HETATM    8  C4  UNL     1      21.976   0.204  53.277  1.00  0.00     0.001 C 
HETATM    9  C3  UNL     1      23.195  -0.333  53.818  1.00  0.00     0.011 C 
HETATM   10  C2  UNL     1      24.398  -0.008  53.467  1.00  0.00    -0.010 C 
HETATM   11  C15 UNL     1      25.108   0.896  52.525  1.00  0.00     0.131 C 
BRANCH  10  12
HETATM   12  C1  UNL     1      25.358  -0.800  54.273  1.00  0.00     0.266 C 
HETATM   13  O1  UNL     1      25.066  -1.246  55.411  1.00  0.00    -0.302 OA
ENDBRANCH  10  12
ENDBRANCH   1   5
BRANCH   2  14
HETATM   14  C8  UNL     1      25.802   5.121  49.699  1.00  0.00     0.192 C 
HETATM   15  N2  UNL     1      26.886   4.814  49.068  1.00  0.00    -0.256 NA
BRANCH  15  16
HETATM   16  C9  UNL     1      27.607   5.836  48.387  1.00  0.00     0.058 A 
HETATM   17  C10 UNL     1      27.054   7.013  47.910  1.00  0.00     0.031 A 
HETATM   18  C11 UNL     1      27.884   7.903  47.272  1.00  0.00     0.004 A 
HETATM   19  C12 UNL     1      29.238   7.673  47.090  1.00  0.00     0.019 A 
HETATM   20  C13 UNL     1      29.778   6.490  47.574  1.00  0.00     0.013 A 
HETATM   21 BR1  UNL     1      31.643   6.224  47.296  1.00  0.00    -0.051 Br
HETATM   22  C14 UNL     1      28.951   5.572  48.224  1.00  0.00     0.050 A 
ENDBRANCH  15  16
ENDBRANCH   2  14
TORSDOF 4
ENDMDL
MODEL 3
REMARK VINA RESULT:      -7.0      1.700      1.990
REMARK  4 active torsions:
REMARK  status: ('A' for Active; 'I' for Inactive)
REMARK    1  A    between atoms: C1_2  and  C2_3 
REMARK    2  A    between atoms: S1_8  and  N1_9 
REMARK       I    between atoms: N1_9  and  C7_10 
REMARK    3  A    between atoms: C7_10  and  C8_12 
REMARK    4  A    between atoms: N2_13  and  C9_14 
ROOT
HETATM    1  N1  UNL     1      25.929   4.065  50.979  1.00  0.00    -0.302 N 
HETATM    2  C7  UNL     1      26.558   3.874  49.705  1.00  0.00     0.268 C 
HETATM    3  O2  UNL     1      26.580   2.637  49.384  1.00  0.00    -0.266 OA
HETATM    4  H6  UNL     1      25.853   5.048  51.348  1.00  0.00     0.176 HD
ENDROOT
BRANCH   1   5
HETATM    5  S1  UNL     1      25.400   2.513  51.671  1.00  0.00    -0.096 SA
HETATM    6  C6  UNL     1      23.804   2.185  51.564  1.00  0.00     0.055 C 
HETATM    7  C5  UNL     1      23.111   0.969  52.058  1.00  0.00     0.008 C 
HETATM    8  C4  UNL     1      23.607   0.158  52.978  1.00  0.00     0.001 C 
HETATM    9  C3  UNL     1      24.793   0.059  53.784  1.00  0.00     0.011 C 
HETATM   10  C2  UNL     1      25.946   0.585  53.519  1.00  0.00    -0.010 C 
HETATM   11  C15 UNL     1      26.611   1.414  52.481  1.00  0.00     0.131 C 
BRANCH  10  12
HETATM   12  C1  UNL     1      26.888   0.238  54.610  1.00  0.00     0.266 C 
HETATM   13  O1  UNL     1      27.914   0.922  54.849  1.00  0.00    -0.302 OA
ENDBRANCH  10  12
ENDBRANCH   1   5
BRANCH   2  14
HETATM   14  C8  UNL     1      27.095   4.962  48.892  1.00  0.00     0.192 C 
HETATM   15  N2  UNL     1      28.381   4.938  48.773  1.00  0.00    -0.256 NA
BRANCH  15  16
HETATM   16  C9  UNL     1      29.026   5.948  48.002  1.00  0.00     0.058 A 
HETATM   17  C10 UNL     1      30.374   5.965  47.687  1.00  0.00     0.031 A 
HETATM   18  C11 UNL     1      30.846   7.011  46.933  1.00  0.00     0.004 A 
HETATM   19  C12 UNL     1      30.035   8.039  46.479  1.00  0.00     0.019 A 
HETATM   20  C13 UNL     1      28.686   8.008  46.802  1.00  0.00     0.013 A 
HETATM   21 BR1  UNL     1      27.618   9.444  46.153  1.00  0.00    -0.051 Br
HETATM   22  C14 UNL     1      28.186   6.953  47.568  1.00  0.00     0.050 A 
ENDBRANCH  15  16
ENDBRANCH   2  14
TORSDOF 4
ENDMDL
MODEL 4
REMARK VINA RESULT:      -7.0      3.436      4.428
REMARK  4 active torsions:
REMARK  status: ('A' for Active; 'I' for Inactive)
REMARK    1  A    between atoms: C1_2  and  C2_3 
REMARK    2  A    between atoms: S1_8  and  N1_9 
REMARK       I    between atoms: N1_9  and  C7_10 
REMARK    3  A    between atoms: C7_10  and  C8_12 
REMARK    4  A    between atoms: N2_13  and  C9_14 
ROOT
HETATM    1  N1  UNL     1      22.781   1.962  50.474  1.00  0.00    -0.302 N 
HETATM    2  C7  UNL     1      23.369   3.014  51.250  1.00  0.00     0.268 C 
HETATM    3  O2  UNL     1      23.108   2.868  52.493  1.00  0.00    -0.266 OA
HETATM    4  H6  UNL     1      22.929   1.977  49.431  1.00  0.00     0.176 HD
ENDROOT
BRANCH   1   5
HETATM    5  S1  UNL     1      21.890   0.822  51.509  1.00  0.00    -0.096 SA
HETATM    6  C6  UNL     1      20.262   0.940  51.475  1.00  0.00     0.055 C 
HETATM    7  C5  UNL     1      19.294   0.114  52.238  1.00  0.00     0.008 C 
HETATM    8  C4  UNL     1      19.604  -0.573  53.326  1.00  0.00     0.001 C 
HETATM    9  C3  UNL     1      20.765  -0.816  54.138  1.00  0.00     0.011 C 
HETATM   10  C2  UNL     1      22.000  -0.710  53.762  1.00  0.00    -0.010 C 
HETATM   11  C15 UNL     1      22.801  -0.360  52.561  1.00  0.00     0.131 C 
BRANCH  10  12
HETATM   12  C1  UNL     1      22.876  -1.051  54.908  1.00  0.00     0.266 C 
HETATM   13  O1  UNL     1      22.602  -1.984  55.704  1.00  0.00    -0.302 OA
ENDBRANCH  10  12
ENDBRANCH   1   5
BRANCH   2  14
HETATM   14  C8  UNL     1      24.162   4.100  50.680  1.00  0.00     0.192 C 
HETATM   15  N2  UNL     1      25.137   3.698  49.936  1.00  0.00    -0.256 NA
BRANCH  15  16
HETATM   16  C9  UNL     1      25.985   4.664  49.321  1.00  0.00     0.058 A 
HETATM   17  C10 UNL     1      27.317   4.461  49.002  1.00  0.00     0.031 A 
HETATM   18  C11 UNL     1      28.002   5.494  48.410  1.00  0.00     0.004 A 
HETATM   19  C12 UNL     1      27.419   6.718  48.121  1.00  0.00     0.019 A 
HETATM   20  C13 UNL     1      26.084   6.905  48.446  1.00  0.00     0.013 A 
HETATM   21 BR1  UNL     1      25.332   8.604  48.028  1.00  0.00    -0.051 Br
HETATM   22  C14 UNL     1      25.369   5.869  49.049  1.00  0.00     0.050 A 
ENDBRANCH  15  16
ENDBRANCH   2  14
TORSDOF 4
ENDMDL
MODEL 5
REMARK VINA RESULT:      -6.9      3.814      5.059
REMARK  4 active torsions:
REMARK  status: ('A' for Active; 'I' for Inactive)
REMARK    1  A    between atoms: C1_2  and  C2_3 
REMARK    2  A    between atoms: S1_8  and  N1_9 
REMARK       I    between atoms: N1_9  and  C7_10 
REMARK    3  A    between atoms: C7_10  and  C8_12 
REMARK    4  A    between atoms: N2_13  and  C9_14 
ROOT
HETATM    1  N1  UNL     1      23.071   1.812  51.046  1.00  0.00    -0.302 N 
HETATM    2  C7  UNL     1      23.501   3.088  51.540  1.00  0.00     0.268 C 
HETATM    3  O2  UNL     1      23.219   3.219  52.780  1.00  0.00    -0.266 OA
HETATM    4  H6  UNL     1      23.250   1.590  50.033  1.00  0.00     0.176 HD
ENDROOT
BRANCH   1   5
HETATM    5  S1  UNL     1      22.292   0.857  52.330  1.00  0.00    -0.096 SA
HETATM    6  C6  UNL     1      23.277  -0.102  53.211  1.00  0.00     0.055 C 
HETATM    7  C5  UNL     1      22.884  -0.992  54.331  1.00  0.00     0.008 C 
HETATM    8  C4  UNL     1      21.649  -1.423  54.535  1.00  0.00     0.001 C 
HETATM    9  C3  UNL     1      20.357  -1.285  53.920  1.00  0.00     0.011 C 
HETATM   10  C2  UNL     1      19.972  -0.313  53.155  1.00  0.00    -0.010 C 
HETATM   11  C15 UNL     1      20.486   0.954  52.572  1.00  0.00     0.131 C 
BRANCH  10  12
HETATM   12  C1  UNL     1      18.571  -0.564  52.739  1.00  0.00     0.266 C 
HETATM   13  O1  UNL     1      17.922  -1.561  53.143  1.00  0.00    -0.302 OA
ENDBRANCH  10  12
ENDBRANCH   1   5
BRANCH   2  14
HETATM   14  C8  UNL     1      24.174   4.091  50.720  1.00  0.00     0.192 C 
HETATM   15  N2  UNL     1      25.419   3.834  50.498  1.00  0.00    -0.256 NA
BRANCH  15  16
HETATM   16  C9  UNL     1      26.185   4.740  49.709  1.00  0.00     0.058 A 
HETATM   17  C10 UNL     1      27.354   4.416  49.041  1.00  0.00     0.031 A 
HETATM   18  C11 UNL     1      27.978   5.404  48.319  1.00  0.00     0.004 A 
HETATM   19  C12 UNL     1      27.489   6.698  48.233  1.00  0.00     0.019 A 
HETATM   20  C13 UNL     1      26.317   7.007  48.908  1.00  0.00     0.013 A 
HETATM   21 BR1  UNL     1      25.690   8.799  48.756  1.00  0.00    -0.051 Br
HETATM   22  C14 UNL     1      25.667   6.017  49.647  1.00  0.00     0.050 A 
ENDBRANCH  15  16
ENDBRANCH   2  14
TORSDOF 4
ENDMDL
MODEL 6
REMARK VINA RESULT:      -6.8      8.158     11.193
REMARK  4 active torsions:
REMARK  status: ('A' for Active; 'I' for Inactive)
REMARK    1  A    between atoms: C1_2  and  C2_3 
REMARK    2  A    between atoms: S1_8  and  N1_9 
REMARK       I    between atoms: N1_9  and  C7_10 
REMARK    3  A    between atoms: C7_10  and  C8_12 
REMARK    4  A    between atoms: N2_13  and  C9_14 
ROOT
HETATM    1  N1  UNL     1      19.696   1.672  51.338  1.00  0.00    -0.302 N 
HETATM    2  C7  UNL     1      19.160   2.919  51.798  1.00  0.00     0.268 C 
HETATM    3  O2  UNL     1      19.961   3.491  52.613  1.00  0.00    -0.266 OA
HETATM    4  H6  UNL     1      19.121   1.108  50.659  1.00  0.00     0.176 HD
ENDROOT
BRANCH   1   5
HETATM    5  S1  UNL     1      21.290   1.352  52.063  1.00  0.00    -0.096 SA
HETATM    6  C6  UNL     1      22.586   1.756  51.157  1.00  0.00     0.055 C 
HETATM    7  C5  UNL     1      24.015   1.595  51.526  1.00  0.00     0.008 C 
HETATM    8  C4  UNL     1      24.447   0.769  52.465  1.00  0.00     0.001 C 
HETATM    9  C3  UNL     1      23.888  -0.178  53.392  1.00  0.00     0.011 C 
HETATM   10  C2  UNL     1      22.673  -0.187  53.838  1.00  0.00    -0.010 C 
HETATM   11  C15 UNL     1      21.404   0.576  53.711  1.00  0.00     0.131 C 
BRANCH  10  12
HETATM   12  C1  UNL     1      22.519  -1.329  54.771  1.00  0.00     0.266 C 
HETATM   13  O1  UNL     1      21.395  -1.816  55.050  1.00  0.00    -0.302 OA
ENDBRANCH  10  12
ENDBRANCH   1   5
BRANCH   2  14
HETATM   14  C8  UNL     1      17.867   3.452  51.378  1.00  0.00     0.192 C 
HETATM   15  N2  UNL     1      16.894   3.139  52.166  1.00  0.00    -0.256 NA
BRANCH  15  16
HETATM   16  C9  UNL     1      15.580   3.601  51.864  1.00  0.00     0.058 A 
HETATM   17  C10 UNL     1      15.137   3.962  50.602  1.00  0.00     0.031 A 
HETATM   18  C11 UNL     1      13.838   4.388  50.473  1.00  0.00     0.004 A 
HETATM   19  C12 UNL     1      12.962   4.470  51.543  1.00  0.00     0.019 A 
HETATM   20  C13 UNL     1      13.420   4.105  52.801  1.00  0.00     0.013 A 
HETATM   21 BR1  UNL     1      12.175   4.237  54.236  1.00  0.00    -0.051 Br
HETATM   22  C14 UNL     1      14.737   3.670  52.954  1.00  0.00     0.050 A 
ENDBRANCH  15  16
ENDBRANCH   2  14
TORSDOF 4
ENDMDL
MODEL 7
REMARK VINA RESULT:      -6.7      2.320      3.378
REMARK  4 active torsions:
REMARK  status: ('A' for Active; 'I' for Inactive)
REMARK    1  A    between atoms: C1_2  and  C2_3 
REMARK    2  A    between atoms: S1_8  and  N1_9 
REMARK       I    between atoms: N1_9  and  C7_10 
REMARK    3  A    between atoms: C7_10  and  C8_12 
REMARK    4  A    between atoms: N2_13  and  C9_14 
ROOT
HETATM    1  N1  UNL     1      24.411   4.107  51.927  1.00  0.00    -0.302 N 
HETATM    2  C7  UNL     1      24.823   4.056  50.554  1.00  0.00     0.268 C 
HETATM    3  O2  UNL     1      24.533   2.927  50.030  1.00  0.00    -0.266 OA
HETATM    4  H6  UNL     1      24.598   4.992  52.465  1.00  0.00     0.176 HD
ENDROOT
BRANCH   1   5
HETATM    5  S1  UNL     1      23.642   2.580  52.422  1.00  0.00    -0.096 SA
HETATM    6  C6  UNL     1      24.627   1.462  53.089  1.00  0.00     0.055 C 
HETATM    7  C5  UNL     1      24.241   0.117  53.582  1.00  0.00     0.008 C 
HETATM    8  C4  UNL     1      23.136  -0.515  53.219  1.00  0.00     0.001 C 
HETATM    9  C3  UNL     1      22.007  -0.281  52.361  1.00  0.00     0.011 C 
HETATM   10  C2  UNL     1      21.563   0.873  51.977  1.00  0.00    -0.010 C 
HETATM   11  C15 UNL     1      21.858   2.321  52.137  1.00  0.00     0.131 C 
BRANCH  10  12
HETATM   12  C1  UNL     1      20.385   0.661  51.102  1.00  0.00     0.266 C 
HETATM   13  O1  UNL     1      19.370   0.030  51.489  1.00  0.00    -0.302 OA
ENDBRANCH  10  12
ENDBRANCH   1   5
BRANCH   2  14
HETATM   14  C8  UNL     1      25.483   5.159  49.862  1.00  0.00     0.192 C 
HETATM   15  N2  UNL     1      26.554   4.812  49.231  1.00  0.00    -0.256 NA
BRANCH  15  16
HETATM   16  C9  UNL     1      27.289   5.800  48.515  1.00  0.00     0.058 A 
HETATM   17  C10 UNL     1      26.757   6.978  48.018  1.00  0.00     0.031 A 
HETATM   18  C11 UNL     1      27.598   7.832  47.347  1.00  0.00     0.004 A 
HETATM   19  C12 UNL     1      28.944   7.566  47.152  1.00  0.00     0.019 A 
HETATM   20  C13 UNL     1      29.462   6.382  47.656  1.00  0.00     0.013 A 
HETATM   21 BR1  UNL     1      31.316   6.065  47.359  1.00  0.00    -0.051 Br
HETATM   22  C14 UNL     1      28.624   5.500  48.340  1.00  0.00     0.050 A 
ENDBRANCH  15  16
ENDBRANCH   2  14
TORSDOF 4
ENDMDL
MODEL 8
REMARK VINA RESULT:      -6.6      7.314     11.559
REMARK  4 active torsions:
REMARK  status: ('A' for Active; 'I' for Inactive)
REMARK    1  A    between atoms: C1_2  and  C2_3 
REMARK    2  A    between atoms: S1_8  and  N1_9 
REMARK       I    between atoms: N1_9  and  C7_10 
REMARK    3  A    between atoms: C7_10  and  C8_12 
REMARK    4  A    between atoms: N2_13  and  C9_14 
ROOT
HETATM    1  N1  UNL     1      21.274   0.033  52.048  1.00  0.00    -0.302 N 
HETATM    2  C7  UNL     1      20.241  -0.124  53.030  1.00  0.00     0.268 C 
HETATM    3  O2  UNL     1      20.622   0.308  54.170  1.00  0.00    -0.266 OA
HETATM    4  H6  UNL     1      21.074  -0.289  51.065  1.00  0.00     0.176 HD
ENDROOT
BRANCH   1   5
HETATM    5  S1  UNL     1      22.727   0.774  52.759  1.00  0.00    -0.096 SA
HETATM    6  C6  UNL     1      22.906   2.379  52.523  1.00  0.00     0.055 C 
HETATM    7  C5  UNL     1      24.020   3.231  53.007  1.00  0.00     0.008 C 
HETATM    8  C4  UNL     1      25.204   2.765  53.371  1.00  0.00     0.001 C 
HETATM    9  C3  UNL     1      25.866   1.491  53.462  1.00  0.00     0.011 C 
HETATM   10  C2  UNL     1      25.293   0.336  53.572  1.00  0.00    -0.010 C 
HETATM   11  C15 UNL     1      23.935  -0.262  53.655  1.00  0.00     0.131 C 
BRANCH  10  12
HETATM   12  C1  UNL     1      26.342  -0.710  53.635  1.00  0.00     0.266 C 
HETATM   13  O1  UNL     1      27.241  -0.702  54.513  1.00  0.00    -0.302 OA
ENDBRANCH  10  12
ENDBRANCH   1   5
BRANCH   2  14
HETATM   14  C8  UNL     1      18.931  -0.702  52.745  1.00  0.00     0.192 C 
HETATM   15  N2  UNL     1      18.693  -1.796  53.389  1.00  0.00    -0.256 NA
BRANCH  15  16
HETATM   16  C9  UNL     1      17.446  -2.457  53.197  1.00  0.00     0.058 A 
HETATM   17  C10 UNL     1      17.162  -3.749  53.607  1.00  0.00     0.031 A 
HETATM   18  C11 UNL     1      15.908  -4.246  53.347  1.00  0.00     0.004 A 
HETATM   19  C12 UNL     1      14.926  -3.514  52.701  1.00  0.00     0.019 A 
HETATM   20  C13 UNL     1      15.224  -2.221  52.297  1.00  0.00     0.013 A 
HETATM   21 BR1  UNL     1      13.839  -1.259  51.412  1.00  0.00    -0.051 Br
HETATM   22  C14 UNL     1      16.493  -1.697  52.550  1.00  0.00     0.050 A 
ENDBRANCH  15  16
ENDBRANCH   2  14
TORSDOF 4
ENDMDL
MODEL 9
REMARK VINA RESULT:      -6.6      4.060      8.822
REMARK  4 active torsions:
REMARK  status: ('A' for Active; 'I' for Inactive)
REMARK    1  A    between atoms: C1_2  and  C2_3 
REMARK    2  A    between atoms: S1_8  and  N1_9 
REMARK       I    between atoms: N1_9  and  C7_10 
REMARK    3  A    between atoms: C7_10  and  C8_12 
REMARK    4  A    between atoms: N2_13  and  C9_14 
ROOT
HETATM    1  N1  UNL     1      25.738   5.275  50.326  1.00  0.00    -0.302 N 
HETATM    2  C7  UNL     1      26.468   4.105  49.934  1.00  0.00     0.268 C 
HETATM    3  O2  UNL     1      26.999   4.259  48.782  1.00  0.00    -0.266 OA
HETATM    4  H6  UNL     1      25.255   5.264  51.262  1.00  0.00     0.176 HD
ENDROOT
BRANCH   1   5
HETATM    5  S1  UNL     1      25.823   6.533  49.071  1.00  0.00    -0.096 SA
HETATM    6  C6  UNL     1      24.497   6.705  48.134  1.00  0.00     0.055 C 
HETATM    7  C5  UNL     1      24.311   7.673  47.024  1.00  0.00     0.008 C 
HETATM    8  C4  UNL     1      25.307   8.273  46.392  1.00  0.00     0.001 C 
HETATM    9  C3  UNL     1      26.744   8.292  46.441  1.00  0.00     0.011 C 
HETATM   10  C2  UNL     1      27.480   7.977  47.458  1.00  0.00    -0.010 C 
HETATM   11  C15 UNL     1      27.348   7.515  48.864  1.00  0.00     0.131 C 
BRANCH  10  12
HETATM   12  C1  UNL     1      28.905   8.136  47.080  1.00  0.00     0.266 C 
HETATM   13  O1  UNL     1      29.679   7.153  46.967  1.00  0.00    -0.302 OA
ENDBRANCH  10  12
ENDBRANCH   1   5
BRANCH   2  14
HETATM   14  C8  UNL     1      26.582   2.904  50.757  1.00  0.00     0.192 C 
HETATM   15  N2  UNL     1      25.446   2.425  51.140  1.00  0.00    -0.256 NA
BRANCH  15  16
HETATM   16  C9  UNL     1      25.425   1.252  51.950  1.00  0.00     0.058 A 
HETATM   17  C10 UNL     1      26.515   0.432  52.186  1.00  0.00     0.031 A 
HETATM   18  C11 UNL     1      26.333  -0.666  52.992  1.00  0.00     0.004 A 
HETATM   19  C12 UNL     1      25.115  -0.980  53.573  1.00  0.00     0.019 A 
HETATM   20  C13 UNL     1      24.032  -0.148  53.328  1.00  0.00     0.013 A 
HETATM   21 BR1  UNL     1      22.383  -0.626  54.151  1.00  0.00    -0.051 Br
HETATM   22  C14 UNL     1      24.196   0.972  52.511  1.00  0.00     0.050 A 
ENDBRANCH  15  16
ENDBRANCH   2  14
TORSDOF 4
ENDMDL
