MODEL 1
REMARK VINA RESULT:      -7.7      0.000      0.000
REMARK  6 active torsions:
REMARK  status: ('A' for Active; 'I' for Inactive)
REMARK    1  A    between atoms: C2_2  and  C3_3 
REMARK    2  A    between atoms: C2_2  and  C7_8 
REMARK    3  A    between atoms: C3_3  and  C4_4 
REMARK    4  A    between atoms: C4_4  and  C6_6 
REMARK    5  A    between atoms: C10_12  and  C11_13 
REMARK    6  A    between atoms: C11_13  and  C12_14 
ROOT
HETATM    1  C7  UNL     1      24.243   2.634  52.156  1.00  0.00     0.044 A 
HETATM    2  C8  UNL     1      24.751   2.984  50.790  1.00  0.00     0.007 A 
HETATM    3  C9  UNL     1      26.032   2.958  50.417  1.00  0.00     0.138 A 
HETATM    4  O2  UNL     1      27.058   2.585  51.305  1.00  0.00    -0.327 OA
HETATM    5  C10 UNL     1      26.708   2.231  52.623  1.00  0.00     0.053 A 
HETATM    6  C18 UNL     1      25.428   2.268  52.960  1.00  0.00     0.015 A 
ENDROOT
BRANCH   1   7
HETATM    7  C2  UNL     1      23.250   1.555  52.118  1.00  0.00    -0.021 C 
HETATM    8  C1  UNL     1      22.697   1.117  51.015  1.00  0.00     0.012 C 
BRANCH   7   9
HETATM    9  C3  UNL     1      22.897   0.973  53.424  1.00  0.00     0.022 C 
BRANCH   9  10
HETATM   10  C4  UNL     1      23.206  -0.499  53.542  1.00  0.00     0.044 C 
HETATM   11  C5  UNL     1      24.261  -0.810  54.563  1.00  0.00     0.017 C 
BRANCH  10  12
HETATM   12  C6  UNL     1      21.951  -1.181  53.970  1.00  0.00     0.235 C 
HETATM   13  O1  UNL     1      21.302  -1.660  54.887  1.00  0.00    -0.306 OA
ENDBRANCH  10  12
ENDBRANCH   9  10
ENDBRANCH   7   9
ENDBRANCH   1   7
BRANCH   5  14
HETATM   14  C11 UNL     1      27.758   1.838  53.565  1.00  0.00     0.103 C 
BRANCH  14  15
HETATM   15  C12 UNL     1      28.228   0.440  53.419  1.00  0.00    -0.052 A 
HETATM   16  C13 UNL     1      27.340  -0.510  52.954  1.00  0.00     0.007 A 
HETATM   17  C14 UNL     1      27.669  -1.832  52.781  1.00  0.00     0.001 A 
HETATM   18  C15 UNL     1      28.958  -2.246  53.086  1.00  0.00     0.000 A 
HETATM   19  C16 UNL     1      29.863  -1.316  53.552  1.00  0.00     0.001 A 
HETATM   20  C17 UNL     1      29.520   0.017  53.722  1.00  0.00     0.007 A 
ENDBRANCH  14  15
ENDBRANCH   5  14
TORSDOF 6
ENDMDL
MODEL 2
REMARK VINA RESULT:      -7.7      2.440      6.140
REMARK  6 active torsions:
REMARK  status: ('A' for Active; 'I' for Inactive)
REMARK    1  A    between atoms: C2_2  and  C3_3 
REMARK    2  A    between atoms: C2_2  and  C7_8 
REMARK    3  A    between atoms: C3_3  and  C4_4 
REMARK    4  A    between atoms: C4_4  and  C6_6 
REMARK    5  A    between atoms: C10_12  and  C11_13 
REMARK    6  A    between atoms: C11_13  and  C12_14 
ROOT
HETATM    1  C7  UNL     1      26.042   2.070  53.109  1.00  0.00     0.044 A 
HETATM    2  C8  UNL     1      24.562   2.305  53.113  1.00  0.00     0.007 A 
HETATM    3  C9  UNL     1      23.849   2.733  52.070  1.00  0.00     0.138 A 
HETATM    4  O2  UNL     1      24.446   3.013  50.827  1.00  0.00    -0.327 OA
HETATM    5  C10 UNL     1      25.836   2.831  50.693  1.00  0.00     0.053 A 
HETATM    6  C18 UNL     1      26.513   2.405  51.748  1.00  0.00     0.015 A 
ENDROOT
BRANCH   1   7
HETATM    7  C2  UNL     1      26.387   0.695  53.487  1.00  0.00    -0.021 C 
HETATM    8  C1  UNL     1      25.621  -0.067  54.227  1.00  0.00     0.012 C 
BRANCH   7   9
HETATM    9  C3  UNL     1      27.677   0.203  52.977  1.00  0.00     0.022 C 
BRANCH   9  10
HETATM   10  C4  UNL     1      28.669  -0.150  54.057  1.00  0.00     0.044 C 
HETATM   11  C5  UNL     1      29.881  -0.872  53.545  1.00  0.00     0.017 C 
BRANCH  10  12
HETATM   12  C6  UNL     1      29.132   1.128  54.668  1.00  0.00     0.235 C 
HETATM   13  O1  UNL     1      29.281   2.333  54.543  1.00  0.00    -0.306 OA
ENDBRANCH  10  12
ENDBRANCH   9  10
ENDBRANCH   7   9
ENDBRANCH   1   7
BRANCH   5  14
HETATM   14  C11 UNL     1      26.479   3.115  49.408  1.00  0.00     0.103 C 
BRANCH  14  15
HETATM   15  C12 UNL     1      26.754   4.549  49.159  1.00  0.00    -0.052 A 
HETATM   16  C13 UNL     1      27.940   4.898  48.543  1.00  0.00     0.007 A 
HETATM   17  C14 UNL     1      28.295   6.194  48.266  1.00  0.00     0.001 A 
HETATM   18  C15 UNL     1      27.425   7.216  48.618  1.00  0.00     0.000 A 
HETATM   19  C16 UNL     1      26.235   6.894  49.235  1.00  0.00     0.001 A 
HETATM   20  C17 UNL     1      25.886   5.581  49.510  1.00  0.00     0.007 A 
ENDBRANCH  14  15
ENDBRANCH   5  14
TORSDOF 6
ENDMDL
MODEL 3
REMARK VINA RESULT:      -7.6      2.121      3.941
REMARK  6 active torsions:
REMARK  status: ('A' for Active; 'I' for Inactive)
REMARK    1  A    between atoms: C2_2  and  C3_3 
REMARK    2  A    between atoms: C2_2  and  C7_8 
REMARK    3  A    between atoms: C3_3  and  C4_4 
REMARK    4  A    between atoms: C4_4  and  C6_6 
REMARK    5  A    between atoms: C10_12  and  C11_13 
REMARK    6  A    between atoms: C11_13  and  C12_14 
ROOT
HETATM    1  C7  UNL     1      22.577  -1.055  53.890  1.00  0.00     0.044 A 
HETATM    2  C8  UNL     1      23.078  -1.288  55.283  1.00  0.00     0.007 A 
HETATM    3  C9  UNL     1      24.353  -1.197  55.667  1.00  0.00     0.138 A 
HETATM    4  O2  UNL     1      25.378  -0.862  54.763  1.00  0.00    -0.327 OA
HETATM    5  C10 UNL     1      25.035  -0.618  53.419  1.00  0.00     0.053 A 
HETATM    6  C18 UNL     1      23.761  -0.717  53.073  1.00  0.00     0.015 A 
ENDROOT
BRANCH   1   7
HETATM    7  C2  UNL     1      21.554  -0.006  53.837  1.00  0.00    -0.021 C 
HETATM    8  C1  UNL     1      20.782   0.306  54.847  1.00  0.00     0.012 C 
BRANCH   7   9
HETATM    9  C3  UNL     1      21.438   0.700  52.549  1.00  0.00     0.022 C 
BRANCH   9  10
HETATM   10  C4  UNL     1      21.635   2.193  52.649  1.00  0.00     0.044 C 
HETATM   11  C5  UNL     1      22.815   2.694  51.870  1.00  0.00     0.017 C 
BRANCH  10  12
HETATM   12  C6  UNL     1      20.416   2.837  52.083  1.00  0.00     0.235 C 
HETATM   13  O1  UNL     1      19.362   3.415  52.301  1.00  0.00    -0.306 OA
ENDBRANCH  10  12
ENDBRANCH   9  10
ENDBRANCH   7   9
ENDBRANCH   1   7
BRANCH   5  14
HETATM   14  C11 UNL     1      26.086  -0.266  52.461  1.00  0.00     0.103 C 
BRANCH  14  15
HETATM   15  C12 UNL     1      27.461  -0.597  52.904  1.00  0.00    -0.052 A 
HETATM   16  C13 UNL     1      28.248   0.411  53.425  1.00  0.00     0.007 A 
HETATM   17  C14 UNL     1      29.534   0.216  53.864  1.00  0.00     0.001 A 
HETATM   18  C15 UNL     1      30.082  -1.056  53.785  1.00  0.00     0.000 A 
HETATM   19  C16 UNL     1      29.316  -2.080  53.269  1.00  0.00     0.001 A 
HETATM   20  C17 UNL     1      28.018  -1.872  52.829  1.00  0.00     0.007 A 
ENDBRANCH  14  15
ENDBRANCH   5  14
TORSDOF 6
ENDMDL
MODEL 4
REMARK VINA RESULT:      -7.5      1.059      1.779
REMARK  6 active torsions:
REMARK  status: ('A' for Active; 'I' for Inactive)
REMARK    1  A    between atoms: C2_2  and  C3_3 
REMARK    2  A    between atoms: C2_2  and  C7_8 
REMARK    3  A    between atoms: C3_3  and  C4_4 
REMARK    4  A    between atoms: C4_4  and  C6_6 
REMARK    5  A    between atoms: C10_12  and  C11_13 
REMARK    6  A    between atoms: C11_13  and  C12_14 
ROOT
HETATM    1  C7  UNL     1      23.392   2.070  52.122  1.00  0.00     0.044 A 
HETATM    2  C8  UNL     1      24.079   2.688  50.942  1.00  0.00     0.007 A 
HETATM    3  C9  UNL     1      25.401   2.778  50.782  1.00  0.00     0.138 A 
HETATM    4  O2  UNL     1      26.301   2.282  51.744  1.00  0.00    -0.327 OA
HETATM    5  C10 UNL     1      25.778   1.676  52.903  1.00  0.00     0.053 A 
HETATM    6  C18 UNL     1      24.462   1.603  53.029  1.00  0.00     0.015 A 
ENDROOT
BRANCH   1   7
HETATM    7  C2  UNL     1      22.490   0.982  51.732  1.00  0.00    -0.021 C 
HETATM    8  C1  UNL     1      21.802   0.975  50.617  1.00  0.00     0.012 C 
BRANCH   7   9
HETATM    9  C3  UNL     1      22.394  -0.134  52.687  1.00  0.00     0.022 C 
BRANCH   9  10
HETATM   10  C4  UNL     1      21.323   0.047  53.736  1.00  0.00     0.044 C 
HETATM   11  C5  UNL     1      19.965  -0.412  53.291  1.00  0.00     0.017 C 
BRANCH  10  12
HETATM   12  C6  UNL     1      21.714  -0.779  54.913  1.00  0.00     0.235 C 
HETATM   13  O1  UNL     1      22.274  -1.783  55.326  1.00  0.00    -0.306 OA
ENDBRANCH  10  12
ENDBRANCH   9  10
ENDBRANCH   7   9
ENDBRANCH   1   7
BRANCH   5  14
HETATM   14  C11 UNL     1      26.696   1.152  53.917  1.00  0.00     0.103 C 
BRANCH  14  15
HETATM   15  C12 UNL     1      27.360  -0.121  53.550  1.00  0.00    -0.052 A 
HETATM   16  C13 UNL     1      28.710  -0.259  53.804  1.00  0.00     0.007 A 
HETATM   17  C14 UNL     1      29.423  -1.393  53.504  1.00  0.00     0.001 A 
HETATM   18  C15 UNL     1      28.763  -2.463  52.915  1.00  0.00     0.000 A 
HETATM   19  C16 UNL     1      27.415  -2.349  52.652  1.00  0.00     0.001 A 
HETATM   20  C17 UNL     1      26.704  -1.199  52.959  1.00  0.00     0.007 A 
ENDBRANCH  14  15
ENDBRANCH   5  14
TORSDOF 6
ENDMDL
MODEL 5
REMARK VINA RESULT:      -7.4      1.869      6.380
REMARK  6 active torsions:
REMARK  status: ('A' for Active; 'I' for Inactive)
REMARK    1  A    between atoms: C2_2  and  C3_3 
REMARK    2  A    between atoms: C2_2  and  C7_8 
REMARK    3  A    between atoms: C3_3  and  C4_4 
REMARK    4  A    between atoms: C4_4  and  C6_6 
REMARK    5  A    between atoms: C10_12  and  C11_13 
REMARK    6  A    between atoms: C11_13  and  C12_14 
ROOT
HETATM    1  C7  UNL     1      25.543   0.129  53.912  1.00  0.00     0.044 A 
HETATM    2  C8  UNL     1      24.497  -0.840  54.373  1.00  0.00     0.007 A 
HETATM    3  C9  UNL     1      23.187  -0.725  54.143  1.00  0.00     0.138 A 
HETATM    4  O2  UNL     1      22.652   0.357  53.421  1.00  0.00    -0.327 OA
HETATM    5  C10 UNL     1      23.535   1.340  52.932  1.00  0.00     0.053 A 
HETATM    6  C18 UNL     1      24.828   1.195  53.178  1.00  0.00     0.015 A 
ENDROOT
BRANCH   1   7
HETATM    7  C2  UNL     1      26.570  -0.514  53.085  1.00  0.00    -0.021 C 
HETATM    8  C1  UNL     1      26.429  -1.698  52.546  1.00  0.00     0.012 C 
BRANCH   7   9
HETATM    9  C3  UNL     1      27.803   0.266  52.889  1.00  0.00     0.022 C 
BRANCH   9  10
HETATM   10  C4  UNL     1      28.846   0.042  53.956  1.00  0.00     0.044 C 
HETATM   11  C5  UNL     1      29.982  -0.832  53.509  1.00  0.00     0.017 C 
BRANCH  10  12
HETATM   12  C6  UNL     1      29.415   1.374  54.305  1.00  0.00     0.235 C 
HETATM   13  O1  UNL     1      29.438   2.309  55.091  1.00  0.00    -0.306 OA
ENDBRANCH  10  12
ENDBRANCH   9  10
ENDBRANCH   7   9
ENDBRANCH   1   7
BRANCH   5  14
HETATM   14  C11 UNL     1      23.000   2.476  52.177  1.00  0.00     0.103 C 
BRANCH  14  15
HETATM   15  C12 UNL     1      22.649   2.171  50.770  1.00  0.00    -0.052 A 
HETATM   16  C13 UNL     1      23.246   2.906  49.765  1.00  0.00     0.007 A 
HETATM   17  C14 UNL     1      22.992   2.707  48.430  1.00  0.00     0.001 A 
HETATM   18  C15 UNL     1      22.092   1.718  48.060  1.00  0.00     0.000 A 
HETATM   19  C16 UNL     1      21.483   0.970  49.045  1.00  0.00     0.001 A 
HETATM   20  C17 UNL     1      21.747   1.179  50.390  1.00  0.00     0.007 A 
ENDBRANCH  14  15
ENDBRANCH   5  14
TORSDOF 6
ENDMDL
MODEL 6
REMARK VINA RESULT:      -7.4      1.443      4.880
REMARK  6 active torsions:
REMARK  status: ('A' for Active; 'I' for Inactive)
REMARK    1  A    between atoms: C2_2  and  C3_3 
REMARK    2  A    between atoms: C2_2  and  C7_8 
REMARK    3  A    between atoms: C3_3  and  C4_4 
REMARK    4  A    between atoms: C4_4  and  C6_6 
REMARK    5  A    between atoms: C10_12  and  C11_13 
REMARK    6  A    between atoms: C11_13  and  C12_14 
ROOT
HETATM    1  C7  UNL     1      26.799  -0.089  53.000  1.00  0.00     0.044 A 
HETATM    2  C8  UNL     1      27.983   0.567  53.643  1.00  0.00     0.007 A 
HETATM    3  C9  UNL     1      28.481   1.758  53.303  1.00  0.00     0.138 A 
HETATM    4  O2  UNL     1      27.917   2.533  52.273  1.00  0.00    -0.327 OA
HETATM    5  C10 UNL     1      26.795   2.025  51.589  1.00  0.00     0.053 A 
HETATM    6  C18 UNL     1      26.327   0.841  51.951  1.00  0.00     0.015 A 
ENDROOT
BRANCH   1   7
HETATM    7  C2  UNL     1      25.745  -0.403  53.969  1.00  0.00    -0.021 C 
HETATM    8  C1  UNL     1      25.877  -0.242  55.262  1.00  0.00     0.012 C 
BRANCH   7   9
HETATM    9  C3  UNL     1      24.493  -0.927  53.396  1.00  0.00     0.022 C 
BRANCH   9  10
HETATM   10  C4  UNL     1      23.281  -0.081  53.697  1.00  0.00     0.044 C 
HETATM   11  C5  UNL     1      22.503   0.308  52.473  1.00  0.00     0.017 C 
BRANCH  10  12
HETATM   12  C6  UNL     1      22.379  -0.893  54.563  1.00  0.00     0.235 C 
HETATM   13  O1  UNL     1      22.276  -1.789  55.386  1.00  0.00    -0.306 OA
ENDBRANCH  10  12
ENDBRANCH   9  10
ENDBRANCH   7   9
ENDBRANCH   1   7
BRANCH   5  14
HETATM   14  C11 UNL     1      26.191   2.815  50.513  1.00  0.00     0.103 C 
BRANCH  14  15
HETATM   15  C12 UNL     1      24.755   3.126  50.708  1.00  0.00    -0.052 A 
HETATM   16  C13 UNL     1      24.351   3.655  51.918  1.00  0.00     0.007 A 
HETATM   17  C14 UNL     1      23.049   3.978  52.204  1.00  0.00     0.001 A 
HETATM   18  C15 UNL     1      22.078   3.769  51.234  1.00  0.00     0.000 A 
HETATM   19  C16 UNL     1      22.457   3.242  50.018  1.00  0.00     0.001 A 
HETATM   20  C17 UNL     1      23.775   2.919  49.739  1.00  0.00     0.007 A 
ENDBRANCH  14  15
ENDBRANCH   5  14
TORSDOF 6
ENDMDL
MODEL 7
REMARK VINA RESULT:      -7.3      2.018      6.356
REMARK  6 active torsions:
REMARK  status: ('A' for Active; 'I' for Inactive)
REMARK    1  A    between atoms: C2_2  and  C3_3 
REMARK    2  A    between atoms: C2_2  and  C7_8 
REMARK    3  A    between atoms: C3_3  and  C4_4 
REMARK    4  A    between atoms: C4_4  and  C6_6 
REMARK    5  A    between atoms: C10_12  and  C11_13 
REMARK    6  A    between atoms: C11_13  and  C12_14 
ROOT
HETATM    1  C7  UNL     1      25.652   1.353  52.364  1.00  0.00     0.044 A 
HETATM    2  C8  UNL     1      25.357   2.566  53.193  1.00  0.00     0.007 A 
HETATM    3  C9  UNL     1      24.175   3.183  53.261  1.00  0.00     0.138 A 
HETATM    4  O2  UNL     1      23.059   2.730  52.533  1.00  0.00    -0.327 OA
HETATM    5  C10 UNL     1      23.207   1.594  51.714  1.00  0.00     0.053 A 
HETATM    6  C18 UNL     1      24.393   1.007  51.670  1.00  0.00     0.015 A 
ENDROOT
BRANCH   1   7
HETATM    7  C2  UNL     1      26.157   0.239  53.172  1.00  0.00    -0.021 C 
HETATM    8  C1  UNL     1      25.483  -0.313  54.149  1.00  0.00     0.012 C 
BRANCH   7   9
HETATM    9  C3  UNL     1      27.503  -0.242  52.817  1.00  0.00     0.022 C 
BRANCH   9  10
HETATM   10  C4  UNL     1      28.525  -0.066  53.912  1.00  0.00     0.044 C 
HETATM   11  C5  UNL     1      29.760  -0.897  53.718  1.00  0.00     0.017 C 
BRANCH  10  12
HETATM   12  C6  UNL     1      28.941   1.366  53.904  1.00  0.00     0.235 C 
HETATM   13  O1  UNL     1      28.728   2.501  54.299  1.00  0.00    -0.306 OA
ENDBRANCH  10  12
ENDBRANCH   9  10
ENDBRANCH   7   9
ENDBRANCH   1   7
BRANCH   5  14
HETATM   14  C11 UNL     1      22.058   1.105  50.948  1.00  0.00     0.103 C 
BRANCH  14  15
HETATM   15  C12 UNL     1      21.016   0.433  51.759  1.00  0.00    -0.052 A 
HETATM   16  C13 UNL     1      21.395  -0.211  52.920  1.00  0.00     0.007 A 
HETATM   17  C14 UNL     1      20.513  -0.865  53.745  1.00  0.00     0.001 A 
HETATM   18  C15 UNL     1      19.169  -0.886  53.403  1.00  0.00     0.000 A 
HETATM   19  C16 UNL     1      18.765  -0.250  52.248  1.00  0.00     0.001 A 
HETATM   20  C17 UNL     1      19.664   0.407  51.423  1.00  0.00     0.007 A 
ENDBRANCH  14  15
ENDBRANCH   5  14
TORSDOF 6
ENDMDL
MODEL 8
REMARK VINA RESULT:      -7.2      2.038      5.797
REMARK  6 active torsions:
REMARK  status: ('A' for Active; 'I' for Inactive)
REMARK    1  A    between atoms: C2_2  and  C3_3 
REMARK    2  A    between atoms: C2_2  and  C7_8 
REMARK    3  A    between atoms: C3_3  and  C4_4 
REMARK    4  A    between atoms: C4_4  and  C6_6 
REMARK    5  A    between atoms: C10_12  and  C11_13 
REMARK    6  A    between atoms: C11_13  and  C12_14 
ROOT
HETATM    1  C7  UNL     1      25.164   0.659  53.433  1.00  0.00     0.044 A 
HETATM    2  C8  UNL     1      23.896  -0.090  53.157  1.00  0.00     0.007 A 
HETATM    3  C9  UNL     1      22.839   0.401  52.505  1.00  0.00     0.138 A 
HETATM    4  O2  UNL     1      22.823   1.715  52.001  1.00  0.00    -0.327 OA
HETATM    5  C10 UNL     1      23.959   2.524  52.196  1.00  0.00     0.053 A 
HETATM    6  C18 UNL     1      24.989   2.005  52.847  1.00  0.00     0.015 A 
ENDROOT
BRANCH   1   7
HETATM    7  C2  UNL     1      26.343  -0.027  52.893  1.00  0.00    -0.021 C 
HETATM    8  C1  UNL     1      26.336  -1.273  52.494  1.00  0.00     0.012 C 
BRANCH   7   9
HETATM    9  C3  UNL     1      27.569   0.785  52.821  1.00  0.00     0.022 C 
BRANCH   9  10
HETATM   10  C4  UNL     1      28.551   0.512  53.934  1.00  0.00     0.044 C 
HETATM   11  C5  UNL     1      29.685  -0.383  53.527  1.00  0.00     0.017 C 
BRANCH  10  12
HETATM   12  C6  UNL     1      29.135   1.822  54.339  1.00  0.00     0.235 C 
HETATM   13  O1  UNL     1      29.817   2.440  55.141  1.00  0.00    -0.306 OA
ENDBRANCH  10  12
ENDBRANCH   9  10
ENDBRANCH   7   9
ENDBRANCH   1   7
BRANCH   5  14
HETATM   14  C11 UNL     1      23.964   3.894  51.679  1.00  0.00     0.103 C 
BRANCH  14  15
HETATM   15  C12 UNL     1      25.028   4.175  50.687  1.00  0.00    -0.052 A 
HETATM   16  C13 UNL     1      25.179   5.469  50.227  1.00  0.00     0.007 A 
HETATM   17  C14 UNL     1      26.130   5.839  49.309  1.00  0.00     0.001 A 
HETATM   18  C15 UNL     1      26.991   4.872  48.811  1.00  0.00     0.000 A 
HETATM   19  C16 UNL     1      26.861   3.573  49.254  1.00  0.00     0.001 A 
HETATM   20  C17 UNL     1      25.897   3.210  50.182  1.00  0.00     0.007 A 
ENDBRANCH  14  15
ENDBRANCH   5  14
TORSDOF 6
ENDMDL
MODEL 9
REMARK VINA RESULT:      -7.2      2.691      5.885
REMARK  6 active torsions:
REMARK  status: ('A' for Active; 'I' for Inactive)
REMARK    1  A    between atoms: C2_2  and  C3_3 
REMARK    2  A    between atoms: C2_2  and  C7_8 
REMARK    3  A    between atoms: C3_3  and  C4_4 
REMARK    4  A    between atoms: C4_4  and  C6_6 
REMARK    5  A    between atoms: C10_12  and  C11_13 
REMARK    6  A    between atoms: C11_13  and  C12_14 
ROOT
HETATM    1  C7  UNL     1      25.756   2.006  52.605  1.00  0.00     0.044 A 
HETATM    2  C8  UNL     1      24.786   2.804  53.422  1.00  0.00     0.007 A 
HETATM    3  C9  UNL     1      23.997   3.772  52.950  1.00  0.00     0.138 A 
HETATM    4  O2  UNL     1      24.008   4.143  51.593  1.00  0.00    -0.327 OA
HETATM    5  C10 UNL     1      24.880   3.465  50.718  1.00  0.00     0.053 A 
HETATM    6  C18 UNL     1      25.648   2.510  51.220  1.00  0.00     0.015 A 
ENDROOT
BRANCH   1   7
HETATM    7  C2  UNL     1      25.497   0.565  52.688  1.00  0.00    -0.021 C 
HETATM    8  C1  UNL     1      24.319   0.054  52.945  1.00  0.00     0.012 C 
BRANCH   7   9
HETATM    9  C3  UNL     1      26.665  -0.302  52.459  1.00  0.00     0.022 C 
BRANCH   9  10
HETATM   10  C4  UNL     1      27.841   0.005  53.354  1.00  0.00     0.044 C 
HETATM   11  C5  UNL     1      27.469   0.164  54.799  1.00  0.00     0.017 C 
BRANCH  10  12
HETATM   12  C6  UNL     1      28.783  -1.145  53.256  1.00  0.00     0.235 C 
HETATM   13  O1  UNL     1      29.002  -2.321  53.505  1.00  0.00    -0.306 OA
ENDBRANCH  10  12
ENDBRANCH   9  10
ENDBRANCH   7   9
ENDBRANCH   1   7
BRANCH   5  14
HETATM   14  C11 UNL     1      24.907   3.833  49.301  1.00  0.00     0.103 C 
BRANCH  14  15
HETATM   15  C12 UNL     1      25.921   4.854  48.948  1.00  0.00    -0.052 A 
HETATM   16  C13 UNL     1      27.240   4.462  48.829  1.00  0.00     0.007 A 
HETATM   17  C14 UNL     1      28.259   5.324  48.507  1.00  0.00     0.001 A 
HETATM   18  C15 UNL     1      27.959   6.661  48.287  1.00  0.00     0.000 A 
HETATM   19  C16 UNL     1      26.650   7.077  48.399  1.00  0.00     0.001 A 
HETATM   20  C17 UNL     1      25.629   6.198  48.725  1.00  0.00     0.007 A 
ENDBRANCH  14  15
ENDBRANCH   5  14
TORSDOF 6
ENDMDL
