MODEL 1
REMARK VINA RESULT:      -9.0      0.000      0.000
REMARK  2 active torsions:
REMARK  status: ('A' for Active; 'I' for Inactive)
REMARK    1  A    between atoms: C4_4  and  N1_5 
REMARK    2  A    between atoms: N1_5  and  C5_6 
ROOT
HETATM    1  C5  UNL     1      22.147  -1.206  54.415  1.00  0.00     0.146 A 
HETATM    2  C6  UNL     1      22.809  -0.624  53.428  1.00  0.00     0.163 A 
HETATM    3  N2  UNL     1      24.181  -0.306  53.597  1.00  0.00    -0.269 N 
HETATM    4  C7  UNL     1      24.876   0.332  52.496  1.00  0.00     0.178 C 
HETATM    5  C8  UNL     1      26.289  -0.104  52.404  1.00  0.00     0.008 C 
HETATM    6  C9  UNL     1      27.244  -0.192  53.315  1.00  0.00     0.013 A 
HETATM    7  C10 UNL     1      28.642  -0.556  53.545  1.00  0.00     0.124 A 
HETATM    8  F1  UNL     1      29.656  -1.019  52.771  1.00  0.00    -0.206 F 
HETATM    9  C11 UNL     1      28.430  -0.222  54.829  1.00  0.00     0.055 A 
HETATM   10  C12 UNL     1      27.021   0.170  54.717  1.00  0.00     0.216 A 
HETATM   11  O1  UNL     1      26.062  -0.493  55.382  1.00  0.00    -0.243 OA
HETATM   12  N3  UNL     1      24.863  -0.598  54.803  1.00  0.00    -0.151 N 
HETATM   13  C13 UNL     1      24.067  -1.233  55.828  1.00  0.00     0.262 A 
HETATM   14  N4  UNL     1      22.799  -1.523  55.661  1.00  0.00    -0.221 NA
ENDROOT
BRANCH   1  15
HETATM   15  N1  UNL     1      20.774  -1.496  54.174  1.00  0.00    -0.339 N 
HETATM   16  H5  UNL     1      20.416  -2.364  54.668  1.00  0.00     0.167 HD
BRANCH  15  17
HETATM   17  C4  UNL     1      19.986  -0.664  53.334  1.00  0.00     0.047 A 
HETATM   18  C3  UNL     1      20.099   0.595  52.621  1.00  0.00     0.033 A 
HETATM   19  C2  UNL     1      18.959   0.841  51.984  1.00  0.00    -0.077 A 
HETATM   20  C1  UNL     1      18.757   2.047  51.168  1.00  0.00     0.044 C 
HETATM   21  C15 UNL     1      18.007  -0.243  52.232  1.00  0.00     0.082 A 
HETATM   22  C14 UNL     1      18.766  -1.184  53.127  1.00  0.00     0.019 A 
HETATM   23 BR1  UNL     1      17.827  -2.767  53.682  1.00  0.00    -0.053 Br
ENDBRANCH  15  17
ENDBRANCH   1  15
TORSDOF 2
ENDMDL
MODEL 2
REMARK VINA RESULT:      -8.6      4.120      7.794
REMARK  2 active torsions:
REMARK  status: ('A' for Active; 'I' for Inactive)
REMARK    1  A    between atoms: C4_4  and  N1_5 
REMARK    2  A    between atoms: N1_5  and  C5_6 
ROOT
HETATM    1  C5  UNL     1      24.532   0.960  52.314  1.00  0.00     0.146 A 
HETATM    2  C6  UNL     1      24.115   0.297  53.381  1.00  0.00     0.163 A 
HETATM    3  N2  UNL     1      22.730   0.035  53.546  1.00  0.00    -0.269 N 
HETATM    4  C7  UNL     1      22.307  -0.694  54.726  1.00  0.00     0.178 C 
HETATM    5  C8  UNL     1      21.153  -1.579  54.447  1.00  0.00     0.008 C 
HETATM    6  C9  UNL     1      20.000  -1.358  53.836  1.00  0.00     0.013 A 
HETATM    7  C10 UNL     1      18.736  -1.965  53.421  1.00  0.00     0.124 A 
HETATM    8  F1  UNL     1      18.178  -3.197  53.530  1.00  0.00    -0.206 F 
HETATM    9  C11 UNL     1      18.425  -0.762  52.909  1.00  0.00     0.055 A 
HETATM   10  C12 UNL     1      19.654  -0.051  53.276  1.00  0.00     0.216 A 
HETATM   11  O1  UNL     1      20.467   0.456  52.337  1.00  0.00    -0.243 OA
HETATM   12  N3  UNL     1      21.778   0.468  52.591  1.00  0.00    -0.151 N 
HETATM   13  C13 UNL     1      22.318   1.185  51.458  1.00  0.00     0.262 A 
HETATM   14  N4  UNL     1      23.599   1.421  51.316  1.00  0.00    -0.221 NA
ENDROOT
BRANCH   1  15
HETATM   15  N1  UNL     1      25.933   1.186  52.216  1.00  0.00    -0.339 N 
HETATM   16  H5  UNL     1      26.198   2.151  51.860  1.00  0.00     0.167 HD
BRANCH  15  17
HETATM   17  C4  UNL     1      26.866   0.175  52.573  1.00  0.00     0.047 A 
HETATM   18  C3  UNL     1      26.997  -1.269  52.505  1.00  0.00     0.033 A 
HETATM   19  C2  UNL     1      28.161  -1.628  53.034  1.00  0.00    -0.077 A 
HETATM   20  C1  UNL     1      28.591  -3.031  53.113  1.00  0.00     0.044 C 
HETATM   21  C15 UNL     1      28.887  -0.441  53.492  1.00  0.00     0.082 A 
HETATM   22  C14 UNL     1      27.961   0.694  53.149  1.00  0.00     0.019 A 
HETATM   23 BR1  UNL     1      28.578   2.457  53.608  1.00  0.00    -0.053 Br
ENDBRANCH  15  17
ENDBRANCH   1  15
TORSDOF 2
ENDMDL
MODEL 3
REMARK VINA RESULT:      -8.3      2.290      3.417
REMARK  2 active torsions:
REMARK  status: ('A' for Active; 'I' for Inactive)
REMARK    1  A    between atoms: C4_4  and  N1_5 
REMARK    2  A    between atoms: N1_5  and  C5_6 
ROOT
HETATM    1  C5  UNL     1      19.835  -0.578  53.542  1.00  0.00     0.146 A 
HETATM    2  C6  UNL     1      20.501   0.458  53.055  1.00  0.00     0.163 A 
HETATM    3  N2  UNL     1      21.914   0.505  53.184  1.00  0.00    -0.269 N 
HETATM    4  C7  UNL     1      22.612   1.653  52.641  1.00  0.00     0.178 C 
HETATM    5  C8  UNL     1      23.938   1.287  52.091  1.00  0.00     0.008 C 
HETATM    6  C9  UNL     1      24.934   0.574  52.592  1.00  0.00     0.013 A 
HETATM    7  C10 UNL     1      26.278   0.059  52.334  1.00  0.00     0.124 A 
HETATM    8  F1  UNL     1      27.157   0.136  51.304  1.00  0.00    -0.206 F 
HETATM    9  C11 UNL     1      26.207  -0.495  53.557  1.00  0.00     0.055 A 
HETATM   10  C12 UNL     1      24.865  -0.032  53.923  1.00  0.00     0.216 A 
HETATM   11  O1  UNL     1      23.871  -0.904  54.155  1.00  0.00    -0.243 OA
HETATM   12  N3  UNL     1      22.631  -0.536  53.823  1.00  0.00    -0.151 N 
HETATM   13  C13 UNL     1      21.828  -1.627  54.324  1.00  0.00     0.262 A 
HETATM   14  N4  UNL     1      20.523  -1.660  54.199  1.00  0.00    -0.221 NA
ENDROOT
BRANCH   1  15
HETATM   15  N1  UNL     1      18.422  -0.556  53.376  1.00  0.00    -0.339 N 
HETATM   16  H5  UNL     1      18.004   0.417  53.301  1.00  0.00     0.167 HD
BRANCH  15  17
HETATM   17  C4  UNL     1      17.671  -1.761  53.323  1.00  0.00     0.047 A 
HETATM   18  C3  UNL     1      17.752  -3.126  53.811  1.00  0.00     0.033 A 
HETATM   19  C2  UNL     1      16.685  -3.802  53.400  1.00  0.00    -0.077 A 
HETATM   20  C1  UNL     1      16.474  -5.218  53.732  1.00  0.00     0.044 C 
HETATM   21  C15 UNL     1      15.819  -2.928  52.606  1.00  0.00     0.082 A 
HETATM   22  C14 UNL     1      16.544  -1.611  52.609  1.00  0.00     0.019 A 
HETATM   23 BR1  UNL     1      15.700  -0.177  51.646  1.00  0.00    -0.053 Br
ENDBRANCH  15  17
ENDBRANCH   1  15
TORSDOF 2
ENDMDL
MODEL 4
REMARK VINA RESULT:      -8.2      1.911      2.444
REMARK  2 active torsions:
REMARK  status: ('A' for Active; 'I' for Inactive)
REMARK    1  A    between atoms: C4_4  and  N1_5 
REMARK    2  A    between atoms: N1_5  and  C5_6 
ROOT
HETATM    1  C5  UNL     1      22.642   0.821  52.914  1.00  0.00     0.146 A 
HETATM    2  C6  UNL     1      23.582   1.749  52.833  1.00  0.00     0.163 A 
HETATM    3  N2  UNL     1      24.874   1.485  53.358  1.00  0.00    -0.269 N 
HETATM    4  C7  UNL     1      25.880   2.523  53.254  1.00  0.00     0.178 C 
HETATM    5  C8  UNL     1      27.234   1.963  53.039  1.00  0.00     0.008 C 
HETATM    6  C9  UNL     1      27.899   1.001  53.659  1.00  0.00     0.013 A 
HETATM    7  C10 UNL     1      29.156   0.255  53.698  1.00  0.00     0.124 A 
HETATM    8  F1  UNL     1      30.312   0.279  52.987  1.00  0.00    -0.206 F 
HETATM    9  C11 UNL     1      28.623  -0.424  54.728  1.00  0.00     0.055 A 
HETATM   10  C12 UNL     1      27.325   0.257  54.782  1.00  0.00     0.216 A 
HETATM   11  O1  UNL     1      26.182  -0.412  54.562  1.00  0.00    -0.243 OA
HETATM   12  N3  UNL     1      25.182   0.245  53.969  1.00  0.00    -0.151 N 
HETATM   13  C13 UNL     1      24.100  -0.711  54.015  1.00  0.00     0.262 A 
HETATM   14  N4  UNL     1      22.910  -0.456  53.527  1.00  0.00    -0.221 NA
ENDROOT
BRANCH   1  15
HETATM   15  N1  UNL     1      21.372   1.156  52.367  1.00  0.00    -0.339 N 
HETATM   16  H5  UNL     1      21.350   2.078  51.841  1.00  0.00     0.167 HD
BRANCH  15  17
HETATM   17  C4  UNL     1      20.251   0.298  52.534  1.00  0.00     0.047 A 
HETATM   18  C3  UNL     1      19.768  -0.705  53.466  1.00  0.00     0.033 A 
HETATM   19  C2  UNL     1      18.595  -1.164  53.045  1.00  0.00    -0.077 A 
HETATM   20  C1  UNL     1      17.844  -2.194  53.776  1.00  0.00     0.044 C 
HETATM   21  C15 UNL     1      18.217  -0.494  51.799  1.00  0.00     0.082 A 
HETATM   22  C14 UNL     1      19.361   0.447  51.540  1.00  0.00     0.019 A 
HETATM   23 BR1  UNL     1      19.229   1.527  49.955  1.00  0.00    -0.053 Br
ENDBRANCH  15  17
ENDBRANCH   1  15
TORSDOF 2
ENDMDL
MODEL 5
REMARK VINA RESULT:      -8.1      5.836      8.126
REMARK  2 active torsions:
REMARK  status: ('A' for Active; 'I' for Inactive)
REMARK    1  A    between atoms: C4_4  and  N1_5 
REMARK    2  A    between atoms: N1_5  and  C5_6 
ROOT
HETATM    1  C5  UNL     1      24.854   3.737  50.122  1.00  0.00     0.146 A 
HETATM    2  C6  UNL     1      23.736   3.039  50.008  1.00  0.00     0.163 A 
HETATM    3  N2  UNL     1      23.502   1.943  50.879  1.00  0.00    -0.269 N 
HETATM    4  C7  UNL     1      22.267   1.199  50.726  1.00  0.00     0.178 C 
HETATM    5  C8  UNL     1      21.747   0.715  52.026  1.00  0.00     0.008 C 
HETATM    6  C9  UNL     1      22.330   0.073  53.025  1.00  0.00     0.013 A 
HETATM    7  C10 UNL     1      22.123  -0.509  54.350  1.00  0.00     0.124 A 
HETATM    8  F1  UNL     1      21.068  -0.628  55.195  1.00  0.00    -0.206 F 
HETATM    9  C11 UNL     1      23.423  -0.847  54.312  1.00  0.00     0.055 A 
HETATM   10  C12 UNL     1      23.746  -0.298  52.991  1.00  0.00     0.216 A 
HETATM   11  O1  UNL     1      24.642   0.691  52.851  1.00  0.00    -0.243 OA
HETATM   12  N3  UNL     1      24.441   1.579  51.874  1.00  0.00    -0.151 N 
HETATM   13  C13 UNL     1      25.633   2.393  51.931  1.00  0.00     0.262 A 
HETATM   14  N4  UNL     1      25.839   3.403  51.120  1.00  0.00    -0.221 NA
ENDROOT
BRANCH   1  15
HETATM   15  N1  UNL     1      25.020   4.820  49.214  1.00  0.00    -0.339 N 
HETATM   16  H5  UNL     1      24.112   5.234  48.854  1.00  0.00     0.167 HD
BRANCH  15  17
HETATM   17  C4  UNL     1      26.315   5.278  48.847  1.00  0.00     0.047 A 
HETATM   18  C3  UNL     1      27.654   4.747  48.664  1.00  0.00     0.033 A 
HETATM   19  C2  UNL     1      28.468   5.731  48.297  1.00  0.00    -0.077 A 
HETATM   20  C1  UNL     1      29.897   5.513  48.033  1.00  0.00     0.044 C 
HETATM   21  C15 UNL     1      27.721   6.988  48.212  1.00  0.00     0.082 A 
HETATM   22  C14 UNL     1      26.320   6.595  48.590  1.00  0.00     0.019 A 
HETATM   23 BR1  UNL     1      25.016   8.008  48.595  1.00  0.00    -0.053 Br
ENDBRANCH  15  17
ENDBRANCH   1  15
TORSDOF 2
ENDMDL
MODEL 6
REMARK VINA RESULT:      -8.0      2.109      2.447
REMARK  2 active torsions:
REMARK  status: ('A' for Active; 'I' for Inactive)
REMARK    1  A    between atoms: C4_4  and  N1_5 
REMARK    2  A    between atoms: N1_5  and  C5_6 
ROOT
HETATM    1  C5  UNL     1      22.801   0.160  53.020  1.00  0.00     0.146 A 
HETATM    2  C6  UNL     1      23.684   1.064  52.624  1.00  0.00     0.163 A 
HETATM    3  N2  UNL     1      25.000   1.035  53.154  1.00  0.00    -0.269 N 
HETATM    4  C7  UNL     1      25.942   2.040  52.699  1.00  0.00     0.178 C 
HETATM    5  C8  UNL     1      27.321   1.507  52.611  1.00  0.00     0.008 C 
HETATM    6  C9  UNL     1      28.054   0.814  53.468  1.00  0.00     0.013 A 
HETATM    7  C10 UNL     1      29.353   0.177  53.682  1.00  0.00     0.124 A 
HETATM    8  F1  UNL     1      30.489   0.039  52.953  1.00  0.00    -0.206 F 
HETATM    9  C11 UNL     1      28.884  -0.179  54.889  1.00  0.00     0.055 A 
HETATM   10  C12 UNL     1      27.550   0.421  54.785  1.00  0.00     0.216 A 
HETATM   11  O1  UNL     1      26.444  -0.337  54.824  1.00  0.00    -0.243 OA
HETATM   12  N3  UNL     1      25.394   0.058  54.100  1.00  0.00    -0.151 N 
HETATM   13  C13 UNL     1      24.370  -0.889  54.476  1.00  0.00     0.262 A 
HETATM   14  N4  UNL     1      23.157  -0.854  53.981  1.00  0.00    -0.221 NA
ENDROOT
BRANCH   1  15
HETATM   15  N1  UNL     1      21.501   0.250  52.447  1.00  0.00    -0.339 N 
HETATM   16  H5  UNL     1      20.719  -0.095  53.076  1.00  0.00     0.167 HD
BRANCH  15  17
HETATM   17  C4  UNL     1      21.312   0.765  51.136  1.00  0.00     0.047 A 
HETATM   18  C3  UNL     1      22.104   1.301  50.044  1.00  0.00     0.033 A 
HETATM   19  C2  UNL     1      21.299   1.622  49.037  1.00  0.00    -0.077 A 
HETATM   20  C1  UNL     1      21.802   2.193  47.779  1.00  0.00     0.044 C 
HETATM   21  C15 UNL     1      19.911   1.321  49.394  1.00  0.00     0.082 A 
HETATM   22  C14 UNL     1      20.016   0.764  50.786  1.00  0.00     0.019 A 
HETATM   23 BR1  UNL     1      18.362   0.240  51.616  1.00  0.00    -0.053 Br
ENDBRANCH  15  17
ENDBRANCH   1  15
TORSDOF 2
ENDMDL
MODEL 7
REMARK VINA RESULT:      -8.0      2.217      3.127
REMARK  2 active torsions:
REMARK  status: ('A' for Active; 'I' for Inactive)
REMARK    1  A    between atoms: C4_4  and  N1_5 
REMARK    2  A    between atoms: N1_5  and  C5_6 
ROOT
HETATM    1  C5  UNL     1      21.883   1.381  52.358  1.00  0.00     0.146 A 
HETATM    2  C6  UNL     1      22.348   0.494  53.224  1.00  0.00     0.163 A 
HETATM    3  N2  UNL     1      23.735   0.195  53.243  1.00  0.00    -0.269 N 
HETATM    4  C7  UNL     1      24.212  -0.781  54.202  1.00  0.00     0.178 C 
HETATM    5  C8  UNL     1      25.563  -0.448  54.709  1.00  0.00     0.008 C 
HETATM    6  C9  UNL     1      26.680  -0.112  54.084  1.00  0.00     0.013 A 
HETATM    7  C10 UNL     1      28.084   0.255  54.267  1.00  0.00     0.124 A 
HETATM    8  F1  UNL     1      28.906   0.413  55.335  1.00  0.00    -0.206 F 
HETATM    9  C11 UNL     1      28.146   0.350  52.928  1.00  0.00     0.055 A 
HETATM   10  C12 UNL     1      26.756  -0.006  52.626  1.00  0.00     0.216 A 
HETATM   11  O1  UNL     1      25.932   0.867  52.025  1.00  0.00    -0.243 OA
HETATM   12  N3  UNL     1      24.638   0.828  52.353  1.00  0.00    -0.151 N 
HETATM   13  C13 UNL     1      24.047   1.782  51.443  1.00  0.00     0.262 A 
HETATM   14  N4  UNL     1      22.764   2.050  51.435  1.00  0.00    -0.221 NA
ENDROOT
BRANCH   1  15
HETATM   15  N1  UNL     1      20.482   1.630  52.397  1.00  0.00    -0.339 N 
HETATM   16  H5  UNL     1      20.218   2.657  52.367  1.00  0.00     0.167 HD
BRANCH  15  17
HETATM   17  C4  UNL     1      19.549   0.560  52.470  1.00  0.00     0.047 A 
HETATM   18  C3  UNL     1      19.237  -0.564  53.334  1.00  0.00     0.033 A 
HETATM   19  C2  UNL     1      18.198  -1.224  52.833  1.00  0.00    -0.077 A 
HETATM   20  C1  UNL     1      17.637  -2.418  53.482  1.00  0.00     0.044 C 
HETATM   21  C15 UNL     1      17.748  -0.580  51.598  1.00  0.00     0.082 A 
HETATM   22  C14 UNL     1      18.692   0.580  51.438  1.00  0.00     0.019 A 
HETATM   23 BR1  UNL     1      18.415   1.691  49.893  1.00  0.00    -0.053 Br
ENDBRANCH  15  17
ENDBRANCH   1  15
TORSDOF 2
ENDMDL
MODEL 8
REMARK VINA RESULT:      -7.9      5.740      7.622
REMARK  2 active torsions:
REMARK  status: ('A' for Active; 'I' for Inactive)
REMARK    1  A    between atoms: C4_4  and  N1_5 
REMARK    2  A    between atoms: N1_5  and  C5_6 
ROOT
HETATM    1  C5  UNL     1      24.325   3.426  52.067  1.00  0.00     0.146 A 
HETATM    2  C6  UNL     1      25.232   3.120  51.152  1.00  0.00     0.163 A 
HETATM    3  N2  UNL     1      25.597   4.085  50.177  1.00  0.00    -0.269 N 
HETATM    4  C7  UNL     1      26.593   3.718  49.191  1.00  0.00     0.178 C 
HETATM    5  C8  UNL     1      27.453   4.864  48.817  1.00  0.00     0.008 C 
HETATM    6  C9  UNL     1      27.161   6.105  48.461  1.00  0.00     0.013 A 
HETATM    7  C10 UNL     1      27.725   7.392  48.057  1.00  0.00     0.124 A 
HETATM    8  F1  UNL     1      28.978   7.876  47.862  1.00  0.00    -0.206 F 
HETATM    9  C11 UNL     1      26.457   7.828  47.981  1.00  0.00     0.055 A 
HETATM   10  C12 UNL     1      25.782   6.587  48.375  1.00  0.00     0.216 A 
HETATM   11  O1  UNL     1      25.035   6.528  49.488  1.00  0.00    -0.243 OA
HETATM   12  N3  UNL     1      25.011   5.374  50.160  1.00  0.00    -0.151 N 
HETATM   13  C13 UNL     1      24.031   5.625  51.192  1.00  0.00     0.262 A 
HETATM   14  N4  UNL     1      23.702   4.726  52.088  1.00  0.00    -0.221 NA
ENDROOT
BRANCH   1  15
HETATM   15  N1  UNL     1      24.009   2.410  53.011  1.00  0.00    -0.339 N 
HETATM   16  H5  UNL     1      22.986   2.374  53.292  1.00  0.00     0.167 HD
BRANCH  15  17
HETATM   17  C4  UNL     1      25.013   1.536  53.512  1.00  0.00     0.047 A 
HETATM   18  C3  UNL     1      26.393   1.594  53.957  1.00  0.00     0.033 A 
HETATM   19  C2  UNL     1      26.786   0.379  54.322  1.00  0.00    -0.077 A 
HETATM   20  C1  UNL     1      28.141   0.107  54.823  1.00  0.00     0.044 C 
HETATM   21  C15 UNL     1      25.688  -0.574  54.142  1.00  0.00     0.082 A 
HETATM   22  C14 UNL     1      24.567   0.274  53.607  1.00  0.00     0.019 A 
HETATM   23 BR1  UNL     1      22.917  -0.640  53.237  1.00  0.00    -0.053 Br
ENDBRANCH  15  17
ENDBRANCH   1  15
TORSDOF 2
ENDMDL
MODEL 9
REMARK VINA RESULT:      -7.8      5.725      6.749
REMARK  2 active torsions:
REMARK  status: ('A' for Active; 'I' for Inactive)
REMARK    1  A    between atoms: C4_4  and  N1_5 
REMARK    2  A    between atoms: N1_5  and  C5_6 
ROOT
HETATM    1  C5  UNL     1      24.379   3.306  52.209  1.00  0.00     0.146 A 
HETATM    2  C6  UNL     1      25.305   2.997  51.315  1.00  0.00     0.163 A 
HETATM    3  N2  UNL     1      25.632   3.928  50.295  1.00  0.00    -0.269 N 
HETATM    4  C7  UNL     1      26.650   3.559  49.332  1.00  0.00     0.178 C 
HETATM    5  C8  UNL     1      27.459   4.724  48.905  1.00  0.00     0.008 C 
HETATM    6  C9  UNL     1      27.112   5.930  48.486  1.00  0.00     0.013 A 
HETATM    7  C10 UNL     1      27.619   7.221  48.021  1.00  0.00     0.124 A 
HETATM    8  F1  UNL     1      28.849   7.752  47.808  1.00  0.00    -0.206 F 
HETATM    9  C11 UNL     1      26.332   7.593  47.917  1.00  0.00     0.055 A 
HETATM   10  C12 UNL     1      25.712   6.343  48.370  1.00  0.00     0.216 A 
HETATM   11  O1  UNL     1      24.962   6.305  49.482  1.00  0.00    -0.243 OA
HETATM   12  N3  UNL     1      24.987   5.186  50.211  1.00  0.00    -0.151 N 
HETATM   13  C13 UNL     1      23.989   5.442  51.225  1.00  0.00     0.262 A 
HETATM   14  N4  UNL     1      23.696   4.574  52.163  1.00  0.00    -0.221 NA
ENDROOT
BRANCH   1  15
HETATM   15  N1  UNL     1      24.104   2.324  53.202  1.00  0.00    -0.339 N 
HETATM   16  H5  UNL     1      24.758   2.349  54.037  1.00  0.00     0.167 HD
BRANCH  15  17
HETATM   17  C4  UNL     1      23.032   1.404  53.047  1.00  0.00     0.047 A 
HETATM   18  C3  UNL     1      21.624   1.411  52.693  1.00  0.00     0.033 A 
HETATM   19  C2  UNL     1      21.157   0.168  52.730  1.00  0.00    -0.077 A 
HETATM   20  C1  UNL     1      19.758  -0.158  52.420  1.00  0.00     0.044 C 
HETATM   21  C15 UNL     1      22.229  -0.754  53.113  1.00  0.00     0.082 A 
HETATM   22  C14 UNL     1      23.420   0.144  53.300  1.00  0.00     0.019 A 
HETATM   23 BR1  UNL     1      25.058  -0.719  53.818  1.00  0.00    -0.053 Br
ENDBRANCH  15  17
ENDBRANCH   1  15
TORSDOF 2
ENDMDL
