MODEL 1
REMARK VINA RESULT:      -7.5      0.000      0.000
REMARK  6 active torsions:
REMARK  status: ('A' for Active; 'I' for Inactive)
REMARK    1  A    between atoms: C2_2  and  O1_3 
REMARK    2  A    between atoms: O1_3  and  C3_4 
REMARK    3  A    between atoms: C11_14  and  N2_15 
REMARK    4  A    between atoms: N2_15  and  C12_16 
REMARK    5  A    between atoms: C12_16  and  C13_17 
REMARK    6  A    between atoms: C12_16  and  C16_21 
ROOT
HETATM    1  C13 UNL     1      21.107   0.966  53.398  1.00  0.00     0.009 C 
HETATM    2  C14 UNL     1      20.975   0.399  54.576  1.00  0.00     0.091 C 
HETATM    3  C15 UNL     1      21.583  -0.871  54.808  1.00  0.00     0.087 C 
HETATM    4  N3  UNL     1      22.062  -1.907  55.007  1.00  0.00    -0.192 NA
ENDROOT
BRANCH   1   5
HETATM    5  C12 UNL     1      21.881   0.330  52.263  1.00  0.00     0.108 C 
BRANCH   5   6
HETATM    6  N2  UNL     1      23.014   1.132  51.930  1.00  0.00    -0.380 N 
HETATM    7  H12 UNL     1      22.903   1.729  51.063  1.00  0.00     0.160 HD
BRANCH   6   8
HETATM    8  C11 UNL     1      24.307   1.317  52.520  1.00  0.00     0.063 A 
HETATM    9  C3  UNL     1      24.712   2.510  53.130  1.00  0.00     0.097 A 
HETATM   10  C4  UNL     1      25.971   2.551  53.673  1.00  0.00     0.071 A 
HETATM   11  C5  UNL     1      26.862   1.494  53.657  1.00  0.00     0.070 A 
HETATM   12  N1  UNL     1      28.007   1.805  54.252  1.00  0.00    -0.259 NA
HETATM   13  C9  UNL     1      26.491   0.312  53.066  1.00  0.00     0.002 A 
HETATM   14  C6  UNL     1      29.079   1.044  54.421  1.00  0.00     0.133 A 
HETATM   15  P1  UNL     1      28.930  -0.573  53.763  1.00  0.00    -0.007 P 
HETATM   16  C7  UNL     1      27.352  -0.769  53.029  1.00  0.00    -0.034 A 
HETATM   17  C8  UNL     1      26.915  -2.048  52.375  1.00  0.00     0.051 C 
HETATM   18  C10 UNL     1      25.213   0.262  52.512  1.00  0.00     0.046 A 
BRANCH   9  19
HETATM   19  O1  UNL     1      23.805   3.562  53.136  1.00  0.00    -0.349 OA
BRANCH  19  20
HETATM   20  C2  UNL     1      23.789   4.421  52.012  1.00  0.00     0.171 C 
HETATM   21  C1  UNL     1      22.384   4.857  51.665  1.00  0.00     0.034 C 
ENDBRANCH  19  20
ENDBRANCH   9  19
ENDBRANCH   6   8
ENDBRANCH   5   6
BRANCH   5  22
HETATM   22  C16 UNL     1      20.912   0.126  51.112  1.00  0.00     0.066 C 
HETATM   23  C17 UNL     1      21.282   0.957  49.949  1.00  0.00     0.393 C 
HETATM   24  O2  UNL     1      21.656   1.671  49.043  1.00  0.00    -0.430 OA
ENDBRANCH   5  22
ENDBRANCH   1   5
TORSDOF 6
ENDMDL
MODEL 2
REMARK VINA RESULT:      -7.3      2.210      4.308
REMARK  6 active torsions:
REMARK  status: ('A' for Active; 'I' for Inactive)
REMARK    1  A    between atoms: C2_2  and  O1_3 
REMARK    2  A    between atoms: O1_3  and  C3_4 
REMARK    3  A    between atoms: C11_14  and  N2_15 
REMARK    4  A    between atoms: N2_15  and  C12_16 
REMARK    5  A    between atoms: C12_16  and  C13_17 
REMARK    6  A    between atoms: C12_16  and  C16_21 
ROOT
HETATM    1  C13 UNL     1      23.333   3.105  50.682  1.00  0.00     0.009 C 
HETATM    2  C14 UNL     1      24.179   2.991  49.683  1.00  0.00     0.091 C 
HETATM    3  C15 UNL     1      25.509   3.481  49.841  1.00  0.00     0.087 C 
HETATM    4  N3  UNL     1      26.589   3.884  49.952  1.00  0.00    -0.192 NA
ENDROOT
BRANCH   1   5
HETATM    5  C12 UNL     1      23.704   3.739  52.006  1.00  0.00     0.108 C 
BRANCH   5   6
HETATM    6  N2  UNL     1      23.943   2.728  52.985  1.00  0.00    -0.380 N 
HETATM    7  H12 UNL     1      23.351   2.801  53.859  1.00  0.00     0.160 HD
BRANCH   6   8
HETATM    8  C11 UNL     1      24.830   1.605  53.057  1.00  0.00     0.063 A 
HETATM    9  C3  UNL     1      24.407   0.278  52.911  1.00  0.00     0.097 A 
HETATM   10  C4  UNL     1      25.361  -0.705  52.983  1.00  0.00     0.071 A 
HETATM   11  C5  UNL     1      26.708  -0.471  53.188  1.00  0.00     0.070 A 
HETATM   12  N1  UNL     1      27.406  -1.600  53.214  1.00  0.00    -0.259 NA
HETATM   13  C9  UNL     1      27.151   0.820  53.333  1.00  0.00     0.002 A 
HETATM   14  C6  UNL     1      28.711  -1.756  53.388  1.00  0.00     0.133 A 
HETATM   15  P1  UNL     1      29.596  -0.259  53.608  1.00  0.00    -0.007 P 
HETATM   16  C7  UNL     1      28.490   1.097  53.539  1.00  0.00    -0.034 A 
HETATM   17  C8  UNL     1      28.942   2.520  53.693  1.00  0.00     0.051 C 
HETATM   18  C10 UNL     1      26.188   1.825  53.261  1.00  0.00     0.046 A 
BRANCH   9  19
HETATM   19  O1  UNL     1      23.050   0.062  52.707  1.00  0.00    -0.349 OA
BRANCH  19  20
HETATM   20  C2  UNL     1      22.332  -0.609  53.726  1.00  0.00     0.171 C 
HETATM   21  C1  UNL     1      21.227   0.255  54.288  1.00  0.00     0.034 C 
ENDBRANCH  19  20
ENDBRANCH   9  19
ENDBRANCH   6   8
ENDBRANCH   5   6
BRANCH   5  22
HETATM   22  C16 UNL     1      22.591   4.703  52.376  1.00  0.00     0.066 C 
HETATM   23  C17 UNL     1      21.289   4.012  52.453  1.00  0.00     0.393 C 
HETATM   24  O2  UNL     1      20.263   3.367  52.494  1.00  0.00    -0.430 OA
ENDBRANCH   5  22
ENDBRANCH   1   5
TORSDOF 6
ENDMDL
MODEL 3
REMARK VINA RESULT:      -7.2      3.100      5.963
REMARK  6 active torsions:
REMARK  status: ('A' for Active; 'I' for Inactive)
REMARK    1  A    between atoms: C2_2  and  O1_3 
REMARK    2  A    between atoms: O1_3  and  C3_4 
REMARK    3  A    between atoms: C11_14  and  N2_15 
REMARK    4  A    between atoms: N2_15  and  C12_16 
REMARK    5  A    between atoms: C12_16  and  C13_17 
REMARK    6  A    between atoms: C12_16  and  C16_21 
ROOT
HETATM    1  C13 UNL     1      26.640   0.714  52.300  1.00  0.00     0.009 C 
HETATM    2  C14 UNL     1      26.235  -0.512  52.543  1.00  0.00     0.091 C 
HETATM    3  C15 UNL     1      25.767  -0.842  53.849  1.00  0.00     0.087 C 
HETATM    4  N3  UNL     1      25.396  -1.128  54.909  1.00  0.00    -0.192 NA
ENDROOT
BRANCH   1   5
HETATM    5  C12 UNL     1      26.637   1.804  53.351  1.00  0.00     0.108 C 
BRANCH   5   6
HETATM    6  N2  UNL     1      25.618   2.761  53.064  1.00  0.00    -0.380 N 
HETATM    7  H12 UNL     1      25.839   3.754  53.357  1.00  0.00     0.160 HD
BRANCH   6   8
HETATM    8  C11 UNL     1      24.324   2.681  52.453  1.00  0.00     0.063 A 
HETATM    9  C3  UNL     1      23.940   3.462  51.356  1.00  0.00     0.097 A 
HETATM   10  C4  UNL     1      22.678   3.276  50.853  1.00  0.00     0.071 A 
HETATM   11  C5  UNL     1      21.764   2.370  51.357  1.00  0.00     0.070 A 
HETATM   12  N1  UNL     1      20.620   2.395  50.682  1.00  0.00    -0.259 NA
HETATM   13  C9  UNL     1      22.114   1.591  52.432  1.00  0.00     0.002 A 
HETATM   14  C6  UNL     1      19.530   1.669  50.884  1.00  0.00     0.133 A 
HETATM   15  P1  UNL     1      19.649   0.541  52.221  1.00  0.00    -0.007 P 
HETATM   16  C7  UNL     1      21.229   0.672  52.965  1.00  0.00    -0.034 A 
HETATM   17  C8  UNL     1      21.642  -0.165  54.141  1.00  0.00     0.051 C 
HETATM   18  C10 UNL     1      23.394   1.774  52.948  1.00  0.00     0.046 A 
BRANCH   9  19
HETATM   19  O1  UNL     1      24.871   4.368  50.863  1.00  0.00    -0.349 OA
BRANCH  19  20
HETATM   20  C2  UNL     1      25.353   4.165  49.548  1.00  0.00     0.171 C 
HETATM   21  C1  UNL     1      26.578   3.280  49.535  1.00  0.00     0.034 C 
ENDBRANCH  19  20
ENDBRANCH   9  19
ENDBRANCH   6   8
ENDBRANCH   5   6
BRANCH   5  22
HETATM   22  C16 UNL     1      28.037   2.391  53.401  1.00  0.00     0.066 C 
HETATM   23  C17 UNL     1      29.049   1.340  53.623  1.00  0.00     0.393 C 
HETATM   24  O2  UNL     1      29.812   0.415  53.808  1.00  0.00    -0.430 OA
ENDBRANCH   5  22
ENDBRANCH   1   5
TORSDOF 6
ENDMDL
MODEL 4
REMARK VINA RESULT:      -7.2      2.987      4.945
REMARK  6 active torsions:
REMARK  status: ('A' for Active; 'I' for Inactive)
REMARK    1  A    between atoms: C2_2  and  O1_3 
REMARK    2  A    between atoms: O1_3  and  C3_4 
REMARK    3  A    between atoms: C11_14  and  N2_15 
REMARK    4  A    between atoms: N2_15  and  C12_16 
REMARK    5  A    between atoms: C12_16  and  C13_17 
REMARK    6  A    between atoms: C12_16  and  C16_21 
ROOT
HETATM    1  C13 UNL     1      21.099   0.183  52.030  1.00  0.00     0.009 C 
HETATM    2  C14 UNL     1      20.294   0.984  51.369  1.00  0.00     0.091 C 
HETATM    3  C15 UNL     1      19.999   2.271  51.908  1.00  0.00     0.087 C 
HETATM    4  N3  UNL     1      19.743   3.315  52.340  1.00  0.00    -0.192 NA
ENDROOT
BRANCH   1   5
HETATM    5  C12 UNL     1      21.736   0.563  53.349  1.00  0.00     0.108 C 
BRANCH   5   6
HETATM    6  N2  UNL     1      23.158   0.500  53.245  1.00  0.00    -0.380 N 
HETATM    7  H12 UNL     1      23.624  -0.206  53.882  1.00  0.00     0.160 HD
BRANCH   6   8
HETATM    8  C11 UNL     1      24.128   1.197  52.453  1.00  0.00     0.063 A 
HETATM    9  C3  UNL     1      25.427   0.723  52.233  1.00  0.00     0.097 A 
HETATM   10  C4  UNL     1      26.253   1.478  51.439  1.00  0.00     0.071 A 
HETATM   11  C5  UNL     1      25.887   2.670  50.844  1.00  0.00     0.070 A 
HETATM   12  N1  UNL     1      26.878   3.190  50.130  1.00  0.00    -0.259 NA
HETATM   13  C9  UNL     1      24.619   3.157  51.043  1.00  0.00     0.002 A 
HETATM   14  C6  UNL     1      26.884   4.315  49.430  1.00  0.00     0.133 A 
HETATM   15  P1  UNL     1      25.374   5.204  49.474  1.00  0.00    -0.007 P 
HETATM   16  C7  UNL     1      24.212   4.346  50.465  1.00  0.00    -0.034 A 
HETATM   17  C8  UNL     1      22.819   4.852  50.701  1.00  0.00     0.051 C 
HETATM   18  C10 UNL     1      23.773   2.397  51.847  1.00  0.00     0.046 A 
BRANCH   9  19
HETATM   19  O1  UNL     1      25.778  -0.476  52.840  1.00  0.00    -0.349 OA
BRANCH  19  20
HETATM   20  C2  UNL     1      26.890  -0.468  53.717  1.00  0.00     0.171 C 
HETATM   21  C1  UNL     1      26.589   0.289  54.989  1.00  0.00     0.034 C 
ENDBRANCH  19  20
ENDBRANCH   9  19
ENDBRANCH   6   8
ENDBRANCH   5   6
BRANCH   5  22
HETATM   22  C16 UNL     1      21.155  -0.350  54.414  1.00  0.00     0.066 C 
HETATM   23  C17 UNL     1      22.220  -1.087  55.124  1.00  0.00     0.393 C 
HETATM   24  O2  UNL     1      23.155  -1.649  55.653  1.00  0.00    -0.430 OA
ENDBRANCH   5  22
ENDBRANCH   1   5
TORSDOF 6
ENDMDL
MODEL 5
REMARK VINA RESULT:      -7.0      2.847      5.274
REMARK  6 active torsions:
REMARK  status: ('A' for Active; 'I' for Inactive)
REMARK    1  A    between atoms: C2_2  and  O1_3 
REMARK    2  A    between atoms: O1_3  and  C3_4 
REMARK    3  A    between atoms: C11_14  and  N2_15 
REMARK    4  A    between atoms: N2_15  and  C12_16 
REMARK    5  A    between atoms: C12_16  and  C13_17 
REMARK    6  A    between atoms: C12_16  and  C16_21 
ROOT
HETATM    1  C13 UNL     1      23.813   4.823  51.548  1.00  0.00     0.009 C 
HETATM    2  C14 UNL     1      22.650   5.061  52.110  1.00  0.00     0.091 C 
HETATM    3  C15 UNL     1      21.460   4.622  51.456  1.00  0.00     0.087 C 
HETATM    4  N3  UNL     1      20.486   4.281  50.931  1.00  0.00    -0.192 NA
ENDROOT
BRANCH   1   5
HETATM    5  C12 UNL     1      23.955   4.100  50.225  1.00  0.00     0.108 C 
BRANCH   5   6
HETATM    6  N2  UNL     1      24.430   2.771  50.439  1.00  0.00    -0.380 N 
HETATM    7  H12 UNL     1      25.029   2.378  49.660  1.00  0.00     0.160 HD
BRANCH   6   8
HETATM    8  C11 UNL     1      24.277   1.820  51.500  1.00  0.00     0.063 A 
HETATM    9  C3  UNL     1      25.332   1.406  52.323  1.00  0.00     0.097 A 
HETATM   10  C4  UNL     1      25.047   0.503  53.315  1.00  0.00     0.071 A 
HETATM   11  C5  UNL     1      23.792  -0.023  53.554  1.00  0.00     0.070 A 
HETATM   12  N1  UNL     1      23.799  -0.874  54.574  1.00  0.00    -0.259 NA
HETATM   13  C9  UNL     1      22.739   0.366  52.763  1.00  0.00     0.002 A 
HETATM   14  C6  UNL     1      22.784  -1.560  55.079  1.00  0.00     0.133 A 
HETATM   15  P1  UNL     1      21.251  -1.284  54.275  1.00  0.00    -0.007 P 
HETATM   16  C7  UNL     1      21.467  -0.136  52.970  1.00  0.00    -0.034 A 
HETATM   17  C8  UNL     1      20.337   0.309  52.087  1.00  0.00     0.051 C 
HETATM   18  C10 UNL     1      23.019   1.283  51.753  1.00  0.00     0.046 A 
BRANCH   9  19
HETATM   19  O1  UNL     1      26.586   1.944  52.067  1.00  0.00    -0.349 OA
BRANCH  19  20
HETATM   20  C2  UNL     1      27.692   1.388  52.754  1.00  0.00     0.171 C 
HETATM   21  C1  UNL     1      28.432   2.433  53.555  1.00  0.00     0.034 C 
ENDBRANCH  19  20
ENDBRANCH   9  19
ENDBRANCH   6   8
ENDBRANCH   5   6
BRANCH   5  22
HETATM   22  C16 UNL     1      24.857   4.942  49.341  1.00  0.00     0.066 C 
HETATM   23  C17 UNL     1      26.233   4.407  49.319  1.00  0.00     0.393 C 
HETATM   24  O2  UNL     1      27.334   3.902  49.357  1.00  0.00    -0.430 OA
ENDBRANCH   5  22
ENDBRANCH   1   5
TORSDOF 6
ENDMDL
MODEL 6
REMARK VINA RESULT:      -6.9      3.515      6.285
REMARK  6 active torsions:
REMARK  status: ('A' for Active; 'I' for Inactive)
REMARK    1  A    between atoms: C2_2  and  O1_3 
REMARK    2  A    between atoms: O1_3  and  C3_4 
REMARK    3  A    between atoms: C11_14  and  N2_15 
REMARK    4  A    between atoms: N2_15  and  C12_16 
REMARK    5  A    between atoms: C12_16  and  C13_17 
REMARK    6  A    between atoms: C12_16  and  C16_21 
ROOT
HETATM    1  C13 UNL     1      26.689   3.893  49.427  1.00  0.00     0.009 C 
HETATM    2  C14 UNL     1      27.452   4.714  48.743  1.00  0.00     0.091 C 
HETATM    3  C15 UNL     1      27.024   6.061  48.549  1.00  0.00     0.087 C 
HETATM    4  N3  UNL     1      26.684   7.154  48.374  1.00  0.00    -0.192 NA
ENDROOT
BRANCH   1   5
HETATM    5  C12 UNL     1      25.362   4.309  50.025  1.00  0.00     0.108 C 
BRANCH   5   6
HETATM    6  N2  UNL     1      25.277   3.879  51.384  1.00  0.00    -0.380 N 
HETATM    7  H12 UNL     1      25.617   4.582  52.099  1.00  0.00     0.160 HD
BRANCH   6   8
HETATM    8  C11 UNL     1      24.826   2.676  52.018  1.00  0.00     0.063 A 
HETATM    9  C3  UNL     1      25.689   1.658  52.442  1.00  0.00     0.097 A 
HETATM   10  C4  UNL     1      25.129   0.565  53.053  1.00  0.00     0.071 A 
HETATM   11  C5  UNL     1      23.775   0.403  53.276  1.00  0.00     0.070 A 
HETATM   12  N1  UNL     1      23.508  -0.746  53.884  1.00  0.00    -0.259 NA
HETATM   13  C9  UNL     1      22.906   1.386  52.870  1.00  0.00     0.002 A 
HETATM   14  C6  UNL     1      22.330  -1.229  54.251  1.00  0.00     0.133 A 
HETATM   15  P1  UNL     1      20.971  -0.189  53.868  1.00  0.00    -0.007 P 
HETATM   16  C7  UNL     1      21.544   1.264  53.075  1.00  0.00    -0.034 A 
HETATM   17  C8  UNL     1      20.621   2.356  52.620  1.00  0.00     0.051 C 
HETATM   18  C10 UNL     1      23.466   2.500  52.250  1.00  0.00     0.046 A 
BRANCH   9  19
HETATM   19  O1  UNL     1      27.046   1.837  52.209  1.00  0.00    -0.349 OA
BRANCH  19  20
HETATM   20  C2  UNL     1      27.869   2.141  53.320  1.00  0.00     0.171 C 
HETATM   21  C1  UNL     1      28.867   1.040  53.591  1.00  0.00     0.034 C 
ENDBRANCH  19  20
ENDBRANCH   9  19
ENDBRANCH   6   8
ENDBRANCH   5   6
BRANCH   5  22
HETATM   22  C16 UNL     1      24.267   3.752  49.133  1.00  0.00     0.066 C 
HETATM   23  C17 UNL     1      23.458   4.836  48.541  1.00  0.00     0.393 C 
HETATM   24  O2  UNL     1      22.847   5.786  48.099  1.00  0.00    -0.430 OA
ENDBRANCH   5  22
ENDBRANCH   1   5
TORSDOF 6
ENDMDL
MODEL 7
REMARK VINA RESULT:      -6.9      1.534      2.819
REMARK  6 active torsions:
REMARK  status: ('A' for Active; 'I' for Inactive)
REMARK    1  A    between atoms: C2_2  and  O1_3 
REMARK    2  A    between atoms: O1_3  and  C3_4 
REMARK    3  A    between atoms: C11_14  and  N2_15 
REMARK    4  A    between atoms: N2_15  and  C12_16 
REMARK    5  A    between atoms: C12_16  and  C13_17 
REMARK    6  A    between atoms: C12_16  and  C16_21 
ROOT
HETATM    1  C13 UNL     1      21.317   0.597  50.381  1.00  0.00     0.009 C 
HETATM    2  C14 UNL     1      21.558   1.078  49.182  1.00  0.00     0.091 C 
HETATM    3  C15 UNL     1      22.347   2.259  49.054  1.00  0.00     0.087 C 
HETATM    4  N3  UNL     1      22.977   3.224  48.936  1.00  0.00    -0.192 NA
ENDROOT
BRANCH   1   5
HETATM    5  C12 UNL     1      21.840   1.242  51.646  1.00  0.00     0.108 C 
BRANCH   5   6
HETATM    6  N2  UNL     1      22.964   0.514  52.141  1.00  0.00    -0.380 N 
HETATM    7  H12 UNL     1      22.842  -0.537  52.167  1.00  0.00     0.160 HD
BRANCH   6   8
HETATM    8  C11 UNL     1      24.258   0.894  52.626  1.00  0.00     0.063 A 
HETATM    9  C3  UNL     1      24.559   2.180  53.092  1.00  0.00     0.097 A 
HETATM   10  C4  UNL     1      25.832   2.410  53.547  1.00  0.00     0.071 A 
HETATM   11  C5  UNL     1      26.833   1.458  53.576  1.00  0.00     0.070 A 
HETATM   12  N1  UNL     1      27.966   1.948  54.064  1.00  0.00    -0.259 NA
HETATM   13  C9  UNL     1      26.565   0.188  53.127  1.00  0.00     0.002 A 
HETATM   14  C6  UNL     1      29.124   1.326  54.238  1.00  0.00     0.133 A 
HETATM   15  P1  UNL     1      29.122  -0.357  53.749  1.00  0.00    -0.007 P 
HETATM   16  C7  UNL     1      27.539  -0.794  53.140  1.00  0.00    -0.034 A 
HETATM   17  C8  UNL     1      27.214  -2.172  52.642  1.00  0.00     0.051 C 
HETATM   18  C10 UNL     1      25.274  -0.053  52.663  1.00  0.00     0.046 A 
BRANCH   9  19
HETATM   19  O1  UNL     1      23.541   3.125  53.053  1.00  0.00    -0.349 OA
BRANCH  19  20
HETATM   20  C2  UNL     1      23.765   4.302  52.300  1.00  0.00     0.171 C 
HETATM   21  C1  UNL     1      22.482   5.064  52.064  1.00  0.00     0.034 C 
ENDBRANCH  19  20
ENDBRANCH   9  19
ENDBRANCH   6   8
ENDBRANCH   5   6
BRANCH   5  22
HETATM   22  C16 UNL     1      20.683   1.328  52.625  1.00  0.00     0.066 C 
HETATM   23  C17 UNL     1      19.864   2.531  52.378  1.00  0.00     0.393 C 
HETATM   24  O2  UNL     1      19.248   3.540  52.107  1.00  0.00    -0.430 OA
ENDBRANCH   5  22
ENDBRANCH   1   5
TORSDOF 6
ENDMDL
MODEL 8
REMARK VINA RESULT:      -6.6      1.899      2.181
REMARK  6 active torsions:
REMARK  status: ('A' for Active; 'I' for Inactive)
REMARK    1  A    between atoms: C2_2  and  O1_3 
REMARK    2  A    between atoms: O1_3  and  C3_4 
REMARK    3  A    between atoms: C11_14  and  N2_15 
REMARK    4  A    between atoms: N2_15  and  C12_16 
REMARK    5  A    between atoms: C12_16  and  C13_17 
REMARK    6  A    between atoms: C12_16  and  C16_21 
ROOT
HETATM    1  C13 UNL     1      21.092   2.491  51.560  1.00  0.00     0.009 C 
HETATM    2  C14 UNL     1      20.563   2.182  52.722  1.00  0.00     0.091 C 
HETATM    3  C15 UNL     1      20.847   0.908  53.298  1.00  0.00     0.087 C 
HETATM    4  N3  UNL     1      21.060  -0.127  53.772  1.00  0.00    -0.192 NA
ENDROOT
BRANCH   1   5
HETATM    5  C12 UNL     1      21.998   1.550  50.793  1.00  0.00     0.108 C 
BRANCH   5   6
HETATM    6  N2  UNL     1      23.232   2.198  50.485  1.00  0.00    -0.380 N 
HETATM    7  H12 UNL     1      23.197   2.862  49.662  1.00  0.00     0.160 HD
BRANCH   6   8
HETATM    8  C11 UNL     1      24.547   2.151  51.053  1.00  0.00     0.063 A 
HETATM    9  C3  UNL     1      25.597   2.976  50.633  1.00  0.00     0.097 A 
HETATM   10  C4  UNL     1      26.804   2.843  51.272  1.00  0.00     0.071 A 
HETATM   11  C5  UNL     1      27.049   1.952  52.299  1.00  0.00     0.070 A 
HETATM   12  N1  UNL     1      28.301   2.033  52.734  1.00  0.00    -0.259 NA
HETATM   13  C9  UNL     1      26.037   1.131  52.730  1.00  0.00     0.002 A 
HETATM   14  C6  UNL     1      28.882   1.335  53.700  1.00  0.00     0.133 A 
HETATM   15  P1  UNL     1      27.834   0.165  54.479  1.00  0.00    -0.007 P 
HETATM   16  C7  UNL     1      26.241   0.226  53.756  1.00  0.00    -0.034 A 
HETATM   17  C8  UNL     1      25.113  -0.658  54.205  1.00  0.00     0.051 C 
HETATM   18  C10 UNL     1      24.808   1.259  52.087  1.00  0.00     0.046 A 
BRANCH   9  19
HETATM   19  O1  UNL     1      25.333   3.865  49.599  1.00  0.00    -0.349 OA
BRANCH  19  20
HETATM   20  C2  UNL     1      25.599   5.237  49.828  1.00  0.00     0.171 C 
HETATM   21  C1  UNL     1      24.519   5.880  50.665  1.00  0.00     0.034 C 
ENDBRANCH  19  20
ENDBRANCH   9  19
ENDBRANCH   6   8
ENDBRANCH   5   6
BRANCH   5  22
HETATM   22  C16 UNL     1      21.230   1.075  49.573  1.00  0.00     0.066 C 
HETATM   23  C17 UNL     1      21.911   1.474  48.325  1.00  0.00     0.393 C 
HETATM   24  O2  UNL     1      22.534   1.842  47.352  1.00  0.00    -0.430 OA
ENDBRANCH   5  22
ENDBRANCH   1   5
TORSDOF 6
ENDMDL
MODEL 9
REMARK VINA RESULT:      -6.6      2.785      5.549
REMARK  6 active torsions:
REMARK  status: ('A' for Active; 'I' for Inactive)
REMARK    1  A    between atoms: C2_2  and  O1_3 
REMARK    2  A    between atoms: O1_3  and  C3_4 
REMARK    3  A    between atoms: C11_14  and  N2_15 
REMARK    4  A    between atoms: N2_15  and  C12_16 
REMARK    5  A    between atoms: C12_16  and  C13_17 
REMARK    6  A    between atoms: C12_16  and  C16_21 
ROOT
HETATM    1  C13 UNL     1      26.751   1.196  51.661  1.00  0.00     0.009 C 
HETATM    2  C14 UNL     1      27.574   0.796  52.604  1.00  0.00     0.091 C 
HETATM    3  C15 UNL     1      28.237   1.771  53.406  1.00  0.00     0.087 C 
HETATM    4  N3  UNL     1      28.790   2.553  54.058  1.00  0.00    -0.192 NA
ENDROOT
BRANCH   1   5
HETATM    5  C12 UNL     1      26.468   2.656  51.381  1.00  0.00     0.108 C 
BRANCH   5   6
HETATM    6  N2  UNL     1      25.239   3.046  51.993  1.00  0.00    -0.380 N 
HETATM    7  H12 UNL     1      25.254   3.991  52.468  1.00  0.00     0.160 HD
BRANCH   6   8
HETATM    8  C11 UNL     1      23.951   2.430  52.113  1.00  0.00     0.063 A 
HETATM    9  C3  UNL     1      22.825   2.851  51.395  1.00  0.00     0.097 A 
HETATM   10  C4  UNL     1      21.654   2.164  51.589  1.00  0.00     0.071 A 
HETATM   11  C5  UNL     1      21.514   1.086  52.443  1.00  0.00     0.070 A 
HETATM   12  N1  UNL     1      20.274   0.610  52.438  1.00  0.00    -0.259 NA
HETATM   13  C9  UNL     1      22.602   0.652  53.159  1.00  0.00     0.002 A 
HETATM   14  C6  UNL     1      19.782  -0.408  53.129  1.00  0.00     0.133 A 
HETATM   15  P1  UNL     1      20.944  -1.205  54.171  1.00  0.00    -0.007 P 
HETATM   16  C7  UNL     1      22.504  -0.423  54.023  1.00  0.00    -0.034 A 
HETATM   17  C8  UNL     1      23.712  -0.874  54.792  1.00  0.00     0.051 C 
HETATM   18  C10 UNL     1      23.795   1.344  52.968  1.00  0.00     0.046 A 
BRANCH   9  19
HETATM   19  O1  UNL     1      22.983   3.936  50.542  1.00  0.00    -0.349 OA
BRANCH  19  20
HETATM   20  C2  UNL     1      21.876   4.800  50.365  1.00  0.00     0.171 C 
HETATM   21  C1  UNL     1      21.869   5.912  51.386  1.00  0.00     0.034 C 
ENDBRANCH  19  20
ENDBRANCH   9  19
ENDBRANCH   6   8
ENDBRANCH   5   6
BRANCH   5  22
HETATM   22  C16 UNL     1      26.494   2.843  49.875  1.00  0.00     0.066 C 
HETATM   23  C17 UNL     1      26.397   4.271  49.513  1.00  0.00     0.393 C 
HETATM   24  O2  UNL     1      26.313   5.463  49.305  1.00  0.00    -0.430 OA
ENDBRANCH   5  22
ENDBRANCH   1   5
TORSDOF 6
ENDMDL
