MODEL 1
REMARK VINA RESULT:      -9.4      0.000      0.000
REMARK  4 active torsions:
REMARK  status: ('A' for Active; 'I' for Inactive)
REMARK    1  A    between atoms: O1_2  and  C2_3 
REMARK    2  A    between atoms: C9_12  and  C10_13 
REMARK    3  A    between atoms: C10_13  and  C11_14 
REMARK    4  A    between atoms: C11_14  and  C12_15 
ROOT
HETATM    1  C2  UNL     1      21.910   4.671  48.179  1.00  0.00     0.082 C 
HETATM    2  C3  UNL     1      21.386   3.826  49.142  1.00  0.00     0.092 C 
HETATM    3  C4  UNL     1      20.246   4.224  49.884  1.00  0.00     0.004 C 
HETATM    4  C5  UNL     1      19.824   3.390  50.784  1.00  0.00    -0.058 C 
HETATM    5  C6  UNL     1      18.620   3.862  51.517  1.00  0.00     0.046 C 
HETATM    6  C7  UNL     1      20.327   2.123  51.337  1.00  0.00     0.235 C 
HETATM    7  O2  UNL     1      21.543   1.794  50.735  1.00  0.00    -0.273 OA
HETATM    8  N1  UNL     1      22.357   1.171  51.647  1.00  0.00    -0.249 N 
HETATM    9  C8  UNL     1      23.541   1.945  51.940  1.00  0.00     0.065 C 
HETATM   10  C9  UNL     1      24.178   1.567  53.015  1.00  0.00    -0.021 C 
HETATM   11  C13 UNL     1      23.535   0.366  53.531  1.00  0.00    -0.028 C 
HETATM   12  C14 UNL     1      23.543  -0.455  54.531  1.00  0.00    -0.017 C 
HETATM   13  C15 UNL     1      22.694  -1.639  54.722  1.00  0.00     0.028 C 
HETATM   14  C16 UNL     1      21.385  -1.531  54.050  1.00  0.00     0.006 C 
HETATM   15  C17 UNL     1      21.243  -0.243  53.299  1.00  0.00     0.033 C 
HETATM   16  C18 UNL     1      22.497   0.003  52.496  1.00  0.00     0.148 C 
HETATM   17  C19 UNL     1      24.141   2.988  51.187  1.00  0.00     0.041 C 
HETATM   18  C20 UNL     1      24.778   3.874  50.510  1.00  0.00    -0.020 C 
HETATM   19  C21 UNL     1      26.197   3.643  50.230  1.00  0.00     0.309 C 
HETATM   20  N2  UNL     1      26.618   4.849  49.554  1.00  0.00     0.091 N 
HETATM   21  C22 UNL     1      25.422   5.383  48.908  1.00  0.00     0.309 C 
HETATM   22  C23 UNL     1      24.330   5.095  49.840  1.00  0.00    -0.022 C 
HETATM   23  C24 UNL     1      23.298   5.912  49.879  1.00  0.00     0.010 C 
HETATM   24  C25 UNL     1      22.644   7.091  49.367  1.00  0.00     0.012 C 
HETATM   25  C26 UNL     1      21.448   7.019  48.833  1.00  0.00    -0.027 C 
HETATM   26  C27 UNL     1      21.216   5.987  48.030  1.00  0.00     0.022 C 
HETATM   27  H27 UNL     1      26.958   5.509  50.302  1.00  0.00     0.316 HD
ENDROOT
BRANCH  10  28
HETATM   28  C10 UNL     1      25.394   2.124  53.620  1.00  0.00     0.048 C 
BRANCH  28  29
HETATM   29  C11 UNL     1      26.620   1.276  53.271  1.00  0.00     0.075 C 
BRANCH  29  30
HETATM   30  C12 UNL     1      27.813   2.150  53.074  1.00  0.00     0.117 A 
HETATM   31  O3  UNL     1      28.163   2.634  54.205  1.00  0.00    -0.194 OA
HETATM   32  O4  UNL     1      28.907   2.976  53.016  1.00  0.00     0.000 OA
HETATM   33  H15 UNL     1      29.505   2.915  52.192  1.00  0.00     0.000 HD
ENDBRANCH  29  30
ENDBRANCH  28  29
ENDBRANCH  10  28
BRANCH   1  34
HETATM   34  O1  UNL     1      22.706   5.242  47.141  1.00  0.00    -0.382 OA
HETATM   35  C1  UNL     1      22.183   5.063  45.820  1.00  0.00     0.202 C 
ENDBRANCH   1  34
TORSDOF 4
ENDMDL
MODEL 2
REMARK VINA RESULT:      -9.1      2.054      4.907
REMARK  4 active torsions:
REMARK  status: ('A' for Active; 'I' for Inactive)
REMARK    1  A    between atoms: O1_2  and  C2_3 
REMARK    2  A    between atoms: C9_12  and  C10_13 
REMARK    3  A    between atoms: C10_13  and  C11_14 
REMARK    4  A    between atoms: C11_14  and  C12_15 
ROOT
HETATM    1  C2  UNL     1      22.982   6.503  49.365  1.00  0.00     0.082 C 
HETATM    2  C3  UNL     1      23.920   5.641  49.908  1.00  0.00     0.092 C 
HETATM    3  C4  UNL     1      25.066   5.282  49.156  1.00  0.00     0.004 C 
HETATM    4  C5  UNL     1      25.889   4.454  49.721  1.00  0.00    -0.058 C 
HETATM    5  C6  UNL     1      27.075   4.127  48.885  1.00  0.00     0.046 C 
HETATM    6  C7  UNL     1      25.873   3.663  50.962  1.00  0.00     0.235 C 
HETATM    7  O2  UNL     1      24.672   3.874  51.641  1.00  0.00    -0.273 OA
HETATM    8  N1  UNL     1      24.287   2.718  52.272  1.00  0.00    -0.249 N 
HETATM    9  C8  UNL     1      23.052   2.190  51.739  1.00  0.00     0.065 C 
HETATM   10  C9  UNL     1      22.811   0.950  52.069  1.00  0.00    -0.021 C 
HETATM   11  C13 UNL     1      23.843   0.514  53.000  1.00  0.00    -0.028 C 
HETATM   12  C14 UNL     1      24.284  -0.526  53.631  1.00  0.00    -0.017 C 
HETATM   13  C15 UNL     1      25.426  -0.593  54.553  1.00  0.00     0.028 C 
HETATM   14  C16 UNL     1      26.463   0.418  54.271  1.00  0.00     0.006 C 
HETATM   15  C17 UNL     1      26.088   1.302  53.122  1.00  0.00     0.033 C 
HETATM   16  C18 UNL     1      24.657   1.753  53.289  1.00  0.00     0.148 C 
HETATM   17  C19 UNL     1      22.044   2.850  50.988  1.00  0.00     0.041 C 
HETATM   18  C20 UNL     1      21.060   3.411  50.384  1.00  0.00    -0.020 C 
HETATM   19  C21 UNL     1      19.722   3.268  50.962  1.00  0.00     0.309 C 
HETATM   20  N2  UNL     1      18.859   3.919  50.003  1.00  0.00     0.091 N 
HETATM   21  C22 UNL     1      19.688   4.916  49.332  1.00  0.00     0.309 C 
HETATM   22  C23 UNL     1      21.009   4.294  49.219  1.00  0.00    -0.022 C 
HETATM   23  C24 UNL     1      21.777   4.619  48.201  1.00  0.00     0.010 C 
HETATM   24  C25 UNL     1      21.968   5.403  47.005  1.00  0.00     0.012 C 
HETATM   25  C26 UNL     1      22.977   6.234  46.899  1.00  0.00    -0.027 C 
HETATM   26  C27 UNL     1      23.263   6.964  47.971  1.00  0.00     0.022 C 
HETATM   27  H27 UNL     1      18.554   3.175  49.321  1.00  0.00     0.316 HD
ENDROOT
BRANCH  10  28
HETATM   28  C10 UNL     1      21.677   0.095  51.701  1.00  0.00     0.048 C 
BRANCH  28  29
HETATM   29  C11 UNL     1      20.544   0.214  52.723  1.00  0.00     0.075 C 
BRANCH  29  30
HETATM   30  C12 UNL     1      20.694  -0.823  53.785  1.00  0.00     0.117 A 
HETATM   31  O3  UNL     1      21.023  -0.249  54.880  1.00  0.00    -0.194 OA
HETATM   32  O4  UNL     1      20.862  -1.683  54.841  1.00  0.00     0.000 OA
HETATM   33  H15 UNL     1      20.452  -2.614  54.765  1.00  0.00     0.000 HD
ENDBRANCH  29  30
ENDBRANCH  28  29
ENDBRANCH  10  28
BRANCH   1  34
HETATM   34  O1  UNL     1      21.841   7.335  49.157  1.00  0.00    -0.382 OA
HETATM   35  C1  UNL     1      21.332   7.958  50.342  1.00  0.00     0.202 C 
ENDBRANCH   1  34
TORSDOF 4
ENDMDL
MODEL 3
REMARK VINA RESULT:      -8.8      2.198      3.518
REMARK  4 active torsions:
REMARK  status: ('A' for Active; 'I' for Inactive)
REMARK    1  A    between atoms: O1_2  and  C2_3 
REMARK    2  A    between atoms: C9_12  and  C10_13 
REMARK    3  A    between atoms: C10_13  and  C11_14 
REMARK    4  A    between atoms: C11_14  and  C12_15 
ROOT
HETATM    1  C2  UNL     1      24.492   7.740  47.156  1.00  0.00     0.082 C 
HETATM    2  C3  UNL     1      23.470   6.995  47.720  1.00  0.00     0.092 C 
HETATM    3  C4  UNL     1      22.460   7.644  48.475  1.00  0.00     0.004 C 
HETATM    4  C5  UNL     1      21.548   6.879  48.991  1.00  0.00    -0.058 C 
HETATM    5  C6  UNL     1      20.513   7.621  49.760  1.00  0.00     0.046 C 
HETATM    6  C7  UNL     1      21.352   5.424  49.094  1.00  0.00     0.235 C 
HETATM    7  O2  UNL     1      22.427   4.760  48.500  1.00  0.00    -0.273 OA
HETATM    8  N1  UNL     1      22.692   3.602  49.187  1.00  0.00    -0.249 N 
HETATM    9  C8  UNL     1      23.994   3.626  49.815  1.00  0.00     0.065 C 
HETATM   10  C9  UNL     1      24.166   2.710  50.728  1.00  0.00    -0.021 C 
HETATM   11  C13 UNL     1      22.991   1.848  50.742  1.00  0.00    -0.028 C 
HETATM   12  C14 UNL     1      22.443   0.869  51.386  1.00  0.00    -0.017 C 
HETATM   13  C15 UNL     1      21.165   0.208  51.087  1.00  0.00     0.028 C 
HETATM   14  C16 UNL     1      20.197   1.092  50.409  1.00  0.00     0.006 C 
HETATM   15  C17 UNL     1      20.764   2.455  50.153  1.00  0.00     0.033 C 
HETATM   16  C18 UNL     1      22.152   2.314  49.577  1.00  0.00     0.148 C 
HETATM   17  C19 UNL     1      25.117   4.442  49.522  1.00  0.00     0.041 C 
HETATM   18  C20 UNL     1      26.192   5.088  49.246  1.00  0.00    -0.020 C 
HETATM   19  C21 UNL     1      27.415   4.321  49.001  1.00  0.00     0.309 C 
HETATM   20  N2  UNL     1      28.431   5.335  48.825  1.00  0.00     0.091 N 
HETATM   21  C22 UNL     1      27.733   6.517  48.329  1.00  0.00     0.309 C 
HETATM   22  C23 UNL     1      26.443   6.512  49.022  1.00  0.00    -0.022 C 
HETATM   23  C24 UNL     1      25.855   7.662  49.275  1.00  0.00     0.010 C 
HETATM   24  C25 UNL     1      25.871   9.100  49.169  1.00  0.00     0.012 C 
HETATM   25  C26 UNL     1      24.900   9.741  48.564  1.00  0.00    -0.027 C 
HETATM   26  C27 UNL     1      24.448   9.208  47.434  1.00  0.00     0.022 C 
HETATM   27  H27 UNL     1      28.837   5.521  49.779  1.00  0.00     0.316 HD
ENDROOT
BRANCH  10  28
HETATM   28  C10 UNL     1      25.337   2.447  51.572  1.00  0.00     0.048 C 
BRANCH  28  29
HETATM   29  C11 UNL     1      25.003   2.640  53.053  1.00  0.00     0.075 C 
BRANCH  29  30
HETATM   30  C12 UNL     1      25.864   1.760  53.897  1.00  0.00     0.117 A 
HETATM   31  O3  UNL     1      26.930   2.397  54.204  1.00  0.00    -0.194 OA
HETATM   32  O4  UNL     1      26.739   1.046  54.676  1.00  0.00     0.000 OA
HETATM   33  H15 UNL     1      26.377   0.231  55.171  1.00  0.00     0.000 HD
ENDBRANCH  29  30
ENDBRANCH  28  29
ENDBRANCH  10  28
BRANCH   1  34
HETATM   34  O1  UNL     1      25.658   8.150  46.443  1.00  0.00    -0.382 OA
HETATM   35  C1  UNL     1      25.428   8.510  45.077  1.00  0.00     0.202 C 
ENDBRANCH   1  34
TORSDOF 4
ENDMDL
MODEL 4
REMARK VINA RESULT:      -8.4      2.051      5.308
REMARK  4 active torsions:
REMARK  status: ('A' for Active; 'I' for Inactive)
REMARK    1  A    between atoms: O1_2  and  C2_3 
REMARK    2  A    between atoms: C9_12  and  C10_13 
REMARK    3  A    between atoms: C10_13  and  C11_14 
REMARK    4  A    between atoms: C11_14  and  C12_15 
ROOT
HETATM    1  C2  UNL     1      22.975   6.677  49.066  1.00  0.00     0.082 C 
HETATM    2  C3  UNL     1      23.825   5.775  49.683  1.00  0.00     0.092 C 
HETATM    3  C4  UNL     1      25.036   5.401  49.049  1.00  0.00     0.004 C 
HETATM    4  C5  UNL     1      25.771   4.535  49.677  1.00  0.00    -0.058 C 
HETATM    5  C6  UNL     1      27.031   4.194  48.964  1.00  0.00     0.046 C 
HETATM    6  C7  UNL     1      25.599   3.715  50.887  1.00  0.00     0.235 C 
HETATM    7  O2  UNL     1      24.338   3.946  51.439  1.00  0.00    -0.273 OA
HETATM    8  N1  UNL     1      23.857   2.786  51.993  1.00  0.00    -0.249 N 
HETATM    9  C8  UNL     1      22.673   2.309  51.316  1.00  0.00     0.065 C 
HETATM   10  C9  UNL     1      22.364   1.069  51.584  1.00  0.00    -0.021 C 
HETATM   11  C13 UNL     1      23.277   0.580  52.610  1.00  0.00    -0.028 C 
HETATM   12  C14 UNL     1      23.620  -0.488  53.255  1.00  0.00    -0.017 C 
HETATM   13  C15 UNL     1      24.653  -0.611  54.293  1.00  0.00     0.028 C 
HETATM   14  C16 UNL     1      25.741   0.376  54.151  1.00  0.00     0.006 C 
HETATM   15  C17 UNL     1      25.516   1.298  52.993  1.00  0.00     0.033 C 
HETATM   16  C18 UNL     1      24.088   1.786  53.017  1.00  0.00     0.148 C 
HETATM   17  C19 UNL     1      21.770   3.015  50.479  1.00  0.00     0.041 C 
HETATM   18  C20 UNL     1      20.873   3.620  49.789  1.00  0.00    -0.020 C 
HETATM   19  C21 UNL     1      19.476   3.502  50.216  1.00  0.00     0.309 C 
HETATM   20  N2  UNL     1      18.740   4.201  49.187  1.00  0.00     0.091 N 
HETATM   21  C22 UNL     1      19.662   5.189  48.636  1.00  0.00     0.309 C 
HETATM   22  C23 UNL     1      20.971   4.531  48.649  1.00  0.00    -0.022 C 
HETATM   23  C24 UNL     1      21.853   4.858  47.729  1.00  0.00     0.010 C 
HETATM   24  C25 UNL     1      22.193   5.665  46.582  1.00  0.00     0.012 C 
HETATM   25  C26 UNL     1      23.230   6.467  46.607  1.00  0.00    -0.027 C 
HETATM   26  C27 UNL     1      23.418   7.163  47.723  1.00  0.00     0.022 C 
HETATM   27  H27 UNL     1      18.490   3.483  48.457  1.00  0.00     0.316 HD
ENDROOT
BRANCH  10  28
HETATM   28  C10 UNL     1      21.255   0.256  51.074  1.00  0.00     0.048 C 
BRANCH  28  29
HETATM   29  C11 UNL     1      20.127   0.155  52.105  1.00  0.00     0.075 C 
BRANCH  29  30
HETATM   30  C12 UNL     1      18.821  -0.078  51.421  1.00  0.00     0.117 A 
HETATM   31  O3  UNL     1      17.992   0.821  51.798  1.00  0.00    -0.194 OA
HETATM   32  O4  UNL     1      17.577  -0.192  50.854  1.00  0.00     0.000 OA
HETATM   33  H15 UNL     1      17.490  -0.755  50.009  1.00  0.00     0.000 HD
ENDBRANCH  29  30
ENDBRANCH  28  29
ENDBRANCH  10  28
BRANCH   1  34
HETATM   34  O1  UNL     1      21.886   7.547  48.760  1.00  0.00    -0.382 OA
HETATM   35  C1  UNL     1      21.631   8.555  49.744  1.00  0.00     0.202 C 
ENDBRANCH   1  34
TORSDOF 4
ENDMDL
MODEL 5
REMARK VINA RESULT:      -8.3      3.661      7.170
REMARK  4 active torsions:
REMARK  status: ('A' for Active; 'I' for Inactive)
REMARK    1  A    between atoms: O1_2  and  C2_3 
REMARK    2  A    between atoms: C9_12  and  C10_13 
REMARK    3  A    between atoms: C10_13  and  C11_14 
REMARK    4  A    between atoms: C11_14  and  C12_15 
ROOT
HETATM    1  C2  UNL     1      15.210   2.306  51.208  1.00  0.00     0.082 C 
HETATM    2  C3  UNL     1      16.362   3.051  51.018  1.00  0.00     0.092 C 
HETATM    3  C4  UNL     1      16.584   3.701  49.778  1.00  0.00     0.004 C 
HETATM    4  C5  UNL     1      17.694   4.363  49.666  1.00  0.00    -0.058 C 
HETATM    5  C6  UNL     1      17.861   5.030  48.348  1.00  0.00     0.046 C 
HETATM    6  C7  UNL     1      18.895   4.520  50.503  1.00  0.00     0.235 C 
HETATM    7  O2  UNL     1      18.768   3.751  51.661  1.00  0.00    -0.273 OA
HETATM    8  N1  UNL     1      19.996   3.260  52.027  1.00  0.00    -0.249 N 
HETATM    9  C8  UNL     1      20.053   1.819  51.947  1.00  0.00     0.065 C 
HETATM   10  C9  UNL     1      21.263   1.327  51.970  1.00  0.00    -0.021 C 
HETATM   11  C13 UNL     1      22.199   2.421  52.197  1.00  0.00    -0.028 C 
HETATM   12  C14 UNL     1      23.461   2.700  52.242  1.00  0.00    -0.017 C 
HETATM   13  C15 UNL     1      24.078   4.004  52.522  1.00  0.00     0.028 C 
HETATM   14  C16 UNL     1      23.229   5.145  52.131  1.00  0.00     0.006 C 
HETATM   15  C17 UNL     1      21.914   4.701  51.568  1.00  0.00     0.033 C 
HETATM   16  C18 UNL     1      21.331   3.629  52.456  1.00  0.00     0.148 C 
HETATM   17  C19 UNL     1      18.991   0.877  51.930  1.00  0.00     0.041 C 
HETATM   18  C20 UNL     1      18.080  -0.024  52.000  1.00  0.00    -0.020 C 
HETATM   19  C21 UNL     1      18.210  -1.061  53.026  1.00  0.00     0.309 C 
HETATM   20  N2  UNL     1      17.099  -1.947  52.767  1.00  0.00     0.091 N 
HETATM   21  C22 UNL     1      16.074  -1.126  52.129  1.00  0.00     0.309 C 
HETATM   22  C23 UNL     1      16.815  -0.187  51.284  1.00  0.00    -0.022 C 
HETATM   23  C24 UNL     1      16.250   0.252  50.179  1.00  0.00     0.010 C 
HETATM   24  C25 UNL     1      15.103   0.263  49.305  1.00  0.00     0.012 C 
HETATM   25  C26 UNL     1      14.482   1.383  49.023  1.00  0.00    -0.027 C 
HETATM   26  C27 UNL     1      14.293   2.228  50.030  1.00  0.00     0.022 C 
HETATM   27  H27 UNL     1      17.450  -2.682  52.098  1.00  0.00     0.316 HD
ENDROOT
BRANCH  10  28
HETATM   28  C10 UNL     1      21.699  -0.071  51.893  1.00  0.00     0.048 C 
BRANCH  28  29
HETATM   29  C11 UNL     1      22.603  -0.432  53.074  1.00  0.00     0.075 C 
BRANCH  29  30
HETATM   30  C12 UNL     1      21.828  -1.181  54.107  1.00  0.00     0.117 A 
HETATM   31  O3  UNL     1      21.358  -0.347  54.956  1.00  0.00    -0.194 OA
HETATM   32  O4  UNL     1      21.094  -1.758  55.112  1.00  0.00     0.000 OA
HETATM   33  H15 UNL     1      20.743  -2.704  54.961  1.00  0.00     0.000 HD
ENDBRANCH  29  30
ENDBRANCH  28  29
ENDBRANCH  10  28
BRANCH   1  34
HETATM   34  O1  UNL     1      14.184   1.484  51.763  1.00  0.00    -0.382 OA
HETATM   35  C1  UNL     1      13.895   1.739  53.142  1.00  0.00     0.202 C 
ENDBRANCH   1  34
TORSDOF 4
ENDMDL
MODEL 6
REMARK VINA RESULT:      -8.2      2.904      6.553
REMARK  4 active torsions:
REMARK  status: ('A' for Active; 'I' for Inactive)
REMARK    1  A    between atoms: O1_2  and  C2_3 
REMARK    2  A    between atoms: C9_12  and  C10_13 
REMARK    3  A    between atoms: C10_13  and  C11_14 
REMARK    4  A    between atoms: C11_14  and  C12_15 
ROOT
HETATM    1  C2  UNL     1      16.284   1.769  51.606  1.00  0.00     0.082 C 
HETATM    2  C3  UNL     1      17.089   2.775  51.097  1.00  0.00     0.092 C 
HETATM    3  C4  UNL     1      16.976   3.143  49.732  1.00  0.00     0.004 C 
HETATM    4  C5  UNL     1      17.777   4.078  49.321  1.00  0.00    -0.058 C 
HETATM    5  C6  UNL     1      17.602   4.425  47.886  1.00  0.00     0.046 C 
HETATM    6  C7  UNL     1      18.909   4.806  49.915  1.00  0.00     0.235 C 
HETATM    7  O2  UNL     1      19.146   4.340  51.209  1.00  0.00    -0.273 OA
HETATM    8  N1  UNL     1      20.492   4.370  51.473  1.00  0.00    -0.249 N 
HETATM    9  C8  UNL     1      21.038   3.048  51.676  1.00  0.00     0.065 C 
HETATM   10  C9  UNL     1      22.341   2.989  51.612  1.00  0.00    -0.021 C 
HETATM   11  C13 UNL     1      22.855   4.345  51.468  1.00  0.00    -0.028 C 
HETATM   12  C14 UNL     1      23.943   5.015  51.263  1.00  0.00    -0.017 C 
HETATM   13  C15 UNL     1      24.090   6.475  51.177  1.00  0.00     0.028 C 
HETATM   14  C16 UNL     1      22.871   7.156  50.700  1.00  0.00     0.006 C 
HETATM   15  C17 UNL     1      21.752   6.193  50.446  1.00  0.00     0.033 C 
HETATM   16  C18 UNL     1      21.645   5.238  51.610  1.00  0.00     0.148 C 
HETATM   17  C19 UNL     1      20.370   1.841  52.012  1.00  0.00     0.041 C 
HETATM   18  C20 UNL     1      19.835   0.741  52.400  1.00  0.00    -0.020 C 
HETATM   19  C21 UNL     1      20.394   0.079  53.581  1.00  0.00     0.309 C 
HETATM   20  N2  UNL     1      19.641  -1.151  53.678  1.00  0.00     0.091 N 
HETATM   21  C22 UNL     1      18.350  -0.879  53.053  1.00  0.00     0.309 C 
HETATM   22  C23 UNL     1      18.653   0.015  51.934  1.00  0.00    -0.022 C 
HETATM   23  C24 UNL     1      17.889  -0.028  50.863  1.00  0.00     0.010 C 
HETATM   24  C25 UNL     1      16.745  -0.595  50.191  1.00  0.00     0.012 C 
HETATM   25  C26 UNL     1      15.756   0.165  49.789  1.00  0.00    -0.027 C 
HETATM   26  C27 UNL     1      15.363   1.122  50.623  1.00  0.00     0.022 C 
HETATM   27  H27 UNL     1      20.173  -1.872  53.124  1.00  0.00     0.316 HD
ENDROOT
BRANCH  10  28
HETATM   28  C10 UNL     1      23.227   1.828  51.750  1.00  0.00     0.048 C 
BRANCH  28  29
HETATM   29  C11 UNL     1      23.810   1.746  53.163  1.00  0.00     0.075 C 
BRANCH  29  30
HETATM   30  C12 UNL     1      25.231   2.203  53.163  1.00  0.00     0.117 A 
HETATM   31  O3  UNL     1      25.895   1.487  53.991  1.00  0.00    -0.194 OA
HETATM   32  O4  UNL     1      26.560   2.534  53.250  1.00  0.00     0.000 OA
HETATM   33  H15 UNL     1      26.963   3.081  52.490  1.00  0.00     0.000 HD
ENDBRANCH  29  30
ENDBRANCH  28  29
ENDBRANCH  10  28
BRANCH   1  34
HETATM   34  O1  UNL     1      15.651   0.822  52.465  1.00  0.00    -0.382 OA
HETATM   35  C1  UNL     1      14.391   1.246  52.997  1.00  0.00     0.202 C 
ENDBRANCH   1  34
TORSDOF 4
ENDMDL
MODEL 7
REMARK VINA RESULT:      -8.1      2.376      5.562
REMARK  4 active torsions:
REMARK  status: ('A' for Active; 'I' for Inactive)
REMARK    1  A    between atoms: O1_2  and  C2_3 
REMARK    2  A    between atoms: C9_12  and  C10_13 
REMARK    3  A    between atoms: C10_13  and  C11_14 
REMARK    4  A    between atoms: C11_14  and  C12_15 
ROOT
HETATM    1  C2  UNL     1      23.115   5.878  50.280  1.00  0.00     0.082 C 
HETATM    2  C3  UNL     1      23.568   4.731  50.909  1.00  0.00     0.092 C 
HETATM    3  C4  UNL     1      24.722   4.068  50.422  1.00  0.00     0.004 C 
HETATM    4  C5  UNL     1      25.074   2.988  51.050  1.00  0.00    -0.058 C 
HETATM    5  C6  UNL     1      26.297   2.348  50.497  1.00  0.00     0.046 C 
HETATM    6  C7  UNL     1      24.479   2.173  52.120  1.00  0.00     0.235 C 
HETATM    7  O2  UNL     1      23.252   2.717  52.503  1.00  0.00    -0.273 OA
HETATM    8  N1  UNL     1      22.385   1.710  52.845  1.00  0.00    -0.249 N 
HETATM    9  C8  UNL     1      21.252   1.639  51.951  1.00  0.00     0.065 C 
HETATM   10  C9  UNL     1      20.576   0.524  52.029  1.00  0.00    -0.021 C 
HETATM   11  C13 UNL     1      21.129  -0.273  53.116  1.00  0.00    -0.028 C 
HETATM   12  C14 UNL     1      21.052  -1.435  53.680  1.00  0.00    -0.017 C 
HETATM   13  C15 UNL     1      21.816  -1.918  54.839  1.00  0.00     0.028 C 
HETATM   14  C16 UNL     1      23.139  -1.278  54.971  1.00  0.00     0.006 C 
HETATM   15  C17 UNL     1      23.378  -0.254  53.905  1.00  0.00     0.033 C 
HETATM   16  C18 UNL     1      22.154   0.620  53.773  1.00  0.00     0.148 C 
HETATM   17  C19 UNL     1      20.734   2.629  51.076  1.00  0.00     0.041 C 
HETATM   18  C20 UNL     1      20.169   3.510  50.333  1.00  0.00    -0.020 C 
HETATM   19  C21 UNL     1      18.741   3.770  50.534  1.00  0.00     0.309 C 
HETATM   20  N2  UNL     1      18.412   4.717  49.493  1.00  0.00     0.091 N 
HETATM   21  C22 UNL     1      19.650   5.434  49.200  1.00  0.00     0.309 C 
HETATM   22  C23 UNL     1      20.707   4.430  49.331  1.00  0.00    -0.022 C 
HETATM   23  C24 UNL     1      21.791   4.550  48.594  1.00  0.00     0.010 C 
HETATM   24  C25 UNL     1      22.530   5.301  47.609  1.00  0.00     0.012 C 
HETATM   25  C26 UNL     1      23.726   5.769  47.877  1.00  0.00    -0.027 C 
HETATM   26  C27 UNL     1      23.899   6.305  49.080  1.00  0.00     0.022 C 
HETATM   27  H27 UNL     1      18.107   4.152  48.658  1.00  0.00     0.316 HD
ENDROOT
BRANCH  10  28
HETATM   28  C10 UNL     1      19.393   0.100  51.273  1.00  0.00     0.048 C 
BRANCH  28  29
HETATM   29  C11 UNL     1      18.109   0.374  52.059  1.00  0.00     0.075 C 
BRANCH  29  30
HETATM   30  C12 UNL     1      17.571  -0.896  52.630  1.00  0.00     0.117 A 
HETATM   31  O3  UNL     1      16.506  -0.635  53.288  1.00  0.00    -0.194 OA
HETATM   32  O4  UNL     1      16.985  -1.995  53.205  1.00  0.00     0.000 OA
HETATM   33  H15 UNL     1      17.244  -2.914  52.847  1.00  0.00     0.000 HD
ENDBRANCH  29  30
ENDBRANCH  28  29
ENDBRANCH  10  28
BRANCH   1  34
HETATM   34  O1  UNL     1      22.374   7.042  49.916  1.00  0.00    -0.382 OA
HETATM   35  C1  UNL     1      23.058   8.280  50.141  1.00  0.00     0.202 C 
ENDBRANCH   1  34
TORSDOF 4
ENDMDL
MODEL 8
REMARK VINA RESULT:      -7.9      1.756      6.747
REMARK  4 active torsions:
REMARK  status: ('A' for Active; 'I' for Inactive)
REMARK    1  A    between atoms: O1_2  and  C2_3 
REMARK    2  A    between atoms: C9_12  and  C10_13 
REMARK    3  A    between atoms: C10_13  and  C11_14 
REMARK    4  A    between atoms: C11_14  and  C12_15 
ROOT
HETATM    1  C2  UNL     1      25.449   0.817  53.986  1.00  0.00     0.082 C 
HETATM    2  C3  UNL     1      24.083   0.781  53.763  1.00  0.00     0.092 C 
HETATM    3  C4  UNL     1      23.421  -0.468  53.649  1.00  0.00     0.004 C 
HETATM    4  C5  UNL     1      22.145  -0.423  53.419  1.00  0.00    -0.058 C 
HETATM    5  C6  UNL     1      21.509  -1.764  53.322  1.00  0.00     0.046 C 
HETATM    6  C7  UNL     1      21.185   0.649  53.115  1.00  0.00     0.235 C 
HETATM    7  O2  UNL     1      21.848   1.876  53.056  1.00  0.00    -0.273 OA
HETATM    8  N1  UNL     1      21.267   2.672  52.102  1.00  0.00    -0.249 N 
HETATM    9  C8  UNL     1      22.165   2.956  51.007  1.00  0.00     0.065 C 
HETATM   10  C9  UNL     1      21.578   3.428  49.940  1.00  0.00    -0.021 C 
HETATM   11  C13 UNL     1      20.169   3.637  50.245  1.00  0.00    -0.028 C 
HETATM   12  C14 UNL     1      19.038   3.961  49.706  1.00  0.00    -0.017 C 
HETATM   13  C15 UNL     1      17.734   4.081  50.371  1.00  0.00     0.028 C 
HETATM   14  C16 UNL     1      17.602   3.211  51.556  1.00  0.00     0.006 C 
HETATM   15  C17 UNL     1      18.852   2.430  51.822  1.00  0.00     0.033 C 
HETATM   16  C18 UNL     1      20.043   3.352  51.722  1.00  0.00     0.148 C 
HETATM   17  C19 UNL     1      23.581   2.872  50.961  1.00  0.00     0.041 C 
HETATM   18  C20 UNL     1      24.862   2.900  50.886  1.00  0.00    -0.020 C 
HETATM   19  C21 UNL     1      25.501   4.139  50.435  1.00  0.00     0.309 C 
HETATM   20  N2  UNL     1      26.905   3.801  50.372  1.00  0.00     0.091 N 
HETATM   21  C22 UNL     1      27.102   2.730  51.343  1.00  0.00     0.309 C 
HETATM   22  C23 UNL     1      25.882   1.924  51.268  1.00  0.00    -0.022 C 
HETATM   23  C24 UNL     1      25.957   0.634  51.523  1.00  0.00     0.010 C 
HETATM   24  C25 UNL     1      26.765  -0.499  51.902  1.00  0.00     0.012 C 
HETATM   25  C26 UNL     1      26.483  -1.199  52.974  1.00  0.00    -0.027 C 
HETATM   26  C27 UNL     1      26.126  -0.514  54.055  1.00  0.00     0.022 C 
HETATM   27  H27 UNL     1      27.085   3.451  49.395  1.00  0.00     0.316 HD
ENDROOT
BRANCH  10  28
HETATM   28  C10 UNL     1      22.163   3.809  48.649  1.00  0.00     0.048 C 
BRANCH  28  29
HETATM   29  C11 UNL     1      21.918   2.728  47.593  1.00  0.00     0.075 C 
BRANCH  29  30
HETATM   30  C12 UNL     1      22.003   3.315  46.224  1.00  0.00     0.117 A 
HETATM   31  O3  UNL     1      20.839   3.712  45.871  1.00  0.00    -0.194 OA
HETATM   32  O4  UNL     1      21.958   3.876  44.972  1.00  0.00     0.000 OA
HETATM   33  H15 UNL     1      22.836   4.191  44.561  1.00  0.00     0.000 HD
ENDBRANCH  29  30
ENDBRANCH  28  29
ENDBRANCH  10  28
BRANCH   1  34
HETATM   34  O1  UNL     1      26.792   1.247  54.211  1.00  0.00    -0.382 OA
HETATM   35  C1  UNL     1      27.486   0.526  55.235  1.00  0.00     0.202 C 
ENDBRANCH   1  34
TORSDOF 4
ENDMDL
MODEL 9
REMARK VINA RESULT:      -7.9      5.458      8.814
REMARK  4 active torsions:
REMARK  status: ('A' for Active; 'I' for Inactive)
REMARK    1  A    between atoms: O1_2  and  C2_3 
REMARK    2  A    between atoms: C9_12  and  C10_13 
REMARK    3  A    between atoms: C10_13  and  C11_14 
REMARK    4  A    between atoms: C11_14  and  C12_15 
ROOT
HETATM    1  C2  UNL     1      24.338   7.048  47.905  1.00  0.00     0.082 C 
HETATM    2  C3  UNL     1      25.512   6.333  48.075  1.00  0.00     0.092 C 
HETATM    3  C4  UNL     1      25.576   5.305  49.049  1.00  0.00     0.004 C 
HETATM    4  C5  UNL     1      26.715   4.694  49.166  1.00  0.00    -0.058 C 
HETATM    5  C6  UNL     1      26.713   3.621  50.196  1.00  0.00     0.046 C 
HETATM    6  C7  UNL     1      28.057   4.886  48.594  1.00  0.00     0.235 C 
HETATM    7  O2  UNL     1      28.057   6.001  47.754  1.00  0.00    -0.273 OA
HETATM    8  N1  UNL     1      29.269   6.640  47.834  1.00  0.00    -0.249 N 
HETATM    9  C8  UNL     1      29.150   7.967  48.394  1.00  0.00     0.065 C 
HETATM   10  C9  UNL     1      30.282   8.487  48.786  1.00  0.00    -0.021 C 
HETATM   11  C13 UNL     1      31.359   7.580  48.412  1.00  0.00    -0.028 C 
HETATM   12  C14 UNL     1      32.632   7.388  48.542  1.00  0.00    -0.017 C 
HETATM   13  C15 UNL     1      33.430   6.288  47.984  1.00  0.00     0.028 C 
HETATM   14  C16 UNL     1      32.657   5.047  47.791  1.00  0.00     0.006 C 
HETATM   15  C17 UNL     1      31.221   5.212  48.182  1.00  0.00     0.033 C 
HETATM   16  C18 UNL     1      30.692   6.499  47.595  1.00  0.00     0.148 C 
HETATM   17  C19 UNL     1      28.005   8.799  48.498  1.00  0.00     0.041 C 
HETATM   18  C20 UNL     1      27.027   9.629  48.540  1.00  0.00    -0.020 C 
HETATM   19  C21 UNL     1      27.225  10.960  47.963  1.00  0.00     0.309 C 
HETATM   20  N2  UNL     1      25.993  11.654  48.263  1.00  0.00     0.091 N 
HETATM   21  C22 UNL     1      24.967  10.621  48.366  1.00  0.00     0.309 C 
HETATM   22  C23 UNL     1      25.643   9.481  48.990  1.00  0.00    -0.022 C 
HETATM   23  C24 UNL     1      24.940   8.663  49.745  1.00  0.00     0.010 C 
HETATM   24  C25 UNL     1      23.662   8.303  50.308  1.00  0.00     0.012 C 
HETATM   25  C26 UNL     1      23.128   7.129  50.070  1.00  0.00    -0.027 C 
HETATM   26  C27 UNL     1      23.220   6.675  48.825  1.00  0.00     0.022 C 
HETATM   27  H27 UNL     1      26.134  12.128  49.193  1.00  0.00     0.316 HD
ENDROOT
BRANCH  10  28
HETATM   28  C10 UNL     1      30.539   9.791  49.409  1.00  0.00     0.048 C 
BRANCH  28  29
HETATM   29  C11 UNL     1      31.412  10.668  48.509  1.00  0.00     0.075 C 
BRANCH  29  30
HETATM   30  C12 UNL     1      30.769  11.999  48.303  1.00  0.00     0.117 A 
HETATM   31  O3  UNL     1      30.467  12.493  49.444  1.00  0.00    -0.194 OA
HETATM   32  O4  UNL     1      30.167  13.230  48.239  1.00  0.00     0.000 OA
HETATM   33  H15 UNL     1      30.267  13.764  47.376  1.00  0.00     0.000 HD
ENDBRANCH  29  30
ENDBRANCH  28  29
ENDBRANCH  10  28
BRANCH   1  34
HETATM   34  O1  UNL     1      23.344   7.965  47.451  1.00  0.00    -0.382 OA
HETATM   35  C1  UNL     1      23.248   8.085  46.027  1.00  0.00     0.202 C 
ENDBRANCH   1  34
TORSDOF 4
ENDMDL
