MODEL 1
REMARK VINA RESULT:      -8.7      0.000      0.000
REMARK  3 active torsions:
REMARK  status: ('A' for Active; 'I' for Inactive)
REMARK    1  A    between atoms: C5_6  and  C8_9 
REMARK    2  A    between atoms: C8_9  and  C9_10 
REMARK    3  A    between atoms: C14_19  and  O2_20 
ROOT
HETATM    1  C1  UNL     1      22.206   4.448  52.467  1.00  0.00     0.023 C 
HETATM    2  C2  UNL     1      23.008   3.406  51.752  1.00  0.00     0.036 C 
HETATM    3  C3  UNL     1      22.093   2.447  51.136  1.00  0.00     0.183 C 
HETATM    4  O1  UNL     1      20.839   1.998  51.574  1.00  0.00    -0.375 OA
HETATM    5  C4  UNL     1      20.583   1.347  52.833  1.00  0.00     0.101 A 
HETATM    6  C5  UNL     1      20.691   0.538  54.029  1.00  0.00     0.035 A 
HETATM    7  C6  UNL     1      21.946  -0.108  54.015  1.00  0.00     0.010 A 
HETATM    8  C7  UNL     1      23.285  -0.707  53.856  1.00  0.00    -0.016 A 
HETATM    9  C8  UNL     1      22.135  -0.189  53.986  1.00  0.00     0.049 A 
HETATM   10  C9  UNL     1      21.723   0.626  52.997  1.00  0.00     0.035 A 
HETATM   11  C10 UNL     1      24.368   0.404  53.102  1.00  0.00    -0.046 C 
HETATM   12  P1  UNL     1      25.775   0.907  52.359  1.00  0.00     0.049 P 
HETATM   13  N1  UNL     1      25.378   2.821  51.890  1.00  0.00    -0.208 NA
HETATM   14  N2  UNL     1      24.856   2.785  50.605  1.00  0.00    -0.224 NA
HETATM   15  C11 UNL     1      23.935   3.934  50.678  1.00  0.00     0.118 C 
HETATM   16  C12 UNL     1      23.387   4.128  49.333  1.00  0.00     0.128 C 
HETATM   17  S1  UNL     1      22.200   5.533  49.302  1.00  0.00    -0.133 SA
HETATM   18  C13 UNL     1      23.020   6.716  50.418  1.00  0.00     0.100 C 
HETATM   19  C14 UNL     1      24.074   6.336  51.117  1.00  0.00     0.143 C 
HETATM   20  N3  UNL     1      24.680   5.062  51.112  1.00  0.00    -0.346 N 
HETATM   21  C15 UNL     1      24.186   2.980  52.683  1.00  0.00     0.098 C 
HETATM   22  C16 UNL     1      23.823   1.649  53.017  1.00  0.00     0.059 C 
HETATM   23  H10 UNL     1      25.587   2.947  49.884  1.00  0.00     0.144 HD
HETATM   24  H15 UNL     1      25.658   5.183  51.464  1.00  0.00     0.163 HD
ENDROOT
BRANCH  19  25
HETATM   25  O2  UNL     1      24.279   7.550  51.748  1.00  0.00    -0.346 OA
HETATM   26  H14 UNL     1      23.768   8.391  51.540  1.00  0.00     0.219 HD
ENDBRANCH  19  25
TORSDOF 3
ENDMDL
MODEL 2
REMARK VINA RESULT:      -8.4      3.193      4.527
REMARK  3 active torsions:
REMARK  status: ('A' for Active; 'I' for Inactive)
REMARK    1  A    between atoms: C5_6  and  C8_9 
REMARK    2  A    between atoms: C8_9  and  C9_10 
REMARK    3  A    between atoms: C14_19  and  O2_20 
ROOT
HETATM    1  C1  UNL     1      22.234   1.523  50.205  1.00  0.00     0.023 C 
HETATM    2  C2  UNL     1      22.017   1.521  51.686  1.00  0.00     0.036 C 
HETATM    3  C3  UNL     1      22.993   2.414  52.306  1.00  0.00     0.183 C 
HETATM    4  O1  UNL     1      24.311   2.704  51.924  1.00  0.00    -0.375 OA
HETATM    5  C4  UNL     1      25.368   1.735  51.789  1.00  0.00     0.101 A 
HETATM    6  C5  UNL     1      26.241   0.594  51.966  1.00  0.00     0.035 A 
HETATM    7  C6  UNL     1      25.743  -0.185  53.031  1.00  0.00     0.010 A 
HETATM    8  C7  UNL     1      25.101  -0.886  54.160  1.00  0.00    -0.016 A 
HETATM    9  C8  UNL     1      25.647  -0.278  53.191  1.00  0.00     0.049 A 
HETATM   10  C9  UNL     1      25.064   0.867  52.789  1.00  0.00     0.035 A 
HETATM   11  C10 UNL     1      23.384  -0.736  54.080  1.00  0.00    -0.046 C 
HETATM   12  P1  UNL     1      21.808  -0.856  54.615  1.00  0.00     0.049 P 
HETATM   13  N1  UNL     1      20.759  -0.002  53.129  1.00  0.00    -0.208 NA
HETATM   14  N2  UNL     1      20.648   1.336  53.478  1.00  0.00    -0.224 NA
HETATM   15  C11 UNL     1      20.635   1.943  52.134  1.00  0.00     0.118 C 
HETATM   16  C12 UNL     1      20.381   3.376  52.315  1.00  0.00     0.128 C 
HETATM   17  S1  UNL     1      20.360   4.250  50.697  1.00  0.00    -0.133 SA
HETATM   18  C13 UNL     1      19.511   3.031  49.644  1.00  0.00     0.100 C 
HETATM   19  C14 UNL     1      19.270   1.818  50.108  1.00  0.00     0.143 C 
HETATM   20  N3  UNL     1      19.606   1.316  51.383  1.00  0.00    -0.346 N 
HETATM   21  C15 UNL     1      21.808   0.043  52.142  1.00  0.00     0.098 C 
HETATM   22  C16 UNL     1      22.988  -0.199  52.892  1.00  0.00     0.059 C 
HETATM   23  H10 UNL     1      19.759   1.534  53.978  1.00  0.00     0.144 HD
HETATM   24  H15 UNL     1      18.985   0.494  51.566  1.00  0.00     0.163 HD
ENDROOT
BRANCH  19  25
HETATM   25  O2  UNL     1      18.645   1.344  48.969  1.00  0.00    -0.346 OA
HETATM   26  H14 UNL     1      18.595   1.848  48.098  1.00  0.00     0.219 HD
ENDBRANCH  19  25
TORSDOF 3
ENDMDL
MODEL 3
REMARK VINA RESULT:      -7.9      2.604      3.431
REMARK  3 active torsions:
REMARK  status: ('A' for Active; 'I' for Inactive)
REMARK    1  A    between atoms: C5_6  and  C8_9 
REMARK    2  A    between atoms: C8_9  and  C9_10 
REMARK    3  A    between atoms: C14_19  and  O2_20 
ROOT
HETATM    1  C1  UNL     1      20.860   3.057  52.192  1.00  0.00     0.023 C 
HETATM    2  C2  UNL     1      21.467   1.689  52.174  1.00  0.00     0.036 C 
HETATM    3  C3  UNL     1      20.967   0.967  51.006  1.00  0.00     0.183 C 
HETATM    4  O1  UNL     1      19.718   1.044  50.373  1.00  0.00    -0.375 OA
HETATM    5  C4  UNL     1      18.450   0.785  51.005  1.00  0.00     0.101 A 
HETATM    6  C5  UNL     1      17.393   0.250  51.837  1.00  0.00     0.035 A 
HETATM    7  C6  UNL     1      17.945  -0.750  52.666  1.00  0.00     0.010 A 
HETATM    8  C7  UNL     1      18.667  -1.765  53.458  1.00  0.00    -0.016 A 
HETATM    9  C8  UNL     1      18.053  -0.892  52.773  1.00  0.00     0.049 A 
HETATM   10  C9  UNL     1      18.780  -0.212  51.867  1.00  0.00     0.035 A 
HETATM   11  C10 UNL     1      20.272  -1.241  53.809  1.00  0.00    -0.046 C 
HETATM   12  P1  UNL     1      21.847  -1.379  54.345  1.00  0.00     0.049 P 
HETATM   13  N1  UNL     1      22.631   0.419  53.910  1.00  0.00    -0.208 NA
HETATM   14  N2  UNL     1      23.179   0.286  52.642  1.00  0.00    -0.224 NA
HETATM   15  C11 UNL     1      22.980   1.658  52.140  1.00  0.00     0.118 C 
HETATM   16  C12 UNL     1      23.638   1.734  50.832  1.00  0.00     0.128 C 
HETATM   17  S1  UNL     1      23.440   3.406  50.091  1.00  0.00    -0.133 SA
HETATM   18  C13 UNL     1      23.618   4.469  51.559  1.00  0.00     0.100 C 
HETATM   19  C14 UNL     1      23.653   3.926  52.762  1.00  0.00     0.143 C 
HETATM   20  N3  UNL     1      23.561   2.554  53.076  1.00  0.00    -0.346 N 
HETATM   21  C15 UNL     1      21.400   1.112  53.622  1.00  0.00     0.098 C 
HETATM   22  C16 UNL     1      20.452   0.067  53.474  1.00  0.00     0.059 C 
HETATM   23  H10 UNL     1      24.191   0.053  52.679  1.00  0.00     0.144 HD
HETATM   24  H15 UNL     1      23.973   2.426  54.029  1.00  0.00     0.163 HD
ENDROOT
BRANCH  19  25
HETATM   25  O2  UNL     1      23.794   5.113  53.457  1.00  0.00    -0.346 OA
HETATM   26  H14 UNL     1      23.027   5.642  53.838  1.00  0.00     0.219 HD
ENDBRANCH  19  25
TORSDOF 3
ENDMDL
MODEL 4
REMARK VINA RESULT:      -7.9      2.484      3.334
REMARK  3 active torsions:
REMARK  status: ('A' for Active; 'I' for Inactive)
REMARK    1  A    between atoms: C5_6  and  C8_9 
REMARK    2  A    between atoms: C8_9  and  C9_10 
REMARK    3  A    between atoms: C14_19  and  O2_20 
ROOT
HETATM    1  C1  UNL     1      24.419   2.941  50.074  1.00  0.00     0.023 C 
HETATM    2  C2  UNL     1      23.437   3.111  51.190  1.00  0.00     0.036 C 
HETATM    3  C3  UNL     1      24.169   3.197  52.452  1.00  0.00     0.183 C 
HETATM    4  O1  UNL     1      25.368   2.577  52.837  1.00  0.00    -0.375 OA
HETATM    5  C4  UNL     1      25.593   1.155  52.869  1.00  0.00     0.101 A 
HETATM    6  C5  UNL     1      25.434  -0.277  53.013  1.00  0.00     0.035 A 
HETATM    7  C6  UNL     1      24.100  -0.539  53.392  1.00  0.00     0.010 A 
HETATM    8  C7  UNL     1      22.681  -0.648  53.785  1.00  0.00    -0.016 A 
HETATM    9  C8  UNL     1      23.900  -0.546  53.447  1.00  0.00     0.049 A 
HETATM   10  C9  UNL     1      24.372   0.699  53.251  1.00  0.00     0.035 A 
HETATM   11  C10 UNL     1      21.731   0.555  52.992  1.00  0.00    -0.046 C 
HETATM   12  P1  UNL     1      20.374   1.474  52.676  1.00  0.00     0.049 P 
HETATM   13  N1  UNL     1      21.018   2.764  51.277  1.00  0.00    -0.208 NA
HETATM   14  N2  UNL     1      21.460   3.877  51.977  1.00  0.00    -0.224 NA
HETATM   15  C11 UNL     1      22.540   4.324  51.079  1.00  0.00     0.118 C 
HETATM   16  C12 UNL     1      23.038   5.596  51.609  1.00  0.00     0.128 C 
HETATM   17  S1  UNL     1      24.412   6.248  50.575  1.00  0.00    -0.133 SA
HETATM   18  C13 UNL     1      23.833   5.820  48.902  1.00  0.00     0.100 C 
HETATM   19  C14 UNL     1      22.774   5.045  48.753  1.00  0.00     0.143 C 
HETATM   20  N3  UNL     1      21.991   4.474  49.778  1.00  0.00    -0.346 N 
HETATM   21  C15 UNL     1      22.262   2.111  50.957  1.00  0.00     0.098 C 
HETATM   22  C16 UNL     1      22.445   1.194  52.024  1.00  0.00     0.059 C 
HETATM   23  H10 UNL     1      20.722   4.605  52.053  1.00  0.00     0.144 HD
HETATM   24  H15 UNL     1      21.061   4.237  49.362  1.00  0.00     0.163 HD
ENDROOT
BRANCH  19  25
HETATM   25  O2  UNL     1      22.781   5.049  47.370  1.00  0.00    -0.346 OA
HETATM   26  H14 UNL     1      22.065   4.632  46.799  1.00  0.00     0.219 HD
ENDBRANCH  19  25
TORSDOF 3
ENDMDL
MODEL 5
REMARK VINA RESULT:      -7.6      2.694      3.771
REMARK  3 active torsions:
REMARK  status: ('A' for Active; 'I' for Inactive)
REMARK    1  A    between atoms: C5_6  and  C8_9 
REMARK    2  A    between atoms: C8_9  and  C9_10 
REMARK    3  A    between atoms: C14_19  and  O2_20 
ROOT
HETATM    1  C1  UNL     1      23.318   2.440  50.023  1.00  0.00     0.023 C 
HETATM    2  C2  UNL     1      22.672   2.473  51.373  1.00  0.00     0.036 C 
HETATM    3  C3  UNL     1      23.642   2.970  52.347  1.00  0.00     0.183 C 
HETATM    4  O1  UNL     1      25.035   2.810  52.386  1.00  0.00    -0.375 OA
HETATM    5  C4  UNL     1      25.724   1.545  52.429  1.00  0.00     0.101 A 
HETATM    6  C5  UNL     1      26.099   0.173  52.698  1.00  0.00     0.035 A 
HETATM    7  C6  UNL     1      25.082  -0.420  53.477  1.00  0.00     0.010 A 
HETATM    8  C7  UNL     1      23.942  -0.892  54.287  1.00  0.00    -0.016 A 
HETATM    9  C8  UNL     1      24.919  -0.479  53.591  1.00  0.00     0.049 A 
HETATM   10  C9  UNL     1      24.875   0.805  53.189  1.00  0.00     0.035 A 
HETATM   11  C10 UNL     1      22.469  -0.171  53.752  1.00  0.00    -0.046 C 
HETATM   12  P1  UNL     1      20.851   0.232  53.809  1.00  0.00     0.049 P 
HETATM   13  N1  UNL     1      20.626   1.426  52.208  1.00  0.00    -0.208 NA
HETATM   14  N2  UNL     1      20.839   2.715  52.677  1.00  0.00    -0.224 NA
HETATM   15  C11 UNL     1      21.425   3.324  51.469  1.00  0.00     0.118 C 
HETATM   16  C12 UNL     1      21.590   4.754  51.749  1.00  0.00     0.128 C 
HETATM   17  S1  UNL     1      22.337   5.625  50.311  1.00  0.00    -0.133 SA
HETATM   18  C13 UNL     1      21.510   4.789  48.921  1.00  0.00     0.100 C 
HETATM   19  C14 UNL     1      20.773   3.717  49.144  1.00  0.00     0.143 C 
HETATM   20  N3  UNL     1      20.531   3.099  50.389  1.00  0.00    -0.346 N 
HETATM   21  C15 UNL     1      21.883   1.140  51.565  1.00  0.00     0.098 C 
HETATM   22  C16 UNL     1      22.641   0.497  52.577  1.00  0.00     0.059 C 
HETATM   23  H10 UNL     1      19.949   3.187  52.930  1.00  0.00     0.144 HD
HETATM   24  H15 UNL     1      19.659   2.530  50.289  1.00  0.00     0.163 HD
ENDROOT
BRANCH  19  25
HETATM   25  O2  UNL     1      20.408   3.509  47.826  1.00  0.00    -0.346 OA
HETATM   26  H14 UNL     1      20.199   2.608  47.431  1.00  0.00     0.219 HD
ENDBRANCH  19  25
TORSDOF 3
ENDMDL
MODEL 6
REMARK VINA RESULT:      -7.2     10.195     12.153
REMARK  3 active torsions:
REMARK  status: ('A' for Active; 'I' for Inactive)
REMARK    1  A    between atoms: C5_6  and  C8_9 
REMARK    2  A    between atoms: C8_9  and  C9_10 
REMARK    3  A    between atoms: C14_19  and  O2_20 
ROOT
HETATM    1  C1  UNL     1      30.770   7.250  46.481  1.00  0.00     0.023 C 
HETATM    2  C2  UNL     1      32.186   7.370  46.949  1.00  0.00     0.036 C 
HETATM    3  C3  UNL     1      33.016   7.817  45.832  1.00  0.00     0.183 C 
HETATM    4  O1  UNL     1      32.890   7.550  44.461  1.00  0.00    -0.375 OA
HETATM    5  C4  UNL     1      32.896   6.237  43.867  1.00  0.00     0.101 A 
HETATM    6  C5  UNL     1      33.168   4.847  43.564  1.00  0.00     0.035 A 
HETATM    7  C6  UNL     1      34.086   4.357  44.517  1.00  0.00     0.010 A 
HETATM    8  C7  UNL     1      35.045   3.998  45.579  1.00  0.00    -0.016 A 
HETATM    9  C8  UNL     1      34.221   4.314  44.668  1.00  0.00     0.049 A 
HETATM   10  C9  UNL     1      33.781   5.586  44.667  1.00  0.00     0.035 A 
HETATM   11  C10 UNL     1      34.667   4.816  47.050  1.00  0.00    -0.046 C 
HETATM   12  P1  UNL     1      34.907   5.346  48.614  1.00  0.00     0.049 P 
HETATM   13  N1  UNL     1      33.303   6.510  48.948  1.00  0.00    -0.208 NA
HETATM   14  N2  UNL     1      33.694   7.790  48.583  1.00  0.00    -0.224 NA
HETATM   15  C11 UNL     1      32.402   8.319  48.108  1.00  0.00     0.118 C 
HETATM   16  C12 UNL     1      32.607   9.738  47.804  1.00  0.00     0.128 C 
HETATM   17  S1  UNL     1      31.058  10.509  47.180  1.00  0.00    -0.133 SA
HETATM   18  C13 UNL     1      29.810   9.702  48.233  1.00  0.00     0.100 C 
HETATM   19  C14 UNL     1      30.161   8.697  49.014  1.00  0.00     0.143 C 
HETATM   20  N3  UNL     1      31.448   8.134  49.144  1.00  0.00    -0.346 N 
HETATM   21  C15 UNL     1      32.522   6.109  47.804  1.00  0.00     0.098 C 
HETATM   22  C16 UNL     1      33.457   5.437  46.976  1.00  0.00     0.059 C 
HETATM   23  H10 UNL     1      34.036   8.337  49.397  1.00  0.00     0.144 HD
HETATM   24  H15 UNL     1      31.476   7.632  50.062  1.00  0.00     0.163 HD
ENDROOT
BRANCH  19  25
HETATM   25  O2  UNL     1      28.906   8.483  49.554  1.00  0.00    -0.346 OA
HETATM   26  H14 UNL     1      28.623   8.788  50.470  1.00  0.00     0.219 HD
ENDBRANCH  19  25
TORSDOF 3
ENDMDL
MODEL 7
REMARK VINA RESULT:      -7.1      9.544     11.664
REMARK  3 active torsions:
REMARK  status: ('A' for Active; 'I' for Inactive)
REMARK    1  A    between atoms: C5_6  and  C8_9 
REMARK    2  A    between atoms: C8_9  and  C9_10 
REMARK    3  A    between atoms: C14_19  and  O2_20 
ROOT
HETATM    1  C1  UNL     1      32.021   4.497  46.400  1.00  0.00     0.023 C 
HETATM    2  C2  UNL     1      32.419   5.783  47.056  1.00  0.00     0.036 C 
HETATM    3  C3  UNL     1      31.886   5.801  48.417  1.00  0.00     0.183 C 
HETATM    4  O1  UNL     1      30.702   5.246  48.923  1.00  0.00    -0.375 OA
HETATM    5  C4  UNL     1      29.374   5.559  48.461  1.00  0.00     0.101 A 
HETATM    6  C5  UNL     1      28.203   6.240  47.951  1.00  0.00     0.035 A 
HETATM    7  C6  UNL     1      28.549   7.582  47.685  1.00  0.00     0.010 A 
HETATM    8  C7  UNL     1      29.065   8.947  47.462  1.00  0.00    -0.016 A 
HETATM    9  C8  UNL     1      28.628   7.772  47.657  1.00  0.00     0.049 A 
HETATM   10  C9  UNL     1      29.501   6.878  48.160  1.00  0.00     0.035 A 
HETATM   11  C10 UNL     1      30.707   8.904  46.935  1.00  0.00    -0.046 C 
HETATM   12  P1  UNL     1      32.209   9.520  46.549  1.00  0.00     0.049 P 
HETATM   13  N1  UNL     1      33.276   7.873  46.120  1.00  0.00    -0.208 NA
HETATM   14  N2  UNL     1      33.871   7.497  47.315  1.00  0.00    -0.224 NA
HETATM   15  C11 UNL     1      33.909   6.035  47.126  1.00  0.00     0.118 C 
HETATM   16  C12 UNL     1      34.647   5.476  48.262  1.00  0.00     0.128 C 
HETATM   17  S1  UNL     1      34.744   3.643  48.147  1.00  0.00    -0.133 SA
HETATM   18  C13 UNL     1      34.992   3.412  46.358  1.00  0.00     0.100 C 
HETATM   19  C14 UNL     1      34.874   4.442  45.540  1.00  0.00     0.143 C 
HETATM   20  N3  UNL     1      34.561   5.772  45.892  1.00  0.00    -0.346 N 
HETATM   21  C15 UNL     1      32.181   6.939  46.035  1.00  0.00     0.098 C 
HETATM   22  C16 UNL     1      31.099   7.635  46.633  1.00  0.00     0.059 C 
HETATM   23  H10 UNL     1      34.834   7.879  47.406  1.00  0.00     0.144 HD
HETATM   24  H15 UNL     1      34.892   6.385  45.112  1.00  0.00     0.163 HD
ENDROOT
BRANCH  19  25
HETATM   25  O2  UNL     1      35.149   3.743  44.379  1.00  0.00    -0.346 OA
HETATM   26  H14 UNL     1      34.769   3.973  43.476  1.00  0.00     0.219 HD
ENDBRANCH  19  25
TORSDOF 3
ENDMDL
MODEL 8
REMARK VINA RESULT:      -7.0      3.135      5.121
REMARK  3 active torsions:
REMARK  status: ('A' for Active; 'I' for Inactive)
REMARK    1  A    between atoms: C5_6  and  C8_9 
REMARK    2  A    between atoms: C8_9  and  C9_10 
REMARK    3  A    between atoms: C14_19  and  O2_20 
ROOT
HETATM    1  C1  UNL     1      22.352   4.066  47.950  1.00  0.00     0.023 C 
HETATM    2  C2  UNL     1      22.388   3.910  49.438  1.00  0.00     0.036 C 
HETATM    3  C3  UNL     1      23.101   5.048  50.014  1.00  0.00     0.183 C 
HETATM    4  O1  UNL     1      24.171   5.790  49.494  1.00  0.00    -0.375 OA
HETATM    5  C4  UNL     1      25.452   5.249  49.119  1.00  0.00     0.101 A 
HETATM    6  C5  UNL     1      26.669   4.467  49.059  1.00  0.00     0.035 A 
HETATM    7  C6  UNL     1      26.632   3.508  50.094  1.00  0.00     0.010 A 
HETATM    8  C7  UNL     1      26.445   2.570  51.218  1.00  0.00    -0.016 A 
HETATM    9  C8  UNL     1      26.599   3.380  50.254  1.00  0.00     0.049 A 
HETATM   10  C9  UNL     1      25.615   4.277  50.054  1.00  0.00     0.035 A 
HETATM   11  C10 UNL     1      24.785   2.130  51.381  1.00  0.00    -0.046 C 
HETATM   12  P1  UNL     1      23.444   1.451  52.105  1.00  0.00     0.049 P 
HETATM   13  N1  UNL     1      21.949   1.974  50.868  1.00  0.00    -0.208 NA
HETATM   14  N2  UNL     1      21.461   3.173  51.366  1.00  0.00    -0.224 NA
HETATM   15  C11 UNL     1      21.034   3.811  50.107  1.00  0.00     0.118 C 
HETATM   16  C12 UNL     1      20.355   5.058  50.469  1.00  0.00     0.128 C 
HETATM   17  S1  UNL     1      19.789   5.959  48.968  1.00  0.00    -0.133 SA
HETATM   18  C13 UNL     1      19.232   4.582  47.915  1.00  0.00     0.100 C 
HETATM   19  C14 UNL     1      19.481   3.337  48.277  1.00  0.00     0.143 C 
HETATM   20  N3  UNL     1      20.163   2.911  49.437  1.00  0.00    -0.346 N 
HETATM   21  C15 UNL     1      22.753   2.427  49.760  1.00  0.00     0.098 C 
HETATM   22  C16 UNL     1      24.050   2.563  50.319  1.00  0.00     0.059 C 
HETATM   23  H10 UNL     1      20.648   3.029  51.997  1.00  0.00     0.144 HD
HETATM   24  H15 UNL     1      19.884   1.919  49.613  1.00  0.00     0.163 HD
ENDROOT
BRANCH  19  25
HETATM   25  O2  UNL     1      18.874   2.740  47.187  1.00  0.00    -0.346 OA
HETATM   26  H14 UNL     1      18.115   3.149  46.667  1.00  0.00     0.219 HD
ENDBRANCH  19  25
TORSDOF 3
ENDMDL
MODEL 9
REMARK VINA RESULT:      -6.9     23.909     25.452
REMARK  3 active torsions:
REMARK  status: ('A' for Active; 'I' for Inactive)
REMARK    1  A    between atoms: C5_6  and  C8_9 
REMARK    2  A    between atoms: C8_9  and  C9_10 
REMARK    3  A    between atoms: C14_19  and  O2_20 
ROOT
HETATM    1  C1  UNL     1      39.746  -1.845  69.536  1.00  0.00     0.023 C 
HETATM    2  C2  UNL     1      40.801  -1.256  68.653  1.00  0.00     0.036 C 
HETATM    3  C3  UNL     1      41.671  -2.329  68.178  1.00  0.00     0.183 C 
HETATM    4  O1  UNL     1      42.061  -3.516  68.816  1.00  0.00    -0.375 OA
HETATM    5  C4  UNL     1      42.753  -3.591  70.078  1.00  0.00     0.101 A 
HETATM    6  C5  UNL     1      43.623  -3.331  71.205  1.00  0.00     0.035 A 
HETATM    7  C6  UNL     1      44.345  -2.146  70.945  1.00  0.00     0.010 A 
HETATM    8  C7  UNL     1      45.018  -0.901  70.528  1.00  0.00    -0.016 A 
HETATM    9  C8  UNL     1      44.436  -1.972  70.880  1.00  0.00     0.049 A 
HETATM   10  C9  UNL     1      43.551  -2.493  70.009  1.00  0.00     0.035 A 
HETATM   11  C10 UNL     1      43.943   0.107  69.632  1.00  0.00    -0.046 C 
HETATM   12  P1  UNL     1      43.494   1.393  68.668  1.00  0.00     0.049 P 
HETATM   13  N1  UNL     1      41.540   1.055  68.345  1.00  0.00    -0.208 NA
HETATM   14  N2  UNL     1      41.483   0.314  67.174  1.00  0.00    -0.224 NA
HETATM   15  C11 UNL     1      40.283  -0.497  67.451  1.00  0.00     0.118 C 
HETATM   16  C12 UNL     1      39.992  -1.259  66.233  1.00  0.00     0.128 C 
HETATM   17  S1  UNL     1      38.515  -2.331  66.464  1.00  0.00    -0.133 SA
HETATM   18  C13 UNL     1      37.440  -1.247  67.457  1.00  0.00     0.100 C 
HETATM   19  C14 UNL     1      37.917  -0.116  67.942  1.00  0.00     0.143 C 
HETATM   20  N3  UNL     1      39.225   0.389  67.784  1.00  0.00    -0.346 N 
HETATM   21  C15 UNL     1      41.344   0.034  69.343  1.00  0.00     0.098 C 
HETATM   22  C16 UNL     1      42.664  -0.355  69.690  1.00  0.00     0.059 C 
HETATM   23  H10 UNL     1      41.332   0.916  66.340  1.00  0.00     0.144 HD
HETATM   24  H15 UNL     1      39.183   1.420  67.959  1.00  0.00     0.163 HD
ENDROOT
BRANCH  19  25
HETATM   25  O2  UNL     1      36.750   0.282  68.569  1.00  0.00    -0.346 OA
HETATM   26  H14 UNL     1      36.069   0.900  68.160  1.00  0.00     0.219 HD
ENDBRANCH  19  25
TORSDOF 3
ENDMDL
