MODEL 1
REMARK VINA RESULT:      -7.8      0.000      0.000
REMARK  6 active torsions:
REMARK  status: ('A' for Active; 'I' for Inactive)
REMARK    1  A    between atoms: O1_1  and  C1_2 
REMARK    2  A    between atoms: C3_5  and  N1_6 
REMARK    3  A    between atoms: C4_8  and  C5_9 
REMARK    4  A    between atoms: C10_16  and  C11_17 
REMARK    5  A    between atoms: C11_17  and  C12_18 
REMARK    6  A    between atoms: C13_19  and  C14_20 
ROOT
HETATM    1  N1  UNL     1      26.211   2.282  51.565  1.00  0.00    -0.241 N 
HETATM    2  N2  UNL     1      27.321   2.107  52.402  1.00  0.00    -0.176 NA
HETATM    3  C4  UNL     1      27.190   1.012  53.072  1.00  0.00     0.063 C 
HETATM    4  C9  UNL     1      25.916   0.328  52.736  1.00  0.00     0.086 C 
HETATM    5  C10 UNL     1      25.187   1.314  51.907  1.00  0.00     0.121 C 
ENDROOT
BRANCH   1   6
HETATM    6  C3  UNL     1      26.294   3.373  50.552  1.00  0.00     0.192 A 
HETATM    7  S1  UNL     1      24.753   4.436  50.232  1.00  0.00    -0.058 SA
HETATM    8  C2  UNL     1      25.715   5.426  48.965  1.00  0.00     0.111 A 
HETATM    9  C1  UNL     1      26.960   4.799  49.019  1.00  0.00     0.171 A 
HETATM   10  N4  UNL     1      27.119   3.782  49.857  1.00  0.00    -0.198 NA
BRANCH   9  11
HETATM   11  O1  UNL     1      28.031   5.227  48.209  1.00  0.00    -0.344 OA
HETATM   12  H1  UNL     1      27.849   5.341  47.200  1.00  0.00     0.219 HD
ENDBRANCH   9  11
ENDBRANCH   1   6
BRANCH   5  13
HETATM   13  C11 UNL     1      24.015   1.960  52.595  1.00  0.00     0.054 C 
BRANCH  13  14
HETATM   14  C12 UNL     1      22.763   1.366  52.093  1.00  0.00    -0.026 C 
HETATM   15  C13 UNL     1      22.162   0.228  52.364  1.00  0.00     0.000 C 
BRANCH  15  16
HETATM   16  C14 UNL     1      22.438  -0.929  53.245  1.00  0.00     0.249 C 
HETATM   17  F2  UNL     1      22.733  -0.475  54.506  1.00  0.00    -0.251 F 
ENDBRANCH  15  16
ENDBRANCH  13  14
ENDBRANCH   5  13
BRANCH   3  18
HETATM   18  C5  UNL     1      28.086   0.357  54.099  1.00  0.00     0.183 A 
HETATM   19  C6  UNL     1      29.491   0.587  53.760  1.00  0.00     0.011 A 
HETATM   20  C7  UNL     1      30.046  -0.557  53.381  1.00  0.00     0.061 A 
HETATM   21  C8  UNL     1      29.014  -1.560  53.464  1.00  0.00     0.205 A 
HETATM   22  F1  UNL     1      29.340  -2.833  53.116  1.00  0.00    -0.185 F 
HETATM   23  N3  UNL     1      27.900  -1.071  53.867  1.00  0.00    -0.247 NA
ENDBRANCH   3  18
TORSDOF 6
ENDMDL
MODEL 2
REMARK VINA RESULT:      -7.8      3.766      6.646
REMARK  6 active torsions:
REMARK  status: ('A' for Active; 'I' for Inactive)
REMARK    1  A    between atoms: O1_1  and  C1_2 
REMARK    2  A    between atoms: C3_5  and  N1_6 
REMARK    3  A    between atoms: C4_8  and  C5_9 
REMARK    4  A    between atoms: C10_16  and  C11_17 
REMARK    5  A    between atoms: C11_17  and  C12_18 
REMARK    6  A    between atoms: C13_19  and  C14_20 
ROOT
HETATM    1  N1  UNL     1      25.411  -0.015  52.988  1.00  0.00    -0.241 N 
HETATM    2  N2  UNL     1      24.434  -0.301  53.951  1.00  0.00    -0.176 NA
HETATM    3  C4  UNL     1      23.316   0.246  53.610  1.00  0.00     0.063 C 
HETATM    4  C9  UNL     1      23.452   0.992  52.333  1.00  0.00     0.086 C 
HETATM    5  C10 UNL     1      24.910   0.990  52.070  1.00  0.00     0.121 C 
ENDROOT
BRANCH   1   6
HETATM    6  C3  UNL     1      26.704  -0.751  53.096  1.00  0.00     0.192 A 
HETATM    7  S1  UNL     1      28.279   0.232  53.492  1.00  0.00    -0.058 SA
HETATM    8  C2  UNL     1      29.268  -1.358  53.444  1.00  0.00     0.111 A 
HETATM    9  C1  UNL     1      28.271  -2.289  53.152  1.00  0.00     0.171 A 
HETATM   10  N4  UNL     1      27.026  -1.854  53.002  1.00  0.00    -0.198 NA
BRANCH   9  11
HETATM   11  O1  UNL     1      28.566  -3.661  53.019  1.00  0.00    -0.344 OA
HETATM   12  H1  UNL     1      28.346  -4.274  53.818  1.00  0.00     0.219 HD
ENDBRANCH   9  11
ENDBRANCH   1   6
BRANCH   5  13
HETATM   13  C11 UNL     1      25.581   2.321  52.277  1.00  0.00     0.054 C 
BRANCH  13  14
HETATM   14  C12 UNL     1      26.449   2.617  51.123  1.00  0.00    -0.026 C 
HETATM   15  C13 UNL     1      26.209   3.214  49.976  1.00  0.00     0.000 C 
BRANCH  15  16
HETATM   16  C14 UNL     1      25.028   3.833  49.334  1.00  0.00     0.249 C 
HETATM   17  F2  UNL     1      24.031   2.896  49.224  1.00  0.00    -0.251 F 
ENDBRANCH  15  16
ENDBRANCH  13  14
ENDBRANCH   5  13
BRANCH   3  18
HETATM   18  C5  UNL     1      21.961   0.250  54.281  1.00  0.00     0.183 A 
HETATM   19  C6  UNL     1      21.558  -1.119  54.607  1.00  0.00     0.011 A 
HETATM   20  C7  UNL     1      20.542  -1.476  53.833  1.00  0.00     0.061 A 
HETATM   21  C8  UNL     1      20.258  -0.347  52.983  1.00  0.00     0.205 A 
HETATM   22  F1  UNL     1      19.246  -0.470  52.084  1.00  0.00    -0.185 F 
HETATM   23  N3  UNL     1      21.044   0.639  53.216  1.00  0.00    -0.247 NA
ENDBRANCH   3  18
TORSDOF 6
ENDMDL
MODEL 3
REMARK VINA RESULT:      -7.7      3.631      5.965
REMARK  6 active torsions:
REMARK  status: ('A' for Active; 'I' for Inactive)
REMARK    1  A    between atoms: O1_1  and  C1_2 
REMARK    2  A    between atoms: C3_5  and  N1_6 
REMARK    3  A    between atoms: C4_8  and  C5_9 
REMARK    4  A    between atoms: C10_16  and  C11_17 
REMARK    5  A    between atoms: C11_17  and  C12_18 
REMARK    6  A    between atoms: C13_19  and  C14_20 
ROOT
HETATM    1  N1  UNL     1      25.686   0.326  52.734  1.00  0.00    -0.241 N 
HETATM    2  N2  UNL     1      25.648   1.071  51.548  1.00  0.00    -0.176 NA
HETATM    3  C4  UNL     1      24.600   1.824  51.544  1.00  0.00     0.063 C 
HETATM    4  C9  UNL     1      23.799   1.634  52.779  1.00  0.00     0.086 C 
HETATM    5  C10 UNL     1      24.427   0.466  53.438  1.00  0.00     0.121 C 
ENDROOT
BRANCH   1   6
HETATM    6  C3  UNL     1      26.941  -0.430  53.018  1.00  0.00     0.192 A 
HETATM    7  S1  UNL     1      28.505   0.544  53.478  1.00  0.00    -0.058 SA
HETATM    8  C2  UNL     1      29.444  -1.068  53.645  1.00  0.00     0.111 A 
HETATM    9  C1  UNL     1      28.448  -1.996  53.336  1.00  0.00     0.171 A 
HETATM   10  N4  UNL     1      27.236  -1.545  53.040  1.00  0.00    -0.198 NA
BRANCH   9  11
HETATM   11  O1  UNL     1      28.711  -3.381  53.339  1.00  0.00    -0.344 OA
HETATM   12  H1  UNL     1      28.248  -3.951  54.062  1.00  0.00     0.219 HD
ENDBRANCH   9  11
ENDBRANCH   1   6
BRANCH   5  13
HETATM   13  C11 UNL     1      23.609  -0.796  53.377  1.00  0.00     0.054 C 
BRANCH  13  14
HETATM   14  C12 UNL     1      22.744  -0.877  54.568  1.00  0.00    -0.026 C 
HETATM   15  C13 UNL     1      21.477  -0.577  54.754  1.00  0.00     0.000 C 
BRANCH  15  16
HETATM   16  C14 UNL     1      20.383  -0.046  53.911  1.00  0.00     0.249 C 
HETATM   17  F2  UNL     1      20.577   1.299  53.714  1.00  0.00    -0.251 F 
ENDBRANCH  15  16
ENDBRANCH  13  14
ENDBRANCH   5  13
BRANCH   3  18
HETATM   18  C5  UNL     1      24.086   2.813  50.522  1.00  0.00     0.183 A 
HETATM   19  C6  UNL     1      25.206   3.397  49.780  1.00  0.00     0.011 A 
HETATM   20  C7  UNL     1      25.336   4.674  50.114  1.00  0.00     0.061 A 
HETATM   21  C8  UNL     1      24.303   4.953  51.080  1.00  0.00     0.205 A 
HETATM   22  F1  UNL     1      24.233   6.214  51.584  1.00  0.00    -0.185 F 
HETATM   23  N3  UNL     1      23.585   3.921  51.327  1.00  0.00    -0.247 NA
ENDBRANCH   3  18
TORSDOF 6
ENDMDL
MODEL 4
REMARK VINA RESULT:      -7.7      3.796      5.418
REMARK  6 active torsions:
REMARK  status: ('A' for Active; 'I' for Inactive)
REMARK    1  A    between atoms: O1_1  and  C1_2 
REMARK    2  A    between atoms: C3_5  and  N1_6 
REMARK    3  A    between atoms: C4_8  and  C5_9 
REMARK    4  A    between atoms: C10_16  and  C11_17 
REMARK    5  A    between atoms: C11_17  and  C12_18 
REMARK    6  A    between atoms: C13_19  and  C14_20 
ROOT
HETATM    1  N1  UNL     1      24.542   0.835  53.522  1.00  0.00    -0.241 N 
HETATM    2  N2  UNL     1      25.536   0.086  54.167  1.00  0.00    -0.176 NA
HETATM    3  C4  UNL     1      26.634   0.764  54.204  1.00  0.00     0.063 C 
HETATM    4  C9  UNL     1      26.469   2.085  53.547  1.00  0.00     0.086 C 
HETATM    5  C10 UNL     1      25.138   2.003  52.903  1.00  0.00     0.121 C 
ENDROOT
BRANCH   1   6
HETATM    6  C3  UNL     1      23.149   0.307  53.587  1.00  0.00     0.192 A 
HETATM    7  S1  UNL     1      21.828   1.086  52.466  1.00  0.00    -0.058 SA
HETATM    8  C2  UNL     1      20.557  -0.102  53.160  1.00  0.00     0.111 A 
HETATM    9  C1  UNL     1      21.330  -0.829  54.066  1.00  0.00     0.171 A 
HETATM   10  N4  UNL     1      22.617  -0.524  54.183  1.00  0.00    -0.198 NA
BRANCH   9  11
HETATM   11  O1  UNL     1      20.771  -1.866  54.839  1.00  0.00    -0.344 OA
HETATM   12  H1  UNL     1      21.119  -1.980  55.803  1.00  0.00     0.219 HD
ENDBRANCH   9  11
ENDBRANCH   1   6
BRANCH   5  13
HETATM   13  C11 UNL     1      25.178   1.883  51.404  1.00  0.00     0.054 C 
BRANCH  13  14
HETATM   14  C12 UNL     1      26.442   2.452  50.901  1.00  0.00    -0.026 C 
HETATM   15  C13 UNL     1      26.690   3.471  50.107  1.00  0.00     0.000 C 
BRANCH  15  16
HETATM   16  C14 UNL     1      25.872   4.471  49.385  1.00  0.00     0.249 C 
HETATM   17  F2  UNL     1      26.672   5.155  48.504  1.00  0.00    -0.251 F 
ENDBRANCH  15  16
ENDBRANCH  13  14
ENDBRANCH   5  13
BRANCH   3  18
HETATM   18  C5  UNL     1      27.992   0.432  54.777  1.00  0.00     0.183 A 
HETATM   19  C6  UNL     1      29.030   1.206  54.093  1.00  0.00     0.011 A 
HETATM   20  C7  UNL     1      29.772   0.392  53.355  1.00  0.00     0.061 A 
HETATM   21  C8  UNL     1      29.236  -0.933  53.540  1.00  0.00     0.205 A 
HETATM   22  F1  UNL     1      29.833  -1.956  52.872  1.00  0.00    -0.185 F 
HETATM   23  N3  UNL     1      28.233  -0.938  54.338  1.00  0.00    -0.247 NA
ENDBRANCH   3  18
TORSDOF 6
ENDMDL
MODEL 5
REMARK VINA RESULT:      -7.6      1.945      2.186
REMARK  6 active torsions:
REMARK  status: ('A' for Active; 'I' for Inactive)
REMARK    1  A    between atoms: O1_1  and  C1_2 
REMARK    2  A    between atoms: C3_5  and  N1_6 
REMARK    3  A    between atoms: C4_8  and  C5_9 
REMARK    4  A    between atoms: C10_16  and  C11_17 
REMARK    5  A    between atoms: C11_17  and  C12_18 
REMARK    6  A    between atoms: C13_19  and  C14_20 
ROOT
HETATM    1  N1  UNL     1      25.239   2.163  52.306  1.00  0.00    -0.241 N 
HETATM    2  N2  UNL     1      26.294   2.195  53.228  1.00  0.00    -0.176 NA
HETATM    3  C4  UNL     1      26.665   0.989  53.504  1.00  0.00     0.063 C 
HETATM    4  C9  UNL     1      25.845  -0.004  52.766  1.00  0.00     0.086 C 
HETATM    5  C10 UNL     1      24.761   0.802  52.161  1.00  0.00     0.121 C 
ENDROOT
BRANCH   1   6
HETATM    6  C3  UNL     1      24.833   3.463  51.698  1.00  0.00     0.192 A 
HETATM    7  S1  UNL     1      25.722   4.049  50.126  1.00  0.00    -0.058 SA
HETATM    8  C2  UNL     1      24.649   5.584  50.106  1.00  0.00     0.111 A 
HETATM    9  C1  UNL     1      23.858   5.377  51.237  1.00  0.00     0.171 A 
HETATM   10  N4  UNL     1      24.051   4.273  51.948  1.00  0.00    -0.198 NA
BRANCH   9  11
HETATM   11  O1  UNL     1      22.873   6.309  51.622  1.00  0.00    -0.344 OA
HETATM   12  H1  UNL     1      22.598   6.326  52.616  1.00  0.00     0.219 HD
ENDBRANCH   9  11
ENDBRANCH   1   6
BRANCH   5  13
HETATM   13  C11 UNL     1      23.413   0.612  52.803  1.00  0.00     0.054 C 
BRANCH  13  14
HETATM   14  C12 UNL     1      23.466  -0.539  53.722  1.00  0.00    -0.026 C 
HETATM   15  C13 UNL     1      22.537  -1.130  54.441  1.00  0.00     0.000 C 
BRANCH  15  16
HETATM   16  C14 UNL     1      21.087  -0.935  54.660  1.00  0.00     0.249 C 
HETATM   17  F2  UNL     1      20.865   0.344  55.107  1.00  0.00    -0.251 F 
ENDBRANCH  15  16
ENDBRANCH  13  14
ENDBRANCH   5  13
BRANCH   3  18
HETATM   18  C5  UNL     1      27.744   0.463  54.423  1.00  0.00     0.183 A 
HETATM   19  C6  UNL     1      29.043   1.021  54.044  1.00  0.00     0.011 A 
HETATM   20  C7  UNL     1      29.803   0.062  53.532  1.00  0.00     0.061 A 
HETATM   21  C8  UNL     1      29.016  -1.146  53.566  1.00  0.00     0.205 A 
HETATM   22  F1  UNL     1      29.583  -2.284  53.084  1.00  0.00    -0.185 F 
HETATM   23  N3  UNL     1      27.852  -0.947  54.064  1.00  0.00    -0.247 NA
ENDBRANCH   3  18
TORSDOF 6
ENDMDL
MODEL 6
REMARK VINA RESULT:      -7.4      1.914      4.901
REMARK  6 active torsions:
REMARK  status: ('A' for Active; 'I' for Inactive)
REMARK    1  A    between atoms: O1_1  and  C1_2 
REMARK    2  A    between atoms: C3_5  and  N1_6 
REMARK    3  A    between atoms: C4_8  and  C5_9 
REMARK    4  A    between atoms: C10_16  and  C11_17 
REMARK    5  A    between atoms: C11_17  and  C12_18 
REMARK    6  A    between atoms: C13_19  and  C14_20 
ROOT
HETATM    1  N1  UNL     1      25.061   1.940  51.505  1.00  0.00    -0.241 N 
HETATM    2  N2  UNL     1      23.722   1.568  51.324  1.00  0.00    -0.176 NA
HETATM    3  C4  UNL     1      23.375   0.738  52.249  1.00  0.00     0.063 C 
HETATM    4  C9  UNL     1      24.506   0.458  53.169  1.00  0.00     0.086 C 
HETATM    5  C10 UNL     1      25.671   1.092  52.510  1.00  0.00     0.121 C 
ENDROOT
BRANCH   1   6
HETATM    6  C3  UNL     1      25.569   3.066  50.667  1.00  0.00     0.192 A 
HETATM    7  S1  UNL     1      24.524   4.646  50.538  1.00  0.00    -0.058 SA
HETATM    8  C2  UNL     1      25.825   5.400  49.421  1.00  0.00     0.111 A 
HETATM    9  C1  UNL     1      26.760   4.366  49.358  1.00  0.00     0.171 A 
HETATM   10  N4  UNL     1      26.512   3.249  50.029  1.00  0.00    -0.198 NA
BRANCH   9  11
HETATM   11  O1  UNL     1      27.945   4.495  48.605  1.00  0.00    -0.344 OA
HETATM   12  H1  UNL     1      28.355   3.634  48.213  1.00  0.00     0.219 HD
ENDBRANCH   9  11
ENDBRANCH   1   6
BRANCH   5  13
HETATM   13  C11 UNL     1      26.647   0.121  51.904  1.00  0.00     0.054 C 
BRANCH  13  14
HETATM   14  C12 UNL     1      27.229  -0.717  52.968  1.00  0.00    -0.026 C 
HETATM   15  C13 UNL     1      28.368  -0.638  53.621  1.00  0.00     0.000 C 
BRANCH  15  16
HETATM   16  C14 UNL     1      29.537   0.269  53.602  1.00  0.00     0.249 C 
HETATM   17  F2  UNL     1      29.099   1.569  53.633  1.00  0.00    -0.251 F 
ENDBRANCH  15  16
ENDBRANCH  13  14
ENDBRANCH   5  13
BRANCH   3  18
HETATM   18  C5  UNL     1      22.063   0.037  52.520  1.00  0.00     0.183 A 
HETATM   19  C6  UNL     1      21.364   0.689  53.629  1.00  0.00     0.011 A 
HETATM   20  C7  UNL     1      21.360  -0.117  54.682  1.00  0.00     0.061 A 
HETATM   21  C8  UNL     1      22.056  -1.315  54.284  1.00  0.00     0.205 A 
HETATM   22  F1  UNL     1      22.189  -2.305  55.206  1.00  0.00    -0.185 F 
HETATM   23  N3  UNL     1      22.461  -1.254  53.069  1.00  0.00    -0.247 NA
ENDBRANCH   3  18
TORSDOF 6
ENDMDL
MODEL 7
REMARK VINA RESULT:      -7.3      3.187      5.923
REMARK  6 active torsions:
REMARK  status: ('A' for Active; 'I' for Inactive)
REMARK    1  A    between atoms: O1_1  and  C1_2 
REMARK    2  A    between atoms: C3_5  and  N1_6 
REMARK    3  A    between atoms: C4_8  and  C5_9 
REMARK    4  A    between atoms: C10_16  and  C11_17 
REMARK    5  A    between atoms: C11_17  and  C12_18 
REMARK    6  A    between atoms: C13_19  and  C14_20 
ROOT
HETATM    1  N1  UNL     1      25.840   2.212  52.652  1.00  0.00    -0.241 N 
HETATM    2  N2  UNL     1      25.904   2.845  51.404  1.00  0.00    -0.176 NA
HETATM    3  C4  UNL     1      24.746   3.329  51.103  1.00  0.00     0.063 C 
HETATM    4  C9  UNL     1      23.753   3.041  52.168  1.00  0.00     0.086 C 
HETATM    5  C10 UNL     1      24.456   2.100  53.070  1.00  0.00     0.121 C 
ENDROOT
BRANCH   1   6
HETATM    6  C3  UNL     1      27.133   1.792  53.265  1.00  0.00     0.192 A 
HETATM    7  S1  UNL     1      27.663  -0.025  53.118  1.00  0.00    -0.058 SA
HETATM    8  C2  UNL     1      29.231   0.368  54.065  1.00  0.00     0.111 A 
HETATM    9  C1  UNL     1      29.068   1.734  54.304  1.00  0.00     0.171 A 
HETATM   10  N4  UNL     1      27.972   2.327  53.849  1.00  0.00    -0.198 NA
BRANCH   9  11
HETATM   11  O1  UNL     1      30.039   2.475  55.007  1.00  0.00    -0.344 OA
HETATM   12  H1  UNL     1      29.845   3.473  55.176  1.00  0.00     0.219 HD
ENDBRANCH   9  11
ENDBRANCH   1   6
BRANCH   5  13
HETATM   13  C11 UNL     1      23.962   0.680  52.995  1.00  0.00     0.054 C 
BRANCH  13  14
HETATM   14  C12 UNL     1      22.507   0.655  53.230  1.00  0.00    -0.026 C 
HETATM   15  C13 UNL     1      21.743  -0.174  53.907  1.00  0.00     0.000 C 
BRANCH  15  16
HETATM   16  C14 UNL     1      21.962  -1.400  54.705  1.00  0.00     0.249 C 
HETATM   17  F2  UNL     1      22.867  -1.134  55.702  1.00  0.00    -0.251 F 
ENDBRANCH  15  16
ENDBRANCH  13  14
ENDBRANCH   5  13
BRANCH   3  18
HETATM   18  C5  UNL     1      24.271   4.097  49.891  1.00  0.00     0.183 A 
HETATM   19  C6  UNL     1      25.402   4.758  49.238  1.00  0.00     0.011 A 
HETATM   20  C7  UNL     1      25.302   6.070  49.404  1.00  0.00     0.061 A 
HETATM   21  C8  UNL     1      24.102   6.296  50.169  1.00  0.00     0.205 A 
HETATM   22  F1  UNL     1      23.781   7.581  50.476  1.00  0.00    -0.185 F 
HETATM   23  N3  UNL     1      23.501   5.201  50.456  1.00  0.00    -0.247 NA
ENDBRANCH   3  18
TORSDOF 6
ENDMDL
MODEL 8
REMARK VINA RESULT:      -7.1      2.023      5.620
REMARK  6 active torsions:
REMARK  status: ('A' for Active; 'I' for Inactive)
REMARK    1  A    between atoms: O1_1  and  C1_2 
REMARK    2  A    between atoms: C3_5  and  N1_6 
REMARK    3  A    between atoms: C4_8  and  C5_9 
REMARK    4  A    between atoms: C10_16  and  C11_17 
REMARK    5  A    between atoms: C11_17  and  C12_18 
REMARK    6  A    between atoms: C13_19  and  C14_20 
ROOT
HETATM    1  N1  UNL     1      25.242   2.326  51.206  1.00  0.00    -0.241 N 
HETATM    2  N2  UNL     1      23.907   1.979  50.959  1.00  0.00    -0.176 NA
HETATM    3  C4  UNL     1      23.483   1.197  51.894  1.00  0.00     0.063 C 
HETATM    4  C9  UNL     1      24.549   0.928  52.892  1.00  0.00     0.086 C 
HETATM    5  C10 UNL     1      25.767   1.506  52.280  1.00  0.00     0.121 C 
ENDROOT
BRANCH   1   6
HETATM    6  C3  UNL     1      25.829   3.403  50.357  1.00  0.00     0.192 A 
HETATM    7  S1  UNL     1      24.803   4.967  50.034  1.00  0.00    -0.058 SA
HETATM    8  C2  UNL     1      26.206   5.660  49.005  1.00  0.00     0.111 A 
HETATM    9  C1  UNL     1      27.143   4.629  49.094  1.00  0.00     0.171 A 
HETATM   10  N4  UNL     1      26.830   3.552  49.803  1.00  0.00    -0.198 NA
BRANCH   9  11
HETATM   11  O1  UNL     1      28.395   4.720  48.453  1.00  0.00    -0.344 OA
HETATM   12  H1  UNL     1      28.868   3.837  48.207  1.00  0.00     0.219 HD
ENDBRANCH   9  11
ENDBRANCH   1   6
BRANCH   5  13
HETATM   13  C11 UNL     1      26.752   0.486  51.775  1.00  0.00     0.054 C 
BRANCH  13  14
HETATM   14  C12 UNL     1      27.000  -0.518  52.825  1.00  0.00    -0.026 C 
HETATM   15  C13 UNL     1      27.990  -0.671  53.676  1.00  0.00     0.000 C 
BRANCH  15  16
HETATM   16  C14 UNL     1      29.251   0.046  53.970  1.00  0.00     0.249 C 
HETATM   17  F2  UNL     1      30.240  -0.423  53.141  1.00  0.00    -0.251 F 
ENDBRANCH  15  16
ENDBRANCH  13  14
ENDBRANCH   5  13
BRANCH   3  18
HETATM   18  C5  UNL     1      22.139   0.540  52.112  1.00  0.00     0.183 A 
HETATM   19  C6  UNL     1      21.415   0.443  50.843  1.00  0.00     0.011 A 
HETATM   20  C7  UNL     1      20.378   1.269  50.863  1.00  0.00     0.061 A 
HETATM   21  C8  UNL     1      20.401   1.925  52.147  1.00  0.00     0.205 A 
HETATM   22  F1  UNL     1      19.427   2.837  52.409  1.00  0.00    -0.185 F 
HETATM   23  N3  UNL     1      21.383   1.531  52.870  1.00  0.00    -0.247 NA
ENDBRANCH   3  18
TORSDOF 6
ENDMDL
MODEL 9
REMARK VINA RESULT:      -7.1      2.501      2.770
REMARK  6 active torsions:
REMARK  status: ('A' for Active; 'I' for Inactive)
REMARK    1  A    between atoms: O1_1  and  C1_2 
REMARK    2  A    between atoms: C3_5  and  N1_6 
REMARK    3  A    between atoms: C4_8  and  C5_9 
REMARK    4  A    between atoms: C10_16  and  C11_17 
REMARK    5  A    between atoms: C11_17  and  C12_18 
REMARK    6  A    between atoms: C13_19  and  C14_20 
ROOT
HETATM    1  N1  UNL     1      24.114   2.154  52.649  1.00  0.00    -0.241 N 
HETATM    2  N2  UNL     1      25.263   2.042  53.443  1.00  0.00    -0.176 NA
HETATM    3  C4  UNL     1      25.492   0.799  53.702  1.00  0.00     0.063 C 
HETATM    4  C9  UNL     1      24.462  -0.075  53.085  1.00  0.00     0.086 C 
HETATM    5  C10 UNL     1      23.437   0.873  52.590  1.00  0.00     0.121 C 
ENDROOT
BRANCH   1   6
HETATM    6  C3  UNL     1      23.825   3.494  52.063  1.00  0.00     0.192 A 
HETATM    7  S1  UNL     1      22.656   3.601  50.570  1.00  0.00    -0.058 SA
HETATM    8  C2  UNL     1      22.869   5.462  50.552  1.00  0.00     0.111 A 
HETATM    9  C1  UNL     1      23.742   5.646  51.626  1.00  0.00     0.171 A 
HETATM   10  N4  UNL     1      24.145   4.577  52.301  1.00  0.00    -0.198 NA
BRANCH   9  11
HETATM   11  O1  UNL     1      24.188   6.930  51.995  1.00  0.00    -0.344 OA
HETATM   12  H1  UNL     1      24.483   7.567  51.239  1.00  0.00     0.219 HD
ENDBRANCH   9  11
ENDBRANCH   1   6
BRANCH   5  13
HETATM   13  C11 UNL     1      22.160   0.878  53.386  1.00  0.00     0.054 C 
BRANCH  13  14
HETATM   14  C12 UNL     1      21.952  -0.451  53.988  1.00  0.00    -0.026 C 
HETATM   15  C13 UNL     1      20.888  -1.218  54.073  1.00  0.00     0.000 C 
BRANCH  15  16
HETATM   16  C14 UNL     1      19.477  -1.121  53.636  1.00  0.00     0.249 C 
HETATM   17  F2  UNL     1      18.856  -2.327  53.845  1.00  0.00    -0.251 F 
ENDBRANCH  15  16
ENDBRANCH  13  14
ENDBRANCH   5  13
BRANCH   3  18
HETATM   18  C5  UNL     1      26.587   0.131  54.503  1.00  0.00     0.183 A 
HETATM   19  C6  UNL     1      27.872   0.781  54.237  1.00  0.00     0.011 A 
HETATM   20  C7  UNL     1      28.650  -0.047  53.552  1.00  0.00     0.061 A 
HETATM   21  C8  UNL     1      27.890  -1.256  53.356  1.00  0.00     0.205 A 
HETATM   22  F1  UNL     1      28.480  -2.268  52.665  1.00  0.00    -0.185 F 
HETATM   23  N3  UNL     1      26.724  -1.182  53.883  1.00  0.00    -0.247 NA
ENDBRANCH   3  18
TORSDOF 6
ENDMDL
