MODEL 1
REMARK VINA RESULT:      -9.5      0.000      0.000
REMARK  3 active torsions:
REMARK  status: ('A' for Active; 'I' for Inactive)
REMARK    1  A    between atoms: O1_2  and  C2_3 
REMARK    2  A    between atoms: C5_6  and  N1_7 
REMARK    3  A    between atoms: N1_7  and  C6_8 
ROOT
HETATM    1  C2  UNL     1      21.331   1.552  52.438  1.00  0.00     0.058 A 
HETATM    2  C3  UNL     1      22.566   1.475  51.947  1.00  0.00     0.045 A 
HETATM    3  C4  UNL     1      23.064   0.646  53.060  1.00  0.00     0.004 A 
HETATM    4  C5  UNL     1      24.195   0.044  53.482  1.00  0.00     0.137 C 
HETATM    5  N3  UNL     1      24.418  -0.754  54.672  1.00  0.00    -0.224 NA
HETATM    6  C15 UNL     1      23.590  -1.435  55.437  1.00  0.00     0.236 C 
HETATM    7  N4  UNL     1      22.160  -1.630  55.360  1.00  0.00    -0.240 NA
HETATM    8  C16 UNL     1      21.417  -1.670  54.331  1.00  0.00     0.084 C 
HETATM    9  C17 UNL     1      21.033  -0.563  53.745  1.00  0.00     0.023 C 
HETATM   10  C18 UNL     1      21.686   0.734  53.608  1.00  0.00     0.104 A 
ENDROOT
BRANCH   4  11
HETATM   11  N1  UNL     1      25.280   0.245  52.606  1.00  0.00    -0.339 N 
HETATM   12  H5  UNL     1      24.922   0.097  51.638  1.00  0.00     0.167 HD
BRANCH  11  13
HETATM   13  C6  UNL     1      26.548   0.578  53.093  1.00  0.00     0.062 A 
HETATM   14  C7  UNL     1      26.720   1.888  53.490  1.00  0.00     0.146 A 
HETATM   15  N2  UNL     1      27.935   2.250  53.969  1.00  0.00    -0.270 NA
HETATM   16  C8  UNL     1      28.948   1.380  54.062  1.00  0.00     0.128 A 
HETATM   17  C9  UNL     1      28.815   0.056  53.673  1.00  0.00    -0.006 A 
HETATM   18  C10 UNL     1      29.889  -0.829  53.781  1.00  0.00     0.014 A 
HETATM   19  C14 UNL     1      27.583  -0.330  53.182  1.00  0.00     0.004 A 
HETATM   20  C11 UNL     1      29.678  -2.120  53.376  1.00  0.00     0.001 A 
HETATM   21  C12 UNL     1      28.449  -2.540  52.878  1.00  0.00     0.001 A 
HETATM   22  C13 UNL     1      27.399  -1.638  52.783  1.00  0.00     0.014 A 
ENDBRANCH  11  13
ENDBRANCH   4  11
BRANCH   1  23
HETATM   23  O1  UNL     1      20.277   2.220  51.868  1.00  0.00    -0.359 OA
HETATM   24  C1  UNL     1      20.334   3.630  51.792  1.00  0.00     0.209 C 
ENDBRANCH   1  23
TORSDOF 3
ENDMDL
MODEL 2
REMARK VINA RESULT:      -8.5      1.115      2.196
REMARK  3 active torsions:
REMARK  status: ('A' for Active; 'I' for Inactive)
REMARK    1  A    between atoms: O1_2  and  C2_3 
REMARK    2  A    between atoms: C5_6  and  N1_7 
REMARK    3  A    between atoms: N1_7  and  C6_8 
ROOT
HETATM    1  C2  UNL     1      21.587   1.704  52.204  1.00  0.00     0.058 A 
HETATM    2  C3  UNL     1      22.765   1.382  51.675  1.00  0.00     0.045 A 
HETATM    3  C4  UNL     1      23.174   0.564  52.832  1.00  0.00     0.004 A 
HETATM    4  C5  UNL     1      24.208  -0.188  53.259  1.00  0.00     0.137 C 
HETATM    5  N3  UNL     1      24.355  -0.923  54.500  1.00  0.00    -0.224 NA
HETATM    6  C15 UNL     1      23.465  -1.395  55.349  1.00  0.00     0.236 C 
HETATM    7  N4  UNL     1      22.021  -1.348  55.342  1.00  0.00    -0.240 NA
HETATM    8  C16 UNL     1      21.230  -1.338  54.348  1.00  0.00     0.084 C 
HETATM    9  C17 UNL     1      21.007  -0.227  53.689  1.00  0.00     0.023 C 
HETATM   10  C18 UNL     1      21.859   0.926  53.423  1.00  0.00     0.104 A 
ENDROOT
BRANCH   4  11
HETATM   11  N1  UNL     1      25.265  -0.240  52.329  1.00  0.00    -0.339 N 
HETATM   12  H5  UNL     1      24.885   0.089  51.416  1.00  0.00     0.167 HD
BRANCH  11  13
HETATM   13  C6  UNL     1      26.540  -0.676  52.709  1.00  0.00     0.062 A 
HETATM   14  C7  UNL     1      26.776  -2.030  52.595  1.00  0.00     0.146 A 
HETATM   15  N2  UNL     1      27.999  -2.491  52.954  1.00  0.00    -0.270 NA
HETATM   16  C8  UNL     1      28.959  -1.676  53.406  1.00  0.00     0.128 A 
HETATM   17  C9  UNL     1      28.760  -0.310  53.535  1.00  0.00    -0.006 A 
HETATM   18  C10 UNL     1      29.780   0.517  54.009  1.00  0.00     0.014 A 
HETATM   19  C14 UNL     1      27.519   0.178  53.174  1.00  0.00     0.004 A 
HETATM   20  C11 UNL     1      29.506   1.854  54.108  1.00  0.00     0.001 A 
HETATM   21  C12 UNL     1      28.266   2.376  53.752  1.00  0.00     0.001 A 
HETATM   22  C13 UNL     1      27.271   1.530  53.283  1.00  0.00     0.014 A 
ENDBRANCH  11  13
ENDBRANCH   4  11
BRANCH   1  23
HETATM   23  O1  UNL     1      20.631   2.498  51.622  1.00  0.00    -0.359 OA
HETATM   24  C1  UNL     1      19.478   1.881  51.084  1.00  0.00     0.209 C 
ENDBRANCH   1  23
TORSDOF 3
ENDMDL
MODEL 3
REMARK VINA RESULT:      -8.5      3.810      5.867
REMARK  3 active torsions:
REMARK  status: ('A' for Active; 'I' for Inactive)
REMARK    1  A    between atoms: O1_2  and  C2_3 
REMARK    2  A    between atoms: C5_6  and  N1_7 
REMARK    3  A    between atoms: N1_7  and  C6_8 
ROOT
HETATM    1  C2  UNL     1      23.579  -0.311  53.527  1.00  0.00     0.058 A 
HETATM    2  C3  UNL     1      23.435   0.481  52.467  1.00  0.00     0.045 A 
HETATM    3  C4  UNL     1      24.805   1.018  52.557  1.00  0.00     0.004 A 
HETATM    4  C5  UNL     1      25.624   1.887  51.931  1.00  0.00     0.137 C 
HETATM    5  N3  UNL     1      26.995   2.240  52.241  1.00  0.00    -0.224 NA
HETATM    6  C15 UNL     1      27.936   1.598  52.904  1.00  0.00     0.236 C 
HETATM    7  N4  UNL     1      27.933   0.309  53.556  1.00  0.00    -0.240 NA
HETATM    8  C16 UNL     1      27.282  -0.737  53.248  1.00  0.00     0.084 C 
HETATM    9  C17 UNL     1      26.022  -0.858  53.585  1.00  0.00     0.023 C 
HETATM   10  C18 UNL     1      24.964   0.135  53.741  1.00  0.00     0.104 A 
ENDROOT
BRANCH   4  11
HETATM   11  N1  UNL     1      25.014   2.509  50.823  1.00  0.00    -0.339 N 
HETATM   12  H5  UNL     1      24.714   1.751  50.174  1.00  0.00     0.167 HD
BRANCH  11  13
HETATM   13  C6  UNL     1      24.905   3.902  50.748  1.00  0.00     0.062 A 
HETATM   14  C7  UNL     1      23.871   4.469  51.465  1.00  0.00     0.146 A 
HETATM   15  N2  UNL     1      23.732   5.816  51.418  1.00  0.00    -0.270 NA
HETATM   16  C8  UNL     1      24.559   6.589  50.705  1.00  0.00     0.128 A 
HETATM   17  C9  UNL     1      25.609   6.058  49.971  1.00  0.00    -0.006 A 
HETATM   18  C10 UNL     1      26.456   6.889  49.236  1.00  0.00     0.014 A 
HETATM   19  C14 UNL     1      25.766   4.687  50.007  1.00  0.00     0.004 A 
HETATM   20  C11 UNL     1      27.468   6.289  48.538  1.00  0.00     0.001 A 
HETATM   21  C12 UNL     1      27.654   4.910  48.555  1.00  0.00     0.001 A 
HETATM   22  C13 UNL     1      26.796   4.109  49.294  1.00  0.00     0.014 A 
ENDBRANCH  11  13
ENDBRANCH   4  11
BRANCH   1  23
HETATM   23  O1  UNL     1      22.624  -1.151  54.041  1.00  0.00    -0.359 OA
HETATM   24  C1  UNL     1      21.478  -0.583  54.642  1.00  0.00     0.209 C 
ENDBRANCH   1  23
TORSDOF 3
ENDMDL
MODEL 4
REMARK VINA RESULT:      -8.1      1.838      3.271
REMARK  3 active torsions:
REMARK  status: ('A' for Active; 'I' for Inactive)
REMARK    1  A    between atoms: O1_2  and  C2_3 
REMARK    2  A    between atoms: C5_6  and  N1_7 
REMARK    3  A    between atoms: N1_7  and  C6_8 
ROOT
HETATM    1  C2  UNL     1      21.280   0.648  51.341  1.00  0.00     0.058 A 
HETATM    2  C3  UNL     1      22.150   0.337  52.299  1.00  0.00     0.045 A 
HETATM    3  C4  UNL     1      23.251   1.104  51.687  1.00  0.00     0.004 A 
HETATM    4  C5  UNL     1      24.545   1.414  51.901  1.00  0.00     0.137 C 
HETATM    5  N3  UNL     1      25.435   2.233  51.101  1.00  0.00    -0.224 NA
HETATM    6  C15 UNL     1      25.195   3.186  50.222  1.00  0.00     0.236 C 
HETATM    7  N4  UNL     1      23.954   3.754  49.745  1.00  0.00    -0.240 NA
HETATM    8  C16 UNL     1      22.854   3.894  50.363  1.00  0.00     0.084 C 
HETATM    9  C17 UNL     1      22.033   2.882  50.497  1.00  0.00     0.023 C 
HETATM   10  C18 UNL     1      22.279   1.448  50.617  1.00  0.00     0.104 A 
ENDROOT
BRANCH   4  11
HETATM   11  N1  UNL     1      25.056   0.840  53.082  1.00  0.00    -0.339 N 
HETATM   12  H5  UNL     1      24.249   0.418  53.590  1.00  0.00     0.167 HD
BRANCH  11  13
HETATM   13  C6  UNL     1      26.421   0.906  53.384  1.00  0.00     0.062 A 
HETATM   14  C7  UNL     1      26.889   2.130  53.814  1.00  0.00     0.146 A 
HETATM   15  N2  UNL     1      28.206   2.233  54.117  1.00  0.00    -0.270 NA
HETATM   16  C8  UNL     1      29.042   1.193  54.008  1.00  0.00     0.128 A 
HETATM   17  C9  UNL     1      28.610  -0.052  53.578  1.00  0.00    -0.006 A 
HETATM   18  C10 UNL     1      29.504  -1.119  53.474  1.00  0.00     0.014 A 
HETATM   19  C14 UNL     1      27.270  -0.176  53.266  1.00  0.00     0.004 A 
HETATM   20  C11 UNL     1      29.001  -2.316  53.043  1.00  0.00     0.001 A 
HETATM   21  C12 UNL     1      27.657  -2.473  52.721  1.00  0.00     0.001 A 
HETATM   22  C13 UNL     1      26.790  -1.395  52.834  1.00  0.00     0.014 A 
ENDBRANCH  11  13
ENDBRANCH   4  11
BRANCH   1  23
HETATM   23  O1  UNL     1      19.972   0.240  51.276  1.00  0.00    -0.359 OA
HETATM   24  C1  UNL     1      18.982   1.047  51.883  1.00  0.00     0.209 C 
ENDBRANCH   1  23
TORSDOF 3
ENDMDL
MODEL 5
REMARK VINA RESULT:      -8.0      3.758      6.293
REMARK  3 active torsions:
REMARK  status: ('A' for Active; 'I' for Inactive)
REMARK    1  A    between atoms: O1_2  and  C2_3 
REMARK    2  A    between atoms: C5_6  and  N1_7 
REMARK    3  A    between atoms: N1_7  and  C6_8 
ROOT
HETATM    1  C2  UNL     1      26.504   4.359  49.322  1.00  0.00     0.058 A 
HETATM    2  C3  UNL     1      26.072   3.124  49.566  1.00  0.00     0.045 A 
HETATM    3  C4  UNL     1      24.982   3.573  50.452  1.00  0.00     0.004 A 
HETATM    4  C5  UNL     1      23.976   3.073  51.198  1.00  0.00     0.137 C 
HETATM    5  N3  UNL     1      23.000   3.775  52.008  1.00  0.00    -0.224 NA
HETATM    6  C15 UNL     1      22.551   5.013  51.961  1.00  0.00     0.236 C 
HETATM    7  N4  UNL     1      22.873   6.112  51.081  1.00  0.00    -0.240 NA
HETATM    8  C16 UNL     1      23.229   6.078  49.862  1.00  0.00     0.084 C 
HETATM    9  C17 UNL     1      24.468   5.800  49.539  1.00  0.00     0.023 C 
HETATM   10  C18 UNL     1      25.467   4.951  50.180  1.00  0.00     0.104 A 
ENDROOT
BRANCH   4  11
HETATM   11  N1  UNL     1      23.905   1.666  51.145  1.00  0.00    -0.339 N 
HETATM   12  H5  UNL     1      23.592   1.413  50.184  1.00  0.00     0.167 HD
BRANCH  11  13
HETATM   13  C6  UNL     1      24.227   0.886  52.261  1.00  0.00     0.062 A 
HETATM   14  C7  UNL     1      25.567   0.813  52.583  1.00  0.00     0.146 A 
HETATM   15  N2  UNL     1      25.919   0.066  53.658  1.00  0.00    -0.270 NA
HETATM   16  C8  UNL     1      25.013  -0.587  54.395  1.00  0.00     0.128 A 
HETATM   17  C9  UNL     1      23.658  -0.539  54.103  1.00  0.00    -0.006 A 
HETATM   18  C10 UNL     1      22.735  -1.230  54.889  1.00  0.00     0.014 A 
HETATM   19  C14 UNL     1      23.281   0.217  53.011  1.00  0.00     0.004 A 
HETATM   20  C11 UNL     1      21.416  -1.133  54.536  1.00  0.00     0.001 A 
HETATM   21  C12 UNL     1      21.004  -0.378  53.442  1.00  0.00     0.001 A 
HETATM   22  C13 UNL     1      21.944   0.299  52.678  1.00  0.00     0.014 A 
ENDBRANCH  11  13
ENDBRANCH   4  11
BRANCH   1  23
HETATM   23  O1  UNL     1      27.564   4.699  48.520  1.00  0.00    -0.359 OA
HETATM   24  C1  UNL     1      27.892   6.067  48.379  1.00  0.00     0.209 C 
ENDBRANCH   1  23
TORSDOF 3
ENDMDL
MODEL 6
REMARK VINA RESULT:      -7.8      2.436      6.105
REMARK  3 active torsions:
REMARK  status: ('A' for Active; 'I' for Inactive)
REMARK    1  A    between atoms: O1_2  and  C2_3 
REMARK    2  A    between atoms: C5_6  and  N1_7 
REMARK    3  A    between atoms: N1_7  and  C6_8 
ROOT
HETATM    1  C2  UNL     1      23.448  -0.616  53.462  1.00  0.00     0.058 A 
HETATM    2  C3  UNL     1      23.279   0.668  53.153  1.00  0.00     0.045 A 
HETATM    3  C4  UNL     1      24.673   1.031  53.468  1.00  0.00     0.004 A 
HETATM    4  C5  UNL     1      25.491   2.103  53.477  1.00  0.00     0.137 C 
HETATM    5  N3  UNL     1      26.891   2.184  53.846  1.00  0.00    -0.224 NA
HETATM    6  C15 UNL     1      27.840   1.270  53.889  1.00  0.00     0.236 C 
HETATM    7  N4  UNL     1      27.820  -0.141  53.579  1.00  0.00    -0.240 NA
HETATM    8  C16 UNL     1      27.111  -0.758  52.725  1.00  0.00     0.084 C 
HETATM    9  C17 UNL     1      25.867  -1.069  52.996  1.00  0.00     0.023 C 
HETATM   10  C18 UNL     1      24.860  -0.402  53.815  1.00  0.00     0.104 A 
ENDROOT
BRANCH   4  11
HETATM   11  N1  UNL     1      24.848   3.284  53.055  1.00  0.00    -0.339 N 
HETATM   12  H5  UNL     1      24.693   3.867  53.905  1.00  0.00     0.167 HD
BRANCH  11  13
HETATM   13  C6  UNL     1      24.538   3.494  51.707  1.00  0.00     0.062 A 
HETATM   14  C7  UNL     1      25.577   3.336  50.814  1.00  0.00     0.146 A 
HETATM   15  N2  UNL     1      25.317   3.530  49.499  1.00  0.00    -0.270 NA
HETATM   16  C8  UNL     1      24.097   3.865  49.060  1.00  0.00     0.128 A 
HETATM   17  C9  UNL     1      23.027   4.033  49.925  1.00  0.00    -0.006 A 
HETATM   18  C10 UNL     1      21.767   4.382  49.439  1.00  0.00     0.014 A 
HETATM   19  C14 UNL     1      23.275   3.839  51.270  1.00  0.00     0.004 A 
HETATM   20  C11 UNL     1      20.762   4.530  50.357  1.00  0.00     0.001 A 
HETATM   21  C12 UNL     1      20.979   4.340  51.718  1.00  0.00     0.001 A 
HETATM   22  C13 UNL     1      22.243   3.993  52.173  1.00  0.00     0.014 A 
ENDBRANCH  11  13
ENDBRANCH   4  11
BRANCH   1  23
HETATM   23  O1  UNL     1      22.490  -1.594  53.394  1.00  0.00    -0.359 OA
HETATM   24  C1  UNL     1      21.351  -1.483  54.225  1.00  0.00     0.209 C 
ENDBRANCH   1  23
TORSDOF 3
ENDMDL
MODEL 7
REMARK VINA RESULT:      -7.7      3.820      5.550
REMARK  3 active torsions:
REMARK  status: ('A' for Active; 'I' for Inactive)
REMARK    1  A    between atoms: O1_2  and  C2_3 
REMARK    2  A    between atoms: C5_6  and  N1_7 
REMARK    3  A    between atoms: N1_7  and  C6_8 
ROOT
HETATM    1  C2  UNL     1      26.532   4.925  49.173  1.00  0.00     0.058 A 
HETATM    2  C3  UNL     1      26.442   3.627  49.454  1.00  0.00     0.045 A 
HETATM    3  C4  UNL     1      25.393   3.818  50.472  1.00  0.00     0.004 A 
HETATM    4  C5  UNL     1      24.636   3.104  51.331  1.00  0.00     0.137 C 
HETATM    5  N3  UNL     1      23.626   3.566  52.263  1.00  0.00    -0.224 NA
HETATM    6  C15 UNL     1      22.891   4.660  52.286  1.00  0.00     0.236 C 
HETATM    7  N4  UNL     1      22.830   5.788  51.386  1.00  0.00    -0.240 NA
HETATM    8  C16 UNL     1      23.031   5.818  50.133  1.00  0.00     0.084 C 
HETATM    9  C17 UNL     1      24.251   5.840  49.656  1.00  0.00     0.023 C 
HETATM   10  C18 UNL     1      25.495   5.267  50.159  1.00  0.00     0.104 A 
ENDROOT
BRANCH   4  11
HETATM   11  N1  UNL     1      24.899   1.721  51.270  1.00  0.00    -0.339 N 
HETATM   12  H5  UNL     1      24.881   1.451  50.264  1.00  0.00     0.167 HD
BRANCH  11  13
HETATM   13  C6  UNL     1      25.125   0.979  52.435  1.00  0.00     0.062 A 
HETATM   14  C7  UNL     1      24.053   0.249  52.905  1.00  0.00     0.146 A 
HETATM   15  N2  UNL     1      24.231  -0.484  54.031  1.00  0.00    -0.270 NA
HETATM   16  C8  UNL     1      25.402  -0.512  54.680  1.00  0.00     0.128 A 
HETATM   17  C9  UNL     1      26.502   0.208  54.239  1.00  0.00    -0.006 A 
HETATM   18  C10 UNL     1      27.710   0.160  54.937  1.00  0.00     0.014 A 
HETATM   19  C14 UNL     1      26.337   0.961  53.093  1.00  0.00     0.004 A 
HETATM   20  C11 UNL     1      28.749   0.898  54.439  1.00  0.00     0.001 A 
HETATM   21  C12 UNL     1      28.615   1.666  53.286  1.00  0.00     0.001 A 
HETATM   22  C13 UNL     1      27.402   1.695  52.613  1.00  0.00     0.014 A 
ENDBRANCH  11  13
ENDBRANCH   4  11
BRANCH   1  23
HETATM   23  O1  UNL     1      27.372   5.494  48.250  1.00  0.00    -0.359 OA
HETATM   24  C1  UNL     1      27.804   6.824  48.461  1.00  0.00     0.209 C 
ENDBRANCH   1  23
TORSDOF 3
ENDMDL
MODEL 8
REMARK VINA RESULT:      -7.7      3.442      5.697
REMARK  3 active torsions:
REMARK  status: ('A' for Active; 'I' for Inactive)
REMARK    1  A    between atoms: O1_2  and  C2_3 
REMARK    2  A    between atoms: C5_6  and  N1_7 
REMARK    3  A    between atoms: N1_7  and  C6_8 
ROOT
HETATM    1  C2  UNL     1      24.406  -0.420  53.815  1.00  0.00     0.058 A 
HETATM    2  C3  UNL     1      24.513   0.413  52.782  1.00  0.00     0.045 A 
HETATM    3  C4  UNL     1      23.088   0.303  52.418  1.00  0.00     0.004 A 
HETATM    4  C5  UNL     1      22.209   0.769  51.508  1.00  0.00     0.137 C 
HETATM    5  N3  UNL     1      20.793   0.487  51.375  1.00  0.00    -0.224 NA
HETATM    6  C15 UNL     1      19.899   0.064  52.245  1.00  0.00     0.236 C 
HETATM    7  N4  UNL     1      20.013  -0.269  53.646  1.00  0.00    -0.240 NA
HETATM    8  C16 UNL     1      20.792   0.224  54.520  1.00  0.00     0.084 C 
HETATM    9  C17 UNL     1      22.040  -0.169  54.595  1.00  0.00     0.023 C 
HETATM   10  C18 UNL     1      22.971  -0.629  53.570  1.00  0.00     0.104 A 
ENDROOT
BRANCH   4  11
HETATM   11  N1  UNL     1      22.799   1.654  50.584  1.00  0.00    -0.339 N 
HETATM   12  H5  UNL     1      23.113   1.081  49.771  1.00  0.00     0.167 HD
BRANCH  11  13
HETATM   13  C6  UNL     1      22.876   3.026  50.847  1.00  0.00     0.062 A 
HETATM   14  C7  UNL     1      21.829   3.566  51.564  1.00  0.00     0.146 A 
HETATM   15  N2  UNL     1      21.868   4.892  51.840  1.00  0.00    -0.270 NA
HETATM   16  C8  UNL     1      22.880   5.670  51.439  1.00  0.00     0.128 A 
HETATM   17  C9  UNL     1      23.951   5.165  50.717  1.00  0.00    -0.006 A 
HETATM   18  C10 UNL     1      24.993   6.000  50.311  1.00  0.00     0.014 A 
HETATM   19  C14 UNL     1      23.927   3.815  50.426  1.00  0.00     0.004 A 
HETATM   20  C11 UNL     1      26.013   5.427  49.602  1.00  0.00     0.001 A 
HETATM   21  C12 UNL     1      26.020   4.070  49.294  1.00  0.00     0.001 A 
HETATM   22  C13 UNL     1      24.970   3.263  49.710  1.00  0.00     0.014 A 
ENDBRANCH  11  13
ENDBRANCH   4  11
BRANCH   1  23
HETATM   23  O1  UNL     1      25.422  -0.794  54.657  1.00  0.00    -0.359 OA
HETATM   24  C1  UNL     1      26.461   0.130  54.914  1.00  0.00     0.209 C 
ENDBRANCH   1  23
TORSDOF 3
ENDMDL
MODEL 9
REMARK VINA RESULT:      -7.6      4.096      6.455
REMARK  3 active torsions:
REMARK  status: ('A' for Active; 'I' for Inactive)
REMARK    1  A    between atoms: O1_2  and  C2_3 
REMARK    2  A    between atoms: C5_6  and  N1_7 
REMARK    3  A    between atoms: N1_7  and  C6_8 
ROOT
HETATM    1  C2  UNL     1      26.269   0.340  54.032  1.00  0.00     0.058 A 
HETATM    2  C3  UNL     1      26.290   1.626  53.688  1.00  0.00     0.045 A 
HETATM    3  C4  UNL     1      25.102   1.517  52.822  1.00  0.00     0.004 A 
HETATM    4  C5  UNL     1      24.325   2.276  52.023  1.00  0.00     0.137 C 
HETATM    5  N3  UNL     1      23.156   1.897  51.253  1.00  0.00    -0.224 NA
HETATM    6  C15 UNL     1      22.305   0.900  51.387  1.00  0.00     0.236 C 
HETATM    7  N4  UNL     1      22.235  -0.172  52.353  1.00  0.00    -0.240 NA
HETATM    8  C16 UNL     1      22.594  -0.170  53.571  1.00  0.00     0.084 C 
HETATM    9  C17 UNL     1      23.856  -0.316  53.892  1.00  0.00     0.023 C 
HETATM   10  C18 UNL     1      25.080   0.081  53.205  1.00  0.00     0.104 A 
ENDROOT
BRANCH   4  11
HETATM   11  N1  UNL     1      24.747   3.619  51.968  1.00  0.00    -0.339 N 
HETATM   12  H5  UNL     1      24.441   4.072  52.855  1.00  0.00     0.167 HD
BRANCH  11  13
HETATM   13  C6  UNL     1      25.442   4.112  50.857  1.00  0.00     0.062 A 
HETATM   14  C7  UNL     1      26.492   3.338  50.407  1.00  0.00     0.146 A 
HETATM   15  N2  UNL     1      27.189   3.781  49.333  1.00  0.00    -0.270 NA
HETATM   16  C8  UNL     1      26.886   4.929  48.715  1.00  0.00     0.128 A 
HETATM   17  C9  UNL     1      25.838   5.734  49.137  1.00  0.00    -0.006 A 
HETATM   18  C10 UNL     1      25.544   6.925  48.473  1.00  0.00     0.014 A 
HETATM   19  C14 UNL     1      25.117   5.298  50.231  1.00  0.00     0.004 A 
HETATM   20  C11 UNL     1      24.496   7.664  48.950  1.00  0.00     0.001 A 
HETATM   21  C12 UNL     1      23.749   7.252  50.049  1.00  0.00     0.001 A 
HETATM   22  C13 UNL     1      24.064   6.062  50.690  1.00  0.00     0.014 A 
ENDBRANCH  11  13
ENDBRANCH   4  11
BRANCH   1  23
HETATM   23  O1  UNL     1      27.153  -0.283  54.875  1.00  0.00    -0.359 OA
HETATM   24  C1  UNL     1      28.502   0.141  54.872  1.00  0.00     0.209 C 
ENDBRANCH   1  23
TORSDOF 3
ENDMDL
