MODEL 1
REMARK VINA RESULT:      -7.6      0.000      0.000
REMARK  2 active torsions:
REMARK  status: ('A' for Active; 'I' for Inactive)
REMARK    1  A    between atoms: C2_2  and  C3_3 
REMARK    2  A    between atoms: C3_3  and  C4_4 
ROOT
HETATM    1  C4  UNL     1      21.937   2.840  51.888  1.00  0.00    -0.051 C 
HETATM    2  C5  UNL     1      21.715   4.087  51.603  1.00  0.00     0.033 C 
HETATM    3  C6  UNL     1      22.422   5.366  51.601  1.00  0.00     0.050 C 
HETATM    4  C7  UNL     1      21.614   6.559  51.147  1.00  0.00     0.072 C 
HETATM    5  N1  UNL     1      23.664   5.617  51.944  1.00  0.00    -0.183 NA
HETATM    6  N2  UNL     1      24.175   6.941  51.870  1.00  0.00    -0.296 N 
HETATM    7  C8  UNL     1      24.665   6.966  50.484  1.00  0.00     0.262 C 
HETATM    8  N3  UNL     1      25.643   5.919  50.384  1.00  0.00    -0.382 N 
HETATM    9  C9  UNL     1      26.371   5.284  49.389  1.00  0.00     0.081 C 
HETATM   10  C10 UNL     1      26.755   4.024  49.305  1.00  0.00    -0.004 C 
HETATM   11  C11 UNL     1      26.736   2.731  49.966  1.00  0.00     0.023 C 
HETATM   12  C12 UNL     1      26.406   1.921  50.954  1.00  0.00     0.021 C 
HETATM   13  C13 UNL     1      25.872   1.312  52.217  1.00  0.00     0.111 C 
HETATM   14 CL1  UNL     1      27.277   0.594  53.065  1.00  0.00    -0.122 Cl
HETATM   15  C14 UNL     1      25.307   2.368  53.093  1.00  0.00     0.188 C 
HETATM   16  O1  UNL     1      24.233   3.083  52.598  1.00  0.00    -0.385 OA
HETATM   17  C15 UNL     1      23.182   2.219  52.398  1.00  0.00     0.202 C 
HETATM   18  H10 UNL     1      24.030   7.415  52.791  1.00  0.00     0.184 HD
HETATM   19  H13 UNL     1      26.006   5.424  51.207  1.00  0.00     0.160 HD
ENDROOT
BRANCH   1  20
HETATM   20  C3  UNL     1      20.928   1.714  51.768  1.00  0.00     0.062 C 
BRANCH  20  21
HETATM   21  C2  UNL     1      21.392   0.745  50.754  1.00  0.00    -0.033 C 
HETATM   22  C1  UNL     1      21.345   0.911  49.426  1.00  0.00     0.007 C 
ENDBRANCH  20  21
ENDBRANCH   1  20
TORSDOF 2
ENDMDL
MODEL 2
REMARK VINA RESULT:      -7.5      1.672      2.099
REMARK  2 active torsions:
REMARK  status: ('A' for Active; 'I' for Inactive)
REMARK    1  A    between atoms: C2_2  and  C3_3 
REMARK    2  A    between atoms: C3_3  and  C4_4 
ROOT
HETATM    1  C4  UNL     1      22.355   1.143  52.497  1.00  0.00    -0.051 C 
HETATM    2  C5  UNL     1      21.636   2.170  52.156  1.00  0.00     0.033 C 
HETATM    3  C6  UNL     1      21.750   3.625  52.077  1.00  0.00     0.050 C 
HETATM    4  C7  UNL     1      20.521   4.351  51.582  1.00  0.00     0.072 C 
HETATM    5  N1  UNL     1      22.776   4.385  52.383  1.00  0.00    -0.183 NA
HETATM    6  N2  UNL     1      22.692   5.797  52.234  1.00  0.00    -0.296 N 
HETATM    7  C8  UNL     1      23.130   5.949  50.839  1.00  0.00     0.262 C 
HETATM    8  N3  UNL     1      24.455   5.397  50.771  1.00  0.00    -0.382 N 
HETATM    9  C9  UNL     1      25.383   5.069  49.794  1.00  0.00     0.081 C 
HETATM   10  C10 UNL     1      26.255   4.078  49.764  1.00  0.00    -0.004 C 
HETATM   11  C11 UNL     1      26.772   2.930  50.488  1.00  0.00     0.023 C 
HETATM   12  C12 UNL     1      26.805   2.109  51.521  1.00  0.00     0.021 C 
HETATM   13  C13 UNL     1      26.568   1.401  52.822  1.00  0.00     0.111 C 
HETATM   14 CL1  UNL     1      28.143   1.375  53.676  1.00  0.00    -0.122 Cl
HETATM   15  C14 UNL     1      25.615   2.173  53.657  1.00  0.00     0.188 C 
HETATM   16  O1  UNL     1      24.342   2.352  53.149  1.00  0.00    -0.385 OA
HETATM   17  C15 UNL     1      23.744   1.121  53.012  1.00  0.00     0.202 C 
HETATM   18  H10 UNL     1      22.362   6.215  53.134  1.00  0.00     0.184 HD
HETATM   19  H13 UNL     1      24.988   5.140  51.610  1.00  0.00     0.160 HD
ENDROOT
BRANCH   1  20
HETATM   20  C3  UNL     1      21.903  -0.304  52.452  1.00  0.00     0.062 C 
BRANCH  20  21
HETATM   21  C2  UNL     1      22.413  -1.015  53.642  1.00  0.00    -0.033 C 
HETATM   22  C1  UNL     1      21.673  -1.670  54.545  1.00  0.00     0.007 C 
ENDBRANCH  20  21
ENDBRANCH   1  20
TORSDOF 2
ENDMDL
MODEL 3
REMARK VINA RESULT:      -7.5      3.307      6.261
REMARK  2 active torsions:
REMARK  status: ('A' for Active; 'I' for Inactive)
REMARK    1  A    between atoms: C2_2  and  C3_3 
REMARK    2  A    between atoms: C3_3  and  C4_4 
ROOT
HETATM    1  C4  UNL     1      26.192   2.819  50.736  1.00  0.00    -0.051 C 
HETATM    2  C5  UNL     1      27.030   2.196  51.508  1.00  0.00     0.033 C 
HETATM    3  C6  UNL     1      27.101   1.668  52.870  1.00  0.00     0.050 C 
HETATM    4  C7  UNL     1      28.405   1.005  53.247  1.00  0.00     0.072 C 
HETATM    5  N1  UNL     1      26.184   1.697  53.809  1.00  0.00    -0.183 NA
HETATM    6  N2  UNL     1      26.443   1.121  55.083  1.00  0.00    -0.296 N 
HETATM    7  C8  UNL     1      26.008  -0.263  54.848  1.00  0.00     0.262 C 
HETATM    8  N3  UNL     1      24.624  -0.192  54.472  1.00  0.00    -0.382 N 
HETATM    9  C9  UNL     1      23.648  -1.043  53.975  1.00  0.00     0.081 C 
HETATM   10  C10 UNL     1      22.658  -0.789  53.142  1.00  0.00    -0.004 C 
HETATM   11  C11 UNL     1      22.009   0.241  52.348  1.00  0.00     0.023 C 
HETATM   12  C12 UNL     1      21.887   1.476  51.899  1.00  0.00     0.021 C 
HETATM   13  C13 UNL     1      22.051   2.938  51.606  1.00  0.00     0.111 C 
HETATM   14 CL1  UNL     1      20.497   3.717  52.042  1.00  0.00    -0.122 Cl
HETATM   15  C14 UNL     1      23.106   3.518  52.473  1.00  0.00     0.188 C 
HETATM   16  O1  UNL     1      24.384   3.013  52.325  1.00  0.00    -0.385 OA
HETATM   17  C15 UNL     1      24.819   3.279  51.048  1.00  0.00     0.202 C 
HETATM   18  H10 UNL     1      26.837   1.856  55.715  1.00  0.00     0.184 HD
HETATM   19  H13 UNL     1      24.074   0.671  54.557  1.00  0.00     0.160 HD
ENDROOT
BRANCH   1  20
HETATM   20  C3  UNL     1      26.456   3.235  49.302  1.00  0.00     0.062 C 
BRANCH  20  21
HETATM   21  C2  UNL     1      26.759   4.680  49.258  1.00  0.00    -0.033 C 
HETATM   22  C1  UNL     1      27.720   5.261  48.528  1.00  0.00     0.007 C 
ENDBRANCH  20  21
ENDBRANCH   1  20
TORSDOF 2
ENDMDL
MODEL 4
REMARK VINA RESULT:      -7.4      3.560      5.983
REMARK  2 active torsions:
REMARK  status: ('A' for Active; 'I' for Inactive)
REMARK    1  A    between atoms: C2_2  and  C3_3 
REMARK    2  A    between atoms: C3_3  and  C4_4 
ROOT
HETATM    1  C4  UNL     1      25.011   0.094  53.435  1.00  0.00    -0.051 C 
HETATM    2  C5  UNL     1      23.970  -0.574  53.830  1.00  0.00     0.033 C 
HETATM    3  C6  UNL     1      22.522  -0.406  53.939  1.00  0.00     0.050 C 
HETATM    4  C7  UNL     1      21.768  -1.585  54.507  1.00  0.00     0.072 C 
HETATM    5  N1  UNL     1      21.790   0.634  53.612  1.00  0.00    -0.183 NA
HETATM    6  N2  UNL     1      20.380   0.604  53.792  1.00  0.00    -0.296 N 
HETATM    7  C8  UNL     1      19.955   0.033  52.506  1.00  0.00     0.262 C 
HETATM    8  N3  UNL     1      20.430   0.931  51.490  1.00  0.00    -0.382 N 
HETATM    9  C9  UNL     1      20.533   0.957  50.107  1.00  0.00     0.081 C 
HETATM   10  C10 UNL     1      21.464   1.500  49.346  1.00  0.00    -0.004 C 
HETATM   11  C11 UNL     1      22.704   2.256  49.344  1.00  0.00     0.023 C 
HETATM   12  C12 UNL     1      23.700   2.882  49.943  1.00  0.00     0.021 C 
HETATM   13  C13 UNL     1      24.646   3.491  50.936  1.00  0.00     0.111 C 
HETATM   14 CL1  UNL     1      24.765   5.229  50.518  1.00  0.00    -0.122 Cl
HETATM   15  C14 UNL     1      24.081   3.394  52.305  1.00  0.00     0.188 C 
HETATM   16  O1  UNL     1      23.864   2.123  52.802  1.00  0.00    -0.385 OA
HETATM   17  C15 UNL     1      25.072   1.471  52.893  1.00  0.00     0.202 C 
HETATM   18  H10 UNL     1      20.150   0.984  54.739  1.00  0.00     0.184 HD
HETATM   19  H13 UNL     1      20.815   1.857  51.710  1.00  0.00     0.160 HD
ENDROOT
BRANCH   1  20
HETATM   20  C3  UNL     1      26.442  -0.408  53.460  1.00  0.00     0.062 C 
BRANCH  20  21
HETATM   21  C2  UNL     1      27.154   0.194  54.607  1.00  0.00    -0.033 C 
HETATM   22  C1  UNL     1      28.476   0.157  54.820  1.00  0.00     0.007 C 
ENDBRANCH  20  21
ENDBRANCH   1  20
TORSDOF 2
ENDMDL
MODEL 5
REMARK VINA RESULT:      -6.8      7.117      9.478
REMARK  2 active torsions:
REMARK  status: ('A' for Active; 'I' for Inactive)
REMARK    1  A    between atoms: C2_2  and  C3_3 
REMARK    2  A    between atoms: C3_3  and  C4_4 
ROOT
HETATM    1  C4  UNL     1      29.845   6.844  47.912  1.00  0.00    -0.051 C 
HETATM    2  C5  UNL     1      30.351   8.037  47.824  1.00  0.00     0.033 C 
HETATM    3  C6  UNL     1      31.659   8.681  47.716  1.00  0.00     0.050 C 
HETATM    4  C7  UNL     1      31.641  10.189  47.646  1.00  0.00     0.072 C 
HETATM    5  N1  UNL     1      32.846   8.123  47.676  1.00  0.00    -0.183 NA
HETATM    6  N2  UNL     1      34.014   8.927  47.566  1.00  0.00    -0.296 N 
HETATM    7  C8  UNL     1      34.131   9.035  46.104  1.00  0.00     0.262 C 
HETATM    8  N3  UNL     1      34.257   7.691  45.611  1.00  0.00    -0.382 N 
HETATM    9  C9  UNL     1      34.250   7.041  44.386  1.00  0.00     0.081 C 
HETATM   10  C10 UNL     1      33.789   5.845  44.073  1.00  0.00    -0.004 C 
HETATM   11  C11 UNL     1      33.143   4.650  44.589  1.00  0.00     0.023 C 
HETATM   12  C12 UNL     1      32.606   3.928  45.554  1.00  0.00     0.021 C 
HETATM   13  C13 UNL     1      32.083   3.408  46.860  1.00  0.00     0.111 C 
HETATM   14 CL1  UNL     1      32.927   1.856  47.160  1.00  0.00    -0.122 Cl
HETATM   15  C14 UNL     1      32.442   4.337  47.960  1.00  0.00     0.188 C 
HETATM   16  O1  UNL     1      31.925   5.617  47.891  1.00  0.00    -0.385 OA
HETATM   17  C15 UNL     1      30.553   5.543  47.951  1.00  0.00     0.202 C 
HETATM   18  H10 UNL     1      34.365   9.151  48.525  1.00  0.00     0.184 HD
HETATM   19  H13 UNL     1      34.413   6.889  46.232  1.00  0.00     0.160 HD
ENDROOT
BRANCH   1  20
HETATM   20  C3  UNL     1      28.367   6.518  48.012  1.00  0.00     0.062 C 
BRANCH  20  21
HETATM   21  C2  UNL     1      28.202   5.134  48.501  1.00  0.00    -0.033 C 
HETATM   22  C1  UNL     1      27.057   4.579  48.921  1.00  0.00     0.007 C 
ENDBRANCH  20  21
ENDBRANCH   1  20
TORSDOF 2
ENDMDL
MODEL 6
REMARK VINA RESULT:      -6.8      3.014      6.167
REMARK  2 active torsions:
REMARK  status: ('A' for Active; 'I' for Inactive)
REMARK    1  A    between atoms: C2_2  and  C3_3 
REMARK    2  A    between atoms: C3_3  and  C4_4 
ROOT
HETATM    1  C4  UNL     1      26.289   3.238  50.299  1.00  0.00    -0.051 C 
HETATM    2  C5  UNL     1      26.589   2.147  50.936  1.00  0.00     0.033 C 
HETATM    3  C6  UNL     1      26.083   1.333  52.040  1.00  0.00     0.050 C 
HETATM    4  C7  UNL     1      26.890   0.098  52.365  1.00  0.00     0.072 C 
HETATM    5  N1  UNL     1      25.023   1.534  52.787  1.00  0.00    -0.183 NA
HETATM    6  N2  UNL     1      24.691   0.617  53.822  1.00  0.00    -0.296 N 
HETATM    7  C8  UNL     1      23.855  -0.338  53.079  1.00  0.00     0.262 C 
HETATM    8  N3  UNL     1      22.756   0.419  52.546  1.00  0.00    -0.382 N 
HETATM    9  C9  UNL     1      21.710   0.226  51.656  1.00  0.00     0.081 C 
HETATM   10  C10 UNL     1      21.155   1.079  50.816  1.00  0.00    -0.004 C 
HETATM   11  C11 UNL     1      21.180   2.445  50.323  1.00  0.00     0.023 C 
HETATM   12  C12 UNL     1      21.653   3.677  50.296  1.00  0.00     0.021 C 
HETATM   13  C13 UNL     1      22.421   4.943  50.532  1.00  0.00     0.111 C 
HETATM   14 CL1  UNL     1      21.213   6.193  50.966  1.00  0.00    -0.122 Cl
HETATM   15  C14 UNL     1      23.335   4.777  51.690  1.00  0.00     0.188 C 
HETATM   16  O1  UNL     1      24.322   3.816  51.575  1.00  0.00    -0.385 OA
HETATM   17  C15 UNL     1      25.156   4.163  50.538  1.00  0.00     0.202 C 
HETATM   18  H10 UNL     1      25.139   0.931  54.713  1.00  0.00     0.184 HD
HETATM   19  H13 UNL     1      22.566   1.387  52.830  1.00  0.00     0.160 HD
ENDROOT
BRANCH   1  20
HETATM   20  C3  UNL     1      27.071   3.827  49.140  1.00  0.00     0.062 C 
BRANCH  20  21
HETATM   21  C2  UNL     1      26.652   5.227  48.926  1.00  0.00    -0.033 C 
HETATM   22  C1  UNL     1      27.411   6.207  48.421  1.00  0.00     0.007 C 
ENDBRANCH  20  21
ENDBRANCH   1  20
TORSDOF 2
ENDMDL
MODEL 7
REMARK VINA RESULT:      -6.7      3.276      6.256
REMARK  2 active torsions:
REMARK  status: ('A' for Active; 'I' for Inactive)
REMARK    1  A    between atoms: C2_2  and  C3_3 
REMARK    2  A    between atoms: C3_3  and  C4_4 
ROOT
HETATM    1  C4  UNL     1      26.323   4.137  49.607  1.00  0.00    -0.051 C 
HETATM    2  C5  UNL     1      26.328   3.262  50.565  1.00  0.00     0.033 C 
HETATM    3  C6  UNL     1      25.401   2.658  51.520  1.00  0.00     0.050 C 
HETATM    4  C7  UNL     1      26.000   1.636  52.458  1.00  0.00     0.072 C 
HETATM    5  N1  UNL     1      24.117   2.888  51.673  1.00  0.00    -0.183 NA
HETATM    6  N2  UNL     1      23.377   2.190  52.667  1.00  0.00    -0.296 N 
HETATM    7  C8  UNL     1      22.966   0.998  51.912  1.00  0.00     0.262 C 
HETATM    8  N3  UNL     1      22.202   1.475  50.792  1.00  0.00    -0.382 N 
HETATM    9  C9  UNL     1      21.656   0.960  49.626  1.00  0.00     0.081 C 
HETATM   10  C10 UNL     1      21.513   1.529  48.444  1.00  0.00    -0.004 C 
HETATM   11  C11 UNL     1      21.733   2.742  47.677  1.00  0.00     0.023 C 
HETATM   12  C12 UNL     1      22.152   3.986  47.540  1.00  0.00     0.021 C 
HETATM   13  C13 UNL     1      22.722   5.359  47.747  1.00  0.00     0.111 C 
HETATM   14 CL1  UNL     1      21.428   6.515  47.297  1.00  0.00    -0.122 Cl
HETATM   15  C14 UNL     1      23.036   5.570  49.181  1.00  0.00     0.188 C 
HETATM   16  O1  UNL     1      23.987   4.737  49.741  1.00  0.00    -0.385 OA
HETATM   17  C15 UNL     1      25.187   4.945  49.102  1.00  0.00     0.202 C 
HETATM   18  H10 UNL     1      23.385   2.748  53.552  1.00  0.00     0.184 HD
HETATM   19  H13 UNL     1      21.892   2.450  50.713  1.00  0.00     0.160 HD
ENDROOT
BRANCH   1  20
HETATM   20  C3  UNL     1      27.525   4.545  48.778  1.00  0.00     0.062 C 
BRANCH  20  21
HETATM   21  C2  UNL     1      27.429   5.982  48.446  1.00  0.00    -0.033 C 
HETATM   22  C1  UNL     1      28.399   6.733  47.909  1.00  0.00     0.007 C 
ENDBRANCH  20  21
ENDBRANCH   1  20
TORSDOF 2
ENDMDL
MODEL 8
REMARK VINA RESULT:      -6.6      3.572      5.500
REMARK  2 active torsions:
REMARK  status: ('A' for Active; 'I' for Inactive)
REMARK    1  A    between atoms: C2_2  and  C3_3 
REMARK    2  A    between atoms: C3_3  and  C4_4 
ROOT
HETATM    1  C4  UNL     1      21.651  -0.790  53.481  1.00  0.00    -0.051 C 
HETATM    2  C5  UNL     1      22.873  -0.758  53.919  1.00  0.00     0.033 C 
HETATM    3  C6  UNL     1      24.163  -0.173  53.560  1.00  0.00     0.050 C 
HETATM    4  C7  UNL     1      25.309  -0.497  54.490  1.00  0.00     0.072 C 
HETATM    5  N1  UNL     1      24.460   0.594  52.536  1.00  0.00    -0.183 NA
HETATM    6  N2  UNL     1      25.787   1.071  52.358  1.00  0.00    -0.296 N 
HETATM    7  C8  UNL     1      25.734   2.316  53.139  1.00  0.00     0.262 C 
HETATM    8  N3  UNL     1      24.703   3.120  52.546  1.00  0.00    -0.382 N 
HETATM    9  C9  UNL     1      24.021   4.293  52.832  1.00  0.00     0.081 C 
HETATM   10  C10 UNL     1      22.767   4.617  52.582  1.00  0.00    -0.004 C 
HETATM   11  C11 UNL     1      21.517   4.162  51.998  1.00  0.00     0.023 C 
HETATM   12  C12 UNL     1      20.764   3.271  51.380  1.00  0.00     0.021 C 
HETATM   13  C13 UNL     1      20.226   2.054  50.687  1.00  0.00     0.111 C 
HETATM   14 CL1  UNL     1      19.590   2.612  49.108  1.00  0.00    -0.122 Cl
HETATM   15  C14 UNL     1      21.323   1.092  50.418  1.00  0.00     0.188 C 
HETATM   16  O1  UNL     1      21.984   0.574  51.516  1.00  0.00    -0.385 OA
HETATM   17  C15 UNL     1      21.088  -0.146  52.271  1.00  0.00     0.202 C 
HETATM   18  H10 UNL     1      26.314   0.396  51.758  1.00  0.00     0.184 HD
HETATM   19  H13 UNL     1      24.268   2.882  51.647  1.00  0.00     0.160 HD
ENDROOT
BRANCH   1  20
HETATM   20  C3  UNL     1      20.500  -1.533  54.132  1.00  0.00     0.062 C 
BRANCH  20  21
HETATM   21  C2  UNL     1      19.230  -1.129  53.493  1.00  0.00    -0.033 C 
HETATM   22  C1  UNL     1      18.082  -1.818  53.518  1.00  0.00     0.007 C 
ENDBRANCH  20  21
ENDBRANCH   1  20
TORSDOF 2
ENDMDL
MODEL 9
REMARK VINA RESULT:      -6.4      2.888      5.330
REMARK  2 active torsions:
REMARK  status: ('A' for Active; 'I' for Inactive)
REMARK    1  A    between atoms: C2_2  and  C3_3 
REMARK    2  A    between atoms: C3_3  and  C4_4 
ROOT
HETATM    1  C4  UNL     1      25.216   2.097  52.622  1.00  0.00    -0.051 C 
HETATM    2  C5  UNL     1      25.441   2.828  51.573  1.00  0.00     0.033 C 
HETATM    3  C6  UNL     1      24.842   3.112  50.270  1.00  0.00     0.050 C 
HETATM    4  C7  UNL     1      25.588   4.104  49.410  1.00  0.00     0.072 C 
HETATM    5  N1  UNL     1      23.744   2.618  49.748  1.00  0.00    -0.183 NA
HETATM    6  N2  UNL     1      23.318   3.025  48.453  1.00  0.00    -0.296 N 
HETATM    7  C8  UNL     1      22.501   4.199  48.794  1.00  0.00     0.262 C 
HETATM    8  N3  UNL     1      21.462   3.727  49.666  1.00  0.00    -0.382 N 
HETATM    9  C9  UNL     1      20.469   4.268  50.469  1.00  0.00     0.081 C 
HETATM   10  C10 UNL     1      19.994   3.836  51.622  1.00  0.00    -0.004 C 
HETATM   11  C11 UNL     1      20.093   2.796  52.631  1.00  0.00     0.023 C 
HETATM   12  C12 UNL     1      20.605   1.687  53.130  1.00  0.00     0.021 C 
HETATM   13  C13 UNL     1      21.396   0.438  53.383  1.00  0.00     0.111 C 
HETATM   14 CL1  UNL     1      20.203  -0.883  53.588  1.00  0.00    -0.122 Cl
HETATM   15  C14 UNL     1      22.230   0.113  52.199  1.00  0.00     0.188 C 
HETATM   16  O1  UNL     1      23.191   1.038  51.839  1.00  0.00    -0.385 OA
HETATM   17  C15 UNL     1      24.100   1.153  52.865  1.00  0.00     0.202 C 
HETATM   18  H10 UNL     1      23.720   2.372  47.742  1.00  0.00     0.184 HD
HETATM   19  H13 UNL     1      21.285   2.727  49.821  1.00  0.00     0.160 HD
ENDROOT
BRANCH   1  20
HETATM   20  C3  UNL     1      26.087   2.041  53.862  1.00  0.00     0.062 C 
BRANCH  20  21
HETATM   21  C2  UNL     1      27.460   1.651  53.481  1.00  0.00    -0.033 C 
HETATM   22  C1  UNL     1      28.556   2.410  53.603  1.00  0.00     0.007 C 
ENDBRANCH  20  21
ENDBRANCH   1  20
TORSDOF 2
ENDMDL
