MODEL 1
REMARK VINA RESULT:      -8.1      0.000      0.000
REMARK  4 active torsions:
REMARK  status: ('A' for Active; 'I' for Inactive)
REMARK    1  A    between atoms: O1_2  and  C2_3 
REMARK    2  A    between atoms: C4_5  and  C5_6 
REMARK    3  A    between atoms: C5_6  and  N1_7 
REMARK    4  A    between atoms: N1_7  and  C6_8 
ROOT
HETATM    1  C2  UNL     1      24.047   0.369  53.150  1.00  0.00     0.070 C 
HETATM    2  C3  UNL     1      24.332   1.290  52.165  1.00  0.00     0.045 C 
HETATM    3  C4  UNL     1      25.777   1.214  51.691  1.00  0.00    -0.016 C 
HETATM    4  C12 UNL     1      26.509   0.238  52.320  1.00  0.00     0.017 C 
HETATM    5  C13 UNL     1      25.739  -1.064  52.340  1.00  0.00     0.090 C 
HETATM    6  C14 UNL     1      24.824  -0.770  53.585  1.00  0.00     0.162 C 
HETATM    7  N2  UNL     1      25.792  -0.680  54.665  1.00  0.00    -0.212 N 
HETATM    8  C15 UNL     1      26.992   0.128  54.813  1.00  0.00     0.720 C 
HETATM    9  N3  UNL     1      27.281   1.431  54.979  1.00  0.00    -0.074 NA
HETATM   10  C16 UNL     1      28.399   1.335  53.934  1.00  0.00     0.267 C 
HETATM   11  C17 UNL     1      29.229   0.461  54.698  1.00  0.00     0.158 C 
HETATM   12  N4  UNL     1      28.339  -0.438  54.648  1.00  0.00    -0.076 NA
HETATM   13  N5  UNL     1      27.730   0.958  52.707  1.00  0.00    -0.365 N 
HETATM   14  H15 UNL     1      25.869  -1.191  55.571  1.00  0.00     0.178 HD
HETATM   15  H18 UNL     1      28.059   1.207  51.750  1.00  0.00     0.162 HD
ENDROOT
BRANCH   3  16
HETATM   16  C5  UNL     1      26.425   2.154  50.773  1.00  0.00     0.160 C 
BRANCH  16  17
HETATM   17  N1  UNL     1      25.250   3.015  50.405  1.00  0.00    -0.386 N 
HETATM   18  H7  UNL     1      24.213   2.868  50.594  1.00  0.00     0.160 HD
BRANCH  17  19
HETATM   19  C6  UNL     1      25.497   4.238  49.684  1.00  0.00     0.029 A 
HETATM   20  C7  UNL     1      24.522   5.165  49.313  1.00  0.00     0.029 A 
HETATM   21  C8  UNL     1      24.883   6.293  48.630  1.00  0.00     0.004 A 
HETATM   22  C9  UNL     1      26.175   6.576  48.277  1.00  0.00     0.019 A 
HETATM   23  C10 UNL     1      27.168   5.688  48.623  1.00  0.00     0.013 A 
HETATM   24 BR1  UNL     1      28.977   6.044  48.152  1.00  0.00    -0.051 Br
HETATM   25  C11 UNL     1      26.793   4.557  49.311  1.00  0.00     0.048 A 
ENDBRANCH  17  19
ENDBRANCH  16  17
ENDBRANCH   3  16
BRANCH   1  26
HETATM   26  O1  UNL     1      22.823   0.660  53.750  1.00  0.00    -0.358 OA
HETATM   27  C1  UNL     1      21.881  -0.336  54.104  1.00  0.00     0.209 C 
ENDBRANCH   1  26
TORSDOF 4
ENDMDL
MODEL 2
REMARK VINA RESULT:      -7.8      4.132      6.698
REMARK  4 active torsions:
REMARK  status: ('A' for Active; 'I' for Inactive)
REMARK    1  A    between atoms: O1_2  and  C2_3 
REMARK    2  A    between atoms: C4_5  and  C5_6 
REMARK    3  A    between atoms: C5_6  and  N1_7 
REMARK    4  A    between atoms: N1_7  and  C6_8 
ROOT
HETATM    1  C2  UNL     1      23.898   2.556  50.782  1.00  0.00     0.070 C 
HETATM    2  C3  UNL     1      23.035   1.546  51.148  1.00  0.00     0.045 C 
HETATM    3  C4  UNL     1      23.332   0.995  52.536  1.00  0.00    -0.016 C 
HETATM    4  C12 UNL     1      24.385   1.618  53.159  1.00  0.00     0.017 C 
HETATM    5  C13 UNL     1      24.246   3.120  53.048  1.00  0.00     0.090 C 
HETATM    6  C14 UNL     1      24.831   3.298  51.599  1.00  0.00     0.162 C 
HETATM    7  N2  UNL     1      26.212   2.879  51.771  1.00  0.00    -0.212 N 
HETATM    8  C15 UNL     1      26.783   1.660  52.319  1.00  0.00     0.720 C 
HETATM    9  N3  UNL     1      26.853   0.365  51.963  1.00  0.00    -0.074 NA
HETATM   10  C16 UNL     1      26.505  -0.065  53.393  1.00  0.00     0.267 C 
HETATM   11  C17 UNL     1      27.704   0.433  53.985  1.00  0.00     0.158 C 
HETATM   12  N4  UNL     1      27.381   1.613  53.662  1.00  0.00    -0.076 NA
HETATM   13  N5  UNL     1      25.187   0.483  53.636  1.00  0.00    -0.365 N 
HETATM   14  H15 UNL     1      27.114   3.364  51.569  1.00  0.00     0.178 HD
HETATM   15  H18 UNL     1      24.480   0.068  54.279  1.00  0.00     0.162 HD
ENDROOT
BRANCH   3  16
HETATM   16  C5  UNL     1      22.698  -0.178  53.143  1.00  0.00     0.160 C 
BRANCH  16  17
HETATM   17  N1  UNL     1      21.471   0.460  53.729  1.00  0.00    -0.386 N 
HETATM   18  H7  UNL     1      21.380   1.137  54.545  1.00  0.00     0.160 HD
BRANCH  17  19
HETATM   19  C6  UNL     1      20.192   0.149  53.143  1.00  0.00     0.029 A 
HETATM   20  C7  UNL     1      19.528   0.930  52.195  1.00  0.00     0.029 A 
HETATM   21  C8  UNL     1      18.314   0.526  51.713  1.00  0.00     0.004 A 
HETATM   22  C9  UNL     1      17.693  -0.627  52.112  1.00  0.00     0.019 A 
HETATM   23  C10 UNL     1      18.313  -1.427  53.046  1.00  0.00     0.013 A 
HETATM   24 BR1  UNL     1      17.484  -3.038  53.627  1.00  0.00    -0.051 Br
HETATM   25  C11 UNL     1      19.534  -1.011  53.523  1.00  0.00     0.048 A 
ENDBRANCH  17  19
ENDBRANCH  16  17
ENDBRANCH   3  16
BRANCH   1  26
HETATM   26  O1  UNL     1      23.779   2.828  49.420  1.00  0.00    -0.358 OA
HETATM   27  C1  UNL     1      22.644   2.463  48.656  1.00  0.00     0.209 C 
ENDBRANCH   1  26
TORSDOF 4
ENDMDL
MODEL 3
REMARK VINA RESULT:      -7.8      2.193      2.633
REMARK  4 active torsions:
REMARK  status: ('A' for Active; 'I' for Inactive)
REMARK    1  A    between atoms: O1_2  and  C2_3 
REMARK    2  A    between atoms: C4_5  and  C5_6 
REMARK    3  A    between atoms: C5_6  and  N1_7 
REMARK    4  A    between atoms: N1_7  and  C6_8 
ROOT
HETATM    1  C2  UNL     1      24.606  -0.338  53.291  1.00  0.00     0.070 C 
HETATM    2  C3  UNL     1      24.276   0.791  52.572  1.00  0.00     0.045 C 
HETATM    3  C4  UNL     1      25.484   1.435  51.905  1.00  0.00    -0.016 C 
HETATM    4  C12 UNL     1      26.659   0.762  52.133  1.00  0.00     0.017 C 
HETATM    5  C13 UNL     1      26.470  -0.720  51.894  1.00  0.00     0.090 C 
HETATM    6  C14 UNL     1      25.836  -1.097  53.283  1.00  0.00     0.162 C 
HETATM    7  N2  UNL     1      26.924  -0.818  54.204  1.00  0.00    -0.212 N 
HETATM    8  C15 UNL     1      27.725   0.378  54.408  1.00  0.00     0.720 C 
HETATM    9  N3  UNL     1      27.528   1.618  54.890  1.00  0.00    -0.074 NA
HETATM   10  C16 UNL     1      28.316   2.217  53.719  1.00  0.00     0.267 C 
HETATM   11  C17 UNL     1      29.572   1.650  54.090  1.00  0.00     0.158 C 
HETATM   12  N4  UNL     1      29.105   0.487  53.913  1.00  0.00    -0.076 NA
HETATM   13  N5  UNL     1      27.569   1.842  52.537  1.00  0.00    -0.365 N 
HETATM   14  H15 UNL     1      27.402  -1.415  54.914  1.00  0.00     0.178 HD
HETATM   15  H18 UNL     1      27.542   2.391  51.652  1.00  0.00     0.162 HD
ENDROOT
BRANCH   3  16
HETATM   16  C5  UNL     1      25.489   2.722  51.206  1.00  0.00     0.160 C 
BRANCH  16  17
HETATM   17  N1  UNL     1      24.794   3.578  52.226  1.00  0.00    -0.386 N 
HETATM   18  H7  UNL     1      24.997   3.698  53.264  1.00  0.00     0.160 HD
BRANCH  17  19
HETATM   19  C6  UNL     1      23.676   4.381  51.800  1.00  0.00     0.029 A 
HETATM   20  C7  UNL     1      22.333   4.026  51.931  1.00  0.00     0.029 A 
HETATM   21  C8  UNL     1      21.359   4.877  51.487  1.00  0.00     0.004 A 
HETATM   22  C9  UNL     1      21.628   6.087  50.905  1.00  0.00     0.019 A 
HETATM   23  C10 UNL     1      22.940   6.475  50.755  1.00  0.00     0.013 A 
HETATM   24 BR1  UNL     1      23.356   8.150  49.952  1.00  0.00    -0.051 Br
HETATM   25  C11 UNL     1      23.910   5.611  51.207  1.00  0.00     0.048 A 
ENDBRANCH  17  19
ENDBRANCH  16  17
ENDBRANCH   3  16
BRANCH   1  26
HETATM   26  O1  UNL     1      23.543  -0.723  54.107  1.00  0.00    -0.358 OA
HETATM   27  C1  UNL     1      22.189  -0.637  53.703  1.00  0.00     0.209 C 
ENDBRANCH   1  26
TORSDOF 4
ENDMDL
MODEL 4
REMARK VINA RESULT:      -7.5      2.229      3.909
REMARK  4 active torsions:
REMARK  status: ('A' for Active; 'I' for Inactive)
REMARK    1  A    between atoms: O1_2  and  C2_3 
REMARK    2  A    between atoms: C4_5  and  C5_6 
REMARK    3  A    between atoms: C5_6  and  N1_7 
REMARK    4  A    between atoms: N1_7  and  C6_8 
ROOT
HETATM    1  C2  UNL     1      26.832   0.109  52.916  1.00  0.00     0.070 C 
HETATM    2  C3  UNL     1      26.665   0.908  51.805  1.00  0.00     0.045 C 
HETATM    3  C4  UNL     1      25.417   1.777  51.890  1.00  0.00    -0.016 C 
HETATM    4  C12 UNL     1      24.713   1.610  53.057  1.00  0.00     0.017 C 
HETATM    5  C13 UNL     1      25.647   1.658  54.246  1.00  0.00     0.090 C 
HETATM    6  C14 UNL     1      26.160   0.172  54.194  1.00  0.00     0.162 C 
HETATM    7  N2  UNL     1      24.948  -0.582  54.469  1.00  0.00    -0.212 N 
HETATM    8  C15 UNL     1      23.638  -0.556  53.838  1.00  0.00     0.720 C 
HETATM    9  N3  UNL     1      23.116  -0.914  52.652  1.00  0.00    -0.074 NA
HETATM   10  C16 UNL     1      22.328   0.399  52.583  1.00  0.00     0.267 C 
HETATM   11  C17 UNL     1      21.479   0.113  53.694  1.00  0.00     0.158 C 
HETATM   12  N4  UNL     1      22.483   0.103  54.465  1.00  0.00    -0.076 NA
HETATM   13  N5  UNL     1      23.336   1.438  52.573  1.00  0.00    -0.365 N 
HETATM   14  H15 UNL     1      24.726  -1.295  55.198  1.00  0.00     0.178 HD
HETATM   15  H18 UNL     1      23.225   2.370  52.122  1.00  0.00     0.162 HD
ENDROOT
BRANCH   3  16
HETATM   16  C5  UNL     1      24.883   2.612  50.813  1.00  0.00     0.160 C 
BRANCH  16  17
HETATM   17  N1  UNL     1      26.146   2.899  50.052  1.00  0.00    -0.386 N 
HETATM   18  H7  UNL     1      26.936   2.242  49.773  1.00  0.00     0.160 HD
BRANCH  17  19
HETATM   19  C6  UNL     1      26.385   4.248  49.604  1.00  0.00     0.029 A 
HETATM   20  C7  UNL     1      27.433   4.648  48.773  1.00  0.00     0.029 A 
HETATM   21  C8  UNL     1      27.553   5.962  48.416  1.00  0.00     0.004 A 
HETATM   22  C9  UNL     1      26.686   6.936  48.835  1.00  0.00     0.019 A 
HETATM   23  C10 UNL     1      25.639   6.585  49.656  1.00  0.00     0.013 A 
HETATM   24 BR1  UNL     1      24.412   7.908  50.260  1.00  0.00    -0.051 Br
HETATM   25  C11 UNL     1      25.528   5.260  50.008  1.00  0.00     0.048 A 
ENDBRANCH  17  19
ENDBRANCH  16  17
ENDBRANCH   3  16
BRANCH   1  26
HETATM   26  O1  UNL     1      27.803  -0.862  52.675  1.00  0.00    -0.358 OA
HETATM   27  C1  UNL     1      28.977  -0.990  53.457  1.00  0.00     0.209 C 
ENDBRANCH   1  26
TORSDOF 4
ENDMDL
MODEL 5
REMARK VINA RESULT:      -7.4      3.359      4.791
REMARK  4 active torsions:
REMARK  status: ('A' for Active; 'I' for Inactive)
REMARK    1  A    between atoms: O1_2  and  C2_3 
REMARK    2  A    between atoms: C4_5  and  C5_6 
REMARK    3  A    between atoms: C5_6  and  N1_7 
REMARK    4  A    between atoms: N1_7  and  C6_8 
ROOT
HETATM    1  C2  UNL     1      20.131   2.319  51.982  1.00  0.00     0.070 C 
HETATM    2  C3  UNL     1      21.359   2.940  52.071  1.00  0.00     0.045 C 
HETATM    3  C4  UNL     1      22.508   1.949  52.205  1.00  0.00    -0.016 C 
HETATM    4  C12 UNL     1      22.103   0.637  52.196  1.00  0.00     0.017 C 
HETATM    5  C13 UNL     1      21.136   0.394  51.058  1.00  0.00     0.090 C 
HETATM    6  C14 UNL     1      19.829   0.925  51.752  1.00  0.00     0.162 C 
HETATM    7  N2  UNL     1      19.653  -0.019  52.842  1.00  0.00    -0.212 N 
HETATM    8  C15 UNL     1      20.557  -0.445  53.898  1.00  0.00     0.720 C 
HETATM    9  N3  UNL     1      21.112   0.105  54.992  1.00  0.00    -0.074 NA
HETATM   10  C16 UNL     1      22.471  -0.506  54.632  1.00  0.00     0.267 C 
HETATM   11  C17 UNL     1      22.067  -1.863  54.813  1.00  0.00     0.158 C 
HETATM   12  N4  UNL     1      21.237  -1.748  53.865  1.00  0.00    -0.076 NA
HETATM   13  N5  UNL     1      22.815   0.079  53.353  1.00  0.00    -0.365 N 
HETATM   14  H15 UNL     1      18.850  -0.632  53.106  1.00  0.00     0.178 HD
HETATM   15  H18 UNL     1      23.788   0.241  53.017  1.00  0.00     0.162 HD
ENDROOT
BRANCH   3  16
HETATM   16  C5  UNL     1      23.906   2.294  52.473  1.00  0.00     0.160 C 
BRANCH  16  17
HETATM   17  N1  UNL     1      24.485   2.134  51.096  1.00  0.00    -0.386 N 
HETATM   18  H7  UNL     1      24.512   1.277  50.465  1.00  0.00     0.160 HD
BRANCH  17  19
HETATM   19  C6  UNL     1      25.115   3.275  50.481  1.00  0.00     0.029 A 
HETATM   20  C7  UNL     1      26.251   3.228  49.671  1.00  0.00     0.029 A 
HETATM   21  C8  UNL     1      26.756   4.384  49.144  1.00  0.00     0.004 A 
HETATM   22  C9  UNL     1      26.201   5.616  49.365  1.00  0.00     0.019 A 
HETATM   23  C10 UNL     1      25.080   5.706  50.159  1.00  0.00     0.013 A 
HETATM   24 BR1  UNL     1      24.278   7.400  50.491  1.00  0.00    -0.051 Br
HETATM   25  C11 UNL     1      24.581   4.537  50.683  1.00  0.00     0.048 A 
ENDBRANCH  17  19
ENDBRANCH  16  17
ENDBRANCH   3  16
BRANCH   1  26
HETATM   26  O1  UNL     1      19.104   3.247  52.151  1.00  0.00    -0.358 OA
HETATM   27  C1  UNL     1      18.542   3.980  51.078  1.00  0.00     0.209 C 
ENDBRANCH   1  26
TORSDOF 4
ENDMDL
MODEL 6
REMARK VINA RESULT:      -7.3      3.231      6.845
REMARK  4 active torsions:
REMARK  status: ('A' for Active; 'I' for Inactive)
REMARK    1  A    between atoms: O1_2  and  C2_3 
REMARK    2  A    between atoms: C4_5  and  C5_6 
REMARK    3  A    between atoms: C5_6  and  N1_7 
REMARK    4  A    between atoms: N1_7  and  C6_8 
ROOT
HETATM    1  C2  UNL     1      22.711   3.657  49.460  1.00  0.00     0.070 C 
HETATM    2  C3  UNL     1      23.883   2.934  49.529  1.00  0.00     0.045 C 
HETATM    3  C4  UNL     1      24.965   3.647  50.329  1.00  0.00    -0.016 C 
HETATM    4  C12 UNL     1      24.562   4.857  50.838  1.00  0.00     0.017 C 
HETATM    5  C13 UNL     1      23.212   4.722  51.506  1.00  0.00     0.090 C 
HETATM    6  C14 UNL     1      22.310   4.818  50.221  1.00  0.00     0.162 C 
HETATM    7  N2  UNL     1      22.571   6.172  49.763  1.00  0.00    -0.212 N 
HETATM    8  C15 UNL     1      23.816   6.862  49.467  1.00  0.00     0.720 C 
HETATM    9  N3  UNL     1      24.779   6.786  48.532  1.00  0.00    -0.074 NA
HETATM   10  C16 UNL     1      25.861   6.903  49.612  1.00  0.00     0.267 C 
HETATM   11  C17 UNL     1      25.535   8.239  49.992  1.00  0.00     0.158 C 
HETATM   12  N4  UNL     1      24.395   7.855  50.384  1.00  0.00    -0.076 NA
HETATM   13  N5  UNL     1      25.670   5.744  50.458  1.00  0.00    -0.365 N 
HETATM   14  H15 UNL     1      21.930   6.972  49.566  1.00  0.00     0.178 HD
HETATM   15  H18 UNL     1      26.425   5.270  50.997  1.00  0.00     0.162 HD
ENDROOT
BRANCH   3  16
HETATM   16  C5  UNL     1      26.359   3.215  50.455  1.00  0.00     0.160 C 
BRANCH  16  17
HETATM   17  N1  UNL     1      26.401   2.883  51.919  1.00  0.00    -0.386 N 
HETATM   18  H7  UNL     1      26.346   3.528  52.764  1.00  0.00     0.160 HD
BRANCH  17  19
HETATM   19  C6  UNL     1      26.535   1.501  52.305  1.00  0.00     0.029 A 
HETATM   20  C7  UNL     1      25.499   0.566  52.326  1.00  0.00     0.029 A 
HETATM   21  C8  UNL     1      25.755  -0.721  52.712  1.00  0.00     0.004 A 
HETATM   22  C9  UNL     1      26.995  -1.160  53.089  1.00  0.00     0.019 A 
HETATM   23  C10 UNL     1      28.045  -0.270  53.082  1.00  0.00     0.013 A 
HETATM   24 BR1  UNL     1      29.786  -0.840  53.598  1.00  0.00    -0.051 Br
HETATM   25  C11 UNL     1      27.777   1.021  52.691  1.00  0.00     0.048 A 
ENDBRANCH  17  19
ENDBRANCH  16  17
ENDBRANCH   3  16
BRANCH   1  26
HETATM   26  O1  UNL     1      21.862   3.116  48.495  1.00  0.00    -0.358 OA
HETATM   27  C1  UNL     1      21.803   1.730  48.209  1.00  0.00     0.209 C 
ENDBRANCH   1  26
TORSDOF 4
ENDMDL
MODEL 7
REMARK VINA RESULT:      -7.3      2.567      4.472
REMARK  4 active torsions:
REMARK  status: ('A' for Active; 'I' for Inactive)
REMARK    1  A    between atoms: O1_2  and  C2_3 
REMARK    2  A    between atoms: C4_5  and  C5_6 
REMARK    3  A    between atoms: C5_6  and  N1_7 
REMARK    4  A    between atoms: N1_7  and  C6_8 
ROOT
HETATM    1  C2  UNL     1      25.898   1.385  51.938  1.00  0.00     0.070 C 
HETATM    2  C3  UNL     1      26.198   2.432  51.094  1.00  0.00     0.045 C 
HETATM    3  C4  UNL     1      25.135   3.522  51.111  1.00  0.00    -0.016 C 
HETATM    4  C12 UNL     1      24.097   3.261  51.971  1.00  0.00     0.017 C 
HETATM    5  C13 UNL     1      24.628   2.820  53.317  1.00  0.00     0.090 C 
HETATM    6  C14 UNL     1      24.893   1.308  52.974  1.00  0.00     0.162 C 
HETATM    7  N2  UNL     1      23.552   0.811  52.717  1.00  0.00    -0.212 N 
HETATM    8  C15 UNL     1      22.511   1.281  51.816  1.00  0.00     0.720 C 
HETATM    9  N3  UNL     1      22.317   1.333  50.486  1.00  0.00    -0.074 NA
HETATM   10  C16 UNL     1      21.803   2.773  50.600  1.00  0.00     0.267 C 
HETATM   11  C17 UNL     1      20.627   2.444  51.339  1.00  0.00     0.158 C 
HETATM   12  N4  UNL     1      21.340   2.028  52.298  1.00  0.00    -0.076 NA
HETATM   13  N5  UNL     1      22.919   3.526  51.134  1.00  0.00    -0.365 N 
HETATM   14  H15 UNL     1      23.013   0.022  53.135  1.00  0.00     0.178 HD
HETATM   15  H18 UNL     1      23.095   4.536  50.953  1.00  0.00     0.162 HD
ENDROOT
BRANCH   3  16
HETATM   16  C5  UNL     1      25.086   4.682  50.218  1.00  0.00     0.160 C 
BRANCH  16  17
HETATM   17  N1  UNL     1      26.132   4.286  49.215  1.00  0.00    -0.386 N 
HETATM   18  H7  UNL     1      26.359   3.327  48.811  1.00  0.00     0.160 HD
BRANCH  17  19
HETATM   19  C6  UNL     1      26.992   5.311  48.682  1.00  0.00     0.029 A 
HETATM   20  C7  UNL     1      26.582   6.592  48.307  1.00  0.00     0.029 A 
HETATM   21  C8  UNL     1      27.497   7.480  47.812  1.00  0.00     0.004 A 
HETATM   22  C9  UNL     1      28.824   7.182  47.658  1.00  0.00     0.019 A 
HETATM   23  C10 UNL     1      29.270   5.930  48.014  1.00  0.00     0.013 A 
HETATM   24 BR1  UNL     1      31.108   5.477  47.816  1.00  0.00    -0.051 Br
HETATM   25  C11 UNL     1      28.341   5.046  48.512  1.00  0.00     0.048 A 
ENDBRANCH  17  19
ENDBRANCH  16  17
ENDBRANCH   3  16
BRANCH   1  26
HETATM   26  O1  UNL     1      26.731   0.297  51.680  1.00  0.00    -0.358 OA
HETATM   27  C1  UNL     1      26.755  -0.866  52.486  1.00  0.00     0.209 C 
ENDBRANCH   1  26
TORSDOF 4
ENDMDL
MODEL 8
REMARK VINA RESULT:      -7.3      3.320      6.974
REMARK  4 active torsions:
REMARK  status: ('A' for Active; 'I' for Inactive)
REMARK    1  A    between atoms: O1_2  and  C2_3 
REMARK    2  A    between atoms: C4_5  and  C5_6 
REMARK    3  A    between atoms: C5_6  and  N1_7 
REMARK    4  A    between atoms: N1_7  and  C6_8 
ROOT
HETATM    1  C2  UNL     1      23.797   5.821  50.285  1.00  0.00     0.070 C 
HETATM    2  C3  UNL     1      23.867   5.313  51.564  1.00  0.00     0.045 C 
HETATM    3  C4  UNL     1      23.997   3.796  51.586  1.00  0.00    -0.016 C 
HETATM    4  C12 UNL     1      24.036   3.232  50.334  1.00  0.00     0.017 C 
HETATM    5  C13 UNL     1      25.013   3.977  49.453  1.00  0.00     0.090 C 
HETATM    6  C14 UNL     1      24.076   5.167  49.027  1.00  0.00     0.162 C 
HETATM    7  N2  UNL     1      23.045   4.487  48.262  1.00  0.00    -0.212 N 
HETATM    8  C15 UNL     1      22.187   3.362  48.596  1.00  0.00     0.720 C 
HETATM    9  N3  UNL     1      21.161   3.128  49.434  1.00  0.00    -0.074 NA
HETATM   10  C16 UNL     1      21.784   1.791  49.852  1.00  0.00     0.267 C 
HETATM   11  C17 UNL     1      21.639   1.164  48.578  1.00  0.00     0.158 C 
HETATM   12  N4  UNL     1      22.427   2.012  48.065  1.00  0.00    -0.076 NA
HETATM   13  N5  UNL     1      23.056   2.143  50.448  1.00  0.00    -0.365 N 
HETATM   14  H15 UNL     1      22.698   4.628  47.288  1.00  0.00     0.178 HD
HETATM   15  H18 UNL     1      23.536   1.594  51.192  1.00  0.00     0.162 HD
ENDROOT
BRANCH   3  16
HETATM   16  C5  UNL     1      23.939   2.950  52.780  1.00  0.00     0.160 C 
BRANCH  16  17
HETATM   17  N1  UNL     1      25.406   2.775  53.051  1.00  0.00    -0.386 N 
HETATM   18  H7  UNL     1      26.150   3.507  53.262  1.00  0.00     0.160 HD
BRANCH  17  19
HETATM   19  C6  UNL     1      25.951   1.442  53.036  1.00  0.00     0.029 A 
HETATM   20  C7  UNL     1      25.220   0.275  52.808  1.00  0.00     0.029 A 
HETATM   21  C8  UNL     1      25.854  -0.936  52.818  1.00  0.00     0.004 A 
HETATM   22  C9  UNL     1      27.197  -1.079  53.044  1.00  0.00     0.019 A 
HETATM   23  C10 UNL     1      27.955   0.046  53.273  1.00  0.00     0.013 A 
HETATM   24 BR1  UNL     1      29.825  -0.109  53.590  1.00  0.00    -0.051 Br
HETATM   25  C11 UNL     1      27.307   1.259  53.260  1.00  0.00     0.048 A 
ENDBRANCH  17  19
ENDBRANCH  16  17
ENDBRANCH   3  16
BRANCH   1  26
HETATM   26  O1  UNL     1      23.393   7.155  50.314  1.00  0.00    -0.358 OA
HETATM   27  C1  UNL     1      22.043   7.550  50.479  1.00  0.00     0.209 C 
ENDBRANCH   1  26
TORSDOF 4
ENDMDL
MODEL 9
REMARK VINA RESULT:      -7.3      3.833      7.489
REMARK  4 active torsions:
REMARK  status: ('A' for Active; 'I' for Inactive)
REMARK    1  A    between atoms: O1_2  and  C2_3 
REMARK    2  A    between atoms: C4_5  and  C5_6 
REMARK    3  A    between atoms: C5_6  and  N1_7 
REMARK    4  A    between atoms: N1_7  and  C6_8 
ROOT
HETATM    1  C2  UNL     1      26.130   3.511  49.787  1.00  0.00     0.070 C 
HETATM    2  C3  UNL     1      26.216   2.869  51.004  1.00  0.00     0.045 C 
HETATM    3  C4  UNL     1      24.855   2.650  51.649  1.00  0.00    -0.016 C 
HETATM    4  C12 UNL     1      23.809   3.118  50.892  1.00  0.00     0.017 C 
HETATM    5  C13 UNL     1      23.953   2.660  49.458  1.00  0.00     0.090 C 
HETATM    6  C14 UNL     1      24.966   3.759  48.967  1.00  0.00     0.162 C 
HETATM    7  N2  UNL     1      24.181   4.976  49.086  1.00  0.00    -0.212 N 
HETATM    8  C15 UNL     1      23.446   5.538  50.207  1.00  0.00     0.720 C 
HETATM    9  N3  UNL     1      23.745   6.089  51.396  1.00  0.00    -0.074 NA
HETATM   10  C16 UNL     1      22.643   5.268  52.075  1.00  0.00     0.267 C 
HETATM   11  C17 UNL     1      21.558   5.907  51.402  1.00  0.00     0.158 C 
HETATM   12  N4  UNL     1      21.980   5.468  50.293  1.00  0.00    -0.076 NA
HETATM   13  N5  UNL     1      23.029   3.887  51.871  1.00  0.00    -0.365 N 
HETATM   14  H15 UNL     1      23.939   5.714  48.389  1.00  0.00     0.178 HD
HETATM   15  H18 UNL     1      22.790   3.103  52.513  1.00  0.00     0.162 HD
ENDROOT
BRANCH   3  16
HETATM   16  C5  UNL     1      24.622   2.140  53.002  1.00  0.00     0.160 C 
BRANCH  16  17
HETATM   17  N1  UNL     1      24.387   0.688  52.699  1.00  0.00    -0.386 N 
HETATM   18  H7  UNL     1      24.994  -0.002  52.160  1.00  0.00     0.160 HD
BRANCH  17  19
HETATM   19  C6  UNL     1      23.175   0.075  53.181  1.00  0.00     0.029 A 
HETATM   20  C7  UNL     1      23.086  -0.775  54.285  1.00  0.00     0.029 A 
HETATM   21  C8  UNL     1      21.873  -1.295  54.644  1.00  0.00     0.004 A 
HETATM   22  C9  UNL     1      20.712  -1.027  53.971  1.00  0.00     0.019 A 
HETATM   23  C10 UNL     1      20.756  -0.194  52.876  1.00  0.00     0.013 A 
HETATM   24 BR1  UNL     1      19.163   0.205  51.913  1.00  0.00    -0.051 Br
HETATM   25  C11 UNL     1      21.980   0.324  52.524  1.00  0.00     0.048 A 
ENDBRANCH  17  19
ENDBRANCH  16  17
ENDBRANCH   3  16
BRANCH   1  26
HETATM   26  O1  UNL     1      27.390   3.943  49.375  1.00  0.00    -0.358 OA
HETATM   27  C1  UNL     1      27.591   5.115  48.606  1.00  0.00     0.209 C 
ENDBRANCH   1  26
TORSDOF 4
ENDMDL
