MODEL 1
REMARK VINA RESULT:      -9.3      0.000      0.000
REMARK  2 active torsions:
REMARK  status: ('A' for Active; 'I' for Inactive)
REMARK    1  A    between atoms: C1_2  and  N1_3 
REMARK    2  A    between atoms: N1_3  and  C2_4 
ROOT
HETATM    1  C2  UNL     1      26.730   1.023  53.071  1.00  0.00     0.107 C 
HETATM    2  C3  UNL     1      25.285   0.777  53.485  1.00  0.00    -0.001 C 
HETATM    3  C4  UNL     1      24.601  -0.397  53.524  1.00  0.00     0.009 C 
HETATM    4  C5  UNL     1      23.184  -0.443  53.947  1.00  0.00    -0.033 A 
HETATM    5  C6  UNL     1      22.287  -0.695  54.938  1.00  0.00     0.011 A 
HETATM    6  C7  UNL     1      20.968  -0.476  54.618  1.00  0.00    -0.002 A 
HETATM    7  C8  UNL     1      20.549  -0.034  53.391  1.00  0.00    -0.012 A 
HETATM    8  C9  UNL     1      21.363   0.252  52.320  1.00  0.00     0.012 A 
HETATM    9  C10 UNL     1      20.630   0.693  51.250  1.00  0.00     0.019 A 
HETATM   10  C11 UNL     1      20.957   1.131  49.967  1.00  0.00    -0.018 A 
HETATM   11  C12 UNL     1      21.906   0.722  50.880  1.00  0.00     0.049 A 
HETATM   12  C13 UNL     1      23.042   0.393  51.526  1.00  0.00     0.009 A 
HETATM   13  C14 UNL     1      22.639  -0.005  52.761  1.00  0.00    -0.056 A 
HETATM   14  C15 UNL     1      21.870   1.545  48.812  1.00  0.00     0.038 C 
HETATM   15  C16 UNL     1      22.579   2.787  49.260  1.00  0.00    -0.029 C 
HETATM   16  C17 UNL     1      23.669   3.182  49.898  1.00  0.00    -0.025 C 
HETATM   17  C18 UNL     1      24.932   3.100  50.618  1.00  0.00     0.020 C 
HETATM   18  C19 UNL     1      25.931   2.378  51.155  1.00  0.00     0.001 C 
HETATM   19  C20 UNL     1      26.732   1.180  51.546  1.00  0.00     0.035 C 
ENDROOT
BRANCH   1  20
HETATM   20  N1  UNL     1      27.257   2.160  53.747  1.00  0.00    -0.360 N 
HETATM   21  H2  UNL     1      26.595   2.757  54.283  1.00  0.00     0.162 HD
BRANCH  20  22
HETATM   22  C1  UNL     1      28.636   2.537  53.741  1.00  0.00     0.349 C 
HETATM   23  O1  UNL     1      29.249   2.267  54.828  1.00  0.00    -0.284 OA
ENDBRANCH  20  22
ENDBRANCH   1  20
TORSDOF 2
ENDMDL
MODEL 2
REMARK VINA RESULT:      -8.9      2.414      4.482
REMARK  2 active torsions:
REMARK  status: ('A' for Active; 'I' for Inactive)
REMARK    1  A    between atoms: C1_2  and  N1_3 
REMARK    2  A    between atoms: N1_3  and  C2_4 
ROOT
HETATM    1  C2  UNL     1      25.824   3.753  49.884  1.00  0.00     0.107 C 
HETATM    2  C3  UNL     1      26.166   2.950  51.132  1.00  0.00    -0.001 C 
HETATM    3  C4  UNL     1      26.730   1.717  51.221  1.00  0.00     0.009 C 
HETATM    4  C5  UNL     1      26.981   1.082  52.534  1.00  0.00    -0.033 A 
HETATM    5  C6  UNL     1      27.872   0.793  53.521  1.00  0.00     0.011 A 
HETATM    6  C7  UNL     1      27.361   0.124  54.608  1.00  0.00    -0.002 A 
HETATM    7  C8  UNL     1      26.047  -0.242  54.722  1.00  0.00    -0.012 A 
HETATM    8  C9  UNL     1      25.062  -0.002  53.793  1.00  0.00     0.012 A 
HETATM    9  C10 UNL     1      23.852  -0.477  54.225  1.00  0.00     0.019 A 
HETATM   10  C11 UNL     1      22.562  -0.468  53.695  1.00  0.00    -0.018 A 
HETATM   11  C12 UNL     1      23.642   0.088  53.041  1.00  0.00     0.049 A 
HETATM   12  C13 UNL     1      24.470   0.701  52.173  1.00  0.00     0.009 A 
HETATM   13  C14 UNL     1      25.691   0.661  52.768  1.00  0.00    -0.056 A 
HETATM   14  C15 UNL     1      21.450  -0.110  52.708  1.00  0.00     0.038 C 
HETATM   15  C16 UNL     1      21.270   1.375  52.795  1.00  0.00    -0.029 C 
HETATM   16  C17 UNL     1      21.720   2.503  52.269  1.00  0.00    -0.025 C 
HETATM   17  C18 UNL     1      22.498   3.398  51.425  1.00  0.00     0.020 C 
HETATM   18  C19 UNL     1      23.419   3.601  50.467  1.00  0.00     0.001 C 
HETATM   19  C20 UNL     1      24.439   3.284  49.423  1.00  0.00     0.035 C 
ENDROOT
BRANCH   1  20
HETATM   20  N1  UNL     1      25.876   5.149  50.157  1.00  0.00    -0.360 N 
HETATM   21  H2  UNL     1      25.655   5.463  51.124  1.00  0.00     0.162 HD
BRANCH  20  22
HETATM   22  C1  UNL     1      26.211   6.149  49.194  1.00  0.00     0.349 C 
HETATM   23  O1  UNL     1      27.165   5.815  48.413  1.00  0.00    -0.284 OA
ENDBRANCH  20  22
ENDBRANCH   1  20
TORSDOF 2
ENDMDL
MODEL 3
REMARK VINA RESULT:      -8.8      1.753      4.422
REMARK  2 active torsions:
REMARK  status: ('A' for Active; 'I' for Inactive)
REMARK    1  A    between atoms: C1_2  and  N1_3 
REMARK    2  A    between atoms: N1_3  and  C2_4 
ROOT
HETATM    1  C2  UNL     1      27.494   0.184  53.908  1.00  0.00     0.107 C 
HETATM    2  C3  UNL     1      26.995   0.913  52.667  1.00  0.00    -0.001 C 
HETATM    3  C4  UNL     1      26.897   2.251  52.450  1.00  0.00     0.009 C 
HETATM    4  C5  UNL     1      26.373   2.783  51.173  1.00  0.00    -0.033 A 
HETATM    5  C6  UNL     1      26.644   3.312  49.950  1.00  0.00     0.011 A 
HETATM    6  C7  UNL     1      25.550   3.577  49.159  1.00  0.00    -0.002 A 
HETATM    7  C8  UNL     1      24.259   3.337  49.548  1.00  0.00    -0.012 A 
HETATM    8  C9  UNL     1      23.869   2.806  50.755  1.00  0.00     0.012 A 
HETATM    9  C10 UNL     1      22.507   2.674  50.816  1.00  0.00     0.019 A 
HETATM   10  C11 UNL     1      21.625   2.177  51.775  1.00  0.00    -0.018 A 
HETATM   11  C12 UNL     1      22.991   2.206  51.962  1.00  0.00     0.049 A 
HETATM   12  C13 UNL     1      24.247   2.102  52.437  1.00  0.00     0.009 A 
HETATM   13  C14 UNL     1      25.037   2.589  51.445  1.00  0.00    -0.056 A 
HETATM   14  C15 UNL     1      21.200   1.493  53.075  1.00  0.00     0.038 C 
HETATM   15  C16 UNL     1      21.665   0.071  52.975  1.00  0.00    -0.029 C 
HETATM   16  C17 UNL     1      22.711  -0.694  53.240  1.00  0.00    -0.025 C 
HETATM   17  C18 UNL     1      24.040  -1.076  53.694  1.00  0.00     0.020 C 
HETATM   18  C19 UNL     1      25.227  -0.763  54.242  1.00  0.00     0.001 C 
HETATM   19  C20 UNL     1      26.300   0.069  54.864  1.00  0.00     0.035 C 
ENDROOT
BRANCH   1  20
HETATM   20  N1  UNL     1      28.048  -1.081  53.557  1.00  0.00    -0.360 N 
HETATM   21  H2  UNL     1      27.390  -1.859  53.354  1.00  0.00     0.162 HD
BRANCH  20  22
HETATM   22  C1  UNL     1      29.448  -1.351  53.462  1.00  0.00     0.349 C 
HETATM   23  O1  UNL     1      30.178  -0.304  53.476  1.00  0.00    -0.284 OA
ENDBRANCH  20  22
ENDBRANCH   1  20
TORSDOF 2
ENDMDL
MODEL 4
REMARK VINA RESULT:      -8.6      2.367      5.009
REMARK  2 active torsions:
REMARK  status: ('A' for Active; 'I' for Inactive)
REMARK    1  A    between atoms: C1_2  and  N1_3 
REMARK    2  A    between atoms: N1_3  and  C2_4 
ROOT
HETATM    1  C2  UNL     1      23.759   2.813  50.305  1.00  0.00     0.107 C 
HETATM    2  C3  UNL     1      24.567   2.315  51.496  1.00  0.00    -0.001 C 
HETATM    3  C4  UNL     1      25.469   1.301  51.547  1.00  0.00     0.009 C 
HETATM    4  C5  UNL     1      26.155   0.948  52.809  1.00  0.00    -0.033 A 
HETATM    5  C6  UNL     1      27.275   1.048  53.577  1.00  0.00     0.011 A 
HETATM    6  C7  UNL     1      27.213   0.430  54.803  1.00  0.00    -0.002 A 
HETATM    7  C8  UNL     1      26.113  -0.250  55.254  1.00  0.00    -0.012 A 
HETATM    8  C9  UNL     1      24.932  -0.413  54.568  1.00  0.00     0.012 A 
HETATM    9  C10 UNL     1      24.027  -1.124  55.310  1.00  0.00     0.019 A 
HETATM   10  C11 UNL     1      22.710  -1.531  55.101  1.00  0.00    -0.018 A 
HETATM   11  C12 UNL     1      23.425  -0.809  54.169  1.00  0.00     0.049 A 
HETATM   12  C13 UNL     1      23.844  -0.129  53.083  1.00  0.00     0.009 A 
HETATM   13  C14 UNL     1      25.119   0.240  53.374  1.00  0.00    -0.056 A 
HETATM   14  C15 UNL     1      21.364  -1.624  54.380  1.00  0.00     0.038 C 
HETATM   15  C16 UNL     1      20.784  -0.242  54.389  1.00  0.00    -0.029 C 
HETATM   16  C17 UNL     1      20.770   0.878  53.684  1.00  0.00    -0.025 C 
HETATM   17  C18 UNL     1      21.067   1.817  52.612  1.00  0.00     0.020 C 
HETATM   18  C19 UNL     1      21.673   2.117  51.450  1.00  0.00     0.001 C 
HETATM   19  C20 UNL     1      22.505   1.935  50.223  1.00  0.00     0.035 C 
ENDROOT
BRANCH   1  20
HETATM   20  N1  UNL     1      23.459   4.198  50.447  1.00  0.00    -0.360 N 
HETATM   21  H2  UNL     1      23.002   4.680  49.646  1.00  0.00     0.162 HD
BRANCH  20  22
HETATM   22  C1  UNL     1      23.742   4.971  51.615  1.00  0.00     0.349 C 
HETATM   23  O1  UNL     1      22.699   5.373  52.232  1.00  0.00    -0.284 OA
ENDBRANCH  20  22
ENDBRANCH   1  20
TORSDOF 2
ENDMDL
MODEL 5
REMARK VINA RESULT:      -8.3      2.396      3.771
REMARK  2 active torsions:
REMARK  status: ('A' for Active; 'I' for Inactive)
REMARK    1  A    between atoms: C1_2  and  N1_3 
REMARK    2  A    between atoms: N1_3  and  C2_4 
ROOT
HETATM    1  C2  UNL     1      24.750   3.208  50.734  1.00  0.00     0.107 C 
HETATM    2  C3  UNL     1      24.674   2.268  51.930  1.00  0.00    -0.001 C 
HETATM    3  C4  UNL     1      24.995   0.949  51.994  1.00  0.00     0.009 C 
HETATM    4  C5  UNL     1      24.845   0.185  53.253  1.00  0.00    -0.033 A 
HETATM    5  C6  UNL     1      25.439  -0.334  54.361  1.00  0.00     0.011 A 
HETATM    6  C7  UNL     1      24.600  -0.975  55.242  1.00  0.00    -0.002 A 
HETATM    7  C8  UNL     1      23.250  -1.102  55.046  1.00  0.00    -0.012 A 
HETATM    8  C9  UNL     1      22.546  -0.618  53.969  1.00  0.00     0.012 A 
HETATM    9  C10 UNL     1      21.210  -0.894  54.092  1.00  0.00     0.019 A 
HETATM   10  C11 UNL     1      20.087  -0.609  53.315  1.00  0.00    -0.018 A 
HETATM   11  C12 UNL     1      21.360  -0.214  52.960  1.00  0.00     0.049 A 
HETATM   12  C13 UNL     1      22.447   0.298  52.350  1.00  0.00     0.009 A 
HETATM   13  C14 UNL     1      23.484  -0.008  53.172  1.00  0.00    -0.056 A 
HETATM   14  C15 UNL     1      19.292   0.017  52.169  1.00  0.00     0.038 C 
HETATM   15  C16 UNL     1      19.343   1.501  52.381  1.00  0.00    -0.029 C 
HETATM   16  C17 UNL     1      20.075   2.562  52.084  1.00  0.00    -0.025 C 
HETATM   17  C18 UNL     1      21.155   3.358  51.520  1.00  0.00     0.020 C 
HETATM   18  C19 UNL     1      22.284   3.459  50.797  1.00  0.00     0.001 C 
HETATM   19  C20 UNL     1      23.442   3.036  49.953  1.00  0.00     0.035 C 
ENDROOT
BRANCH   1  20
HETATM   20  N1  UNL     1      24.968   4.548  51.164  1.00  0.00    -0.360 N 
HETATM   21  H2  UNL     1      24.962   4.737  52.187  1.00  0.00     0.162 HD
BRANCH  20  22
HETATM   22  C1  UNL     1      25.196   5.652  50.286  1.00  0.00     0.349 C 
HETATM   23  O1  UNL     1      25.027   6.792  50.835  1.00  0.00    -0.284 OA
ENDBRANCH  20  22
ENDBRANCH   1  20
TORSDOF 2
ENDMDL
MODEL 6
REMARK VINA RESULT:      -8.3      3.295      5.540
REMARK  2 active torsions:
REMARK  status: ('A' for Active; 'I' for Inactive)
REMARK    1  A    between atoms: C1_2  and  N1_3 
REMARK    2  A    between atoms: N1_3  and  C2_4 
ROOT
HETATM    1  C2  UNL     1      20.533   1.060  52.395  1.00  0.00     0.107 C 
HETATM    2  C3  UNL     1      21.970   0.558  52.385  1.00  0.00    -0.001 C 
HETATM    3  C4  UNL     1      22.917   0.672  53.354  1.00  0.00     0.009 C 
HETATM    4  C5  UNL     1      24.278   0.127  53.162  1.00  0.00    -0.033 A 
HETATM    5  C6  UNL     1      25.157  -0.884  53.401  1.00  0.00     0.011 A 
HETATM    6  C7  UNL     1      26.398  -0.745  52.826  1.00  0.00    -0.002 A 
HETATM    7  C8  UNL     1      26.759   0.330  52.057  1.00  0.00    -0.012 A 
HETATM    8  C9  UNL     1      25.957   1.404  51.750  1.00  0.00     0.012 A 
HETATM    9  C10 UNL     1      26.615   2.293  50.942  1.00  0.00     0.019 A 
HETATM   10  C11 UNL     1      26.259   3.497  50.335  1.00  0.00    -0.018 A 
HETATM   11  C12 UNL     1      25.392   2.776  51.129  1.00  0.00     0.049 A 
HETATM   12  C13 UNL     1      24.338   2.321  51.835  1.00  0.00     0.009 A 
HETATM   13  C14 UNL     1      24.761   1.148  52.376  1.00  0.00    -0.056 A 
HETATM   14  C15 UNL     1      25.334   4.639  49.911  1.00  0.00     0.038 C 
HETATM   15  C16 UNL     1      24.322   4.038  48.983  1.00  0.00    -0.029 C 
HETATM   16  C17 UNL     1      23.137   3.450  48.988  1.00  0.00    -0.025 C 
HETATM   17  C18 UNL     1      21.896   2.888  49.503  1.00  0.00     0.020 C 
HETATM   18  C19 UNL     1      21.076   2.598  50.528  1.00  0.00     0.001 C 
HETATM   19  C20 UNL     1      20.572   2.522  51.932  1.00  0.00     0.035 C 
ENDROOT
BRANCH   1  20
HETATM   20  N1  UNL     1      19.710   0.239  51.573  1.00  0.00    -0.360 N 
HETATM   21  H2  UNL     1      20.032   0.045  50.603  1.00  0.00     0.162 HD
BRANCH  20  22
HETATM   22  C1  UNL     1      18.471  -0.339  51.990  1.00  0.00     0.349 C 
HETATM   23  O1  UNL     1      18.540  -0.959  53.104  1.00  0.00    -0.284 OA
ENDBRANCH  20  22
ENDBRANCH   1  20
TORSDOF 2
ENDMDL
MODEL 7
REMARK VINA RESULT:      -8.2      2.915      5.054
REMARK  2 active torsions:
REMARK  status: ('A' for Active; 'I' for Inactive)
REMARK    1  A    between atoms: C1_2  and  N1_3 
REMARK    2  A    between atoms: N1_3  and  C2_4 
ROOT
HETATM    1  C2  UNL     1      21.806   3.843  50.159  1.00  0.00     0.107 C 
HETATM    2  C3  UNL     1      21.856   2.532  50.933  1.00  0.00    -0.001 C 
HETATM    3  C4  UNL     1      21.467   2.285  52.211  1.00  0.00     0.009 C 
HETATM    4  C5  UNL     1      21.603   0.937  52.806  1.00  0.00    -0.033 A 
HETATM    5  C6  UNL     1      21.005  -0.239  53.138  1.00  0.00     0.011 A 
HETATM    6  C7  UNL     1      21.827  -1.188  53.700  1.00  0.00    -0.002 A 
HETATM    7  C8  UNL     1      23.164  -0.993  53.925  1.00  0.00    -0.012 A 
HETATM    8  C9  UNL     1      23.870   0.149  53.630  1.00  0.00     0.012 A 
HETATM    9  C10 UNL     1      25.192   0.007  53.960  1.00  0.00     0.019 A 
HETATM   10  C11 UNL     1      26.313   0.829  53.844  1.00  0.00    -0.018 A 
HETATM   11  C12 UNL     1      25.056   1.219  53.432  1.00  0.00     0.049 A 
HETATM   12  C13 UNL     1      23.985   1.878  52.947  1.00  0.00     0.009 A 
HETATM   13  C14 UNL     1      22.949   1.008  53.083  1.00  0.00    -0.056 A 
HETATM   14  C15 UNL     1      27.116   2.060  53.422  1.00  0.00     0.038 C 
HETATM   15  C16 UNL     1      27.148   2.050  51.924  1.00  0.00    -0.029 C 
HETATM   16  C17 UNL     1      26.467   2.479  50.873  1.00  0.00    -0.025 C 
HETATM   17  C18 UNL     1      25.419   3.132  50.102  1.00  0.00     0.020 C 
HETATM   18  C19 UNL     1      24.282   3.847  50.038  1.00  0.00     0.001 C 
HETATM   19  C20 UNL     1      23.087   4.611  50.506  1.00  0.00     0.035 C 
ENDROOT
BRANCH   1  20
HETATM   20  N1  UNL     1      21.667   3.595  48.763  1.00  0.00    -0.360 N 
HETATM   21  H2  UNL     1      21.627   4.417  48.126  1.00  0.00     0.162 HD
BRANCH  20  22
HETATM   22  C1  UNL     1      21.581   2.295  48.178  1.00  0.00     0.349 C 
HETATM   23  O1  UNL     1      22.599   1.975  47.477  1.00  0.00    -0.284 OA
ENDBRANCH  20  22
ENDBRANCH   1  20
TORSDOF 2
ENDMDL
MODEL 8
REMARK VINA RESULT:      -8.1      2.827      4.845
REMARK  2 active torsions:
REMARK  status: ('A' for Active; 'I' for Inactive)
REMARK    1  A    between atoms: C1_2  and  N1_3 
REMARK    2  A    between atoms: N1_3  and  C2_4 
ROOT
HETATM    1  C2  UNL     1      22.894   4.365  51.841  1.00  0.00     0.107 C 
HETATM    2  C3  UNL     1      21.786   3.330  51.697  1.00  0.00    -0.001 C 
HETATM    3  C4  UNL     1      20.592   3.269  52.341  1.00  0.00     0.009 C 
HETATM    4  C5  UNL     1      19.635   2.171  52.079  1.00  0.00    -0.033 A 
HETATM    5  C6  UNL     1      18.514   1.753  51.432  1.00  0.00     0.011 A 
HETATM    6  C7  UNL     1      18.162   0.440  51.637  1.00  0.00    -0.002 A 
HETATM    7  C8  UNL     1      18.872  -0.418  52.435  1.00  0.00    -0.012 A 
HETATM    8  C9  UNL     1      20.014  -0.106  53.133  1.00  0.00     0.012 A 
HETATM    9  C10 UNL     1      20.487  -1.196  53.815  1.00  0.00     0.019 A 
HETATM   10  C11 UNL     1      21.596  -1.424  54.628  1.00  0.00    -0.018 A 
HETATM   11  C12 UNL     1      21.334  -0.200  54.050  1.00  0.00     0.049 A 
HETATM   12  C13 UNL     1      21.354   1.084  53.642  1.00  0.00     0.009 A 
HETATM   13  C14 UNL     1      20.258   1.216  52.850  1.00  0.00    -0.056 A 
HETATM   14  C15 UNL     1      22.921  -1.104  55.321  1.00  0.00     0.038 C 
HETATM   15  C16 UNL     1      23.936  -0.932  54.232  1.00  0.00    -0.029 C 
HETATM   16  C17 UNL     1      24.449  -0.009  53.434  1.00  0.00    -0.025 C 
HETATM   17  C18 UNL     1      24.672   1.293  52.822  1.00  0.00     0.020 C 
HETATM   18  C19 UNL     1      24.399   2.606  52.727  1.00  0.00     0.001 C 
HETATM   19  C20 UNL     1      23.761   3.923  53.026  1.00  0.00     0.035 C 
ENDROOT
BRANCH   1  20
HETATM   20  N1  UNL     1      23.630   4.483  50.627  1.00  0.00    -0.360 N 
HETATM   21  H2  UNL     1      24.579   4.907  50.674  1.00  0.00     0.162 HD
BRANCH  20  22
HETATM   22  C1  UNL     1      23.155   4.057  49.349  1.00  0.00     0.349 C 
HETATM   23  O1  UNL     1      23.798   3.067  48.863  1.00  0.00    -0.284 OA
ENDBRANCH  20  22
ENDBRANCH   1  20
TORSDOF 2
ENDMDL
MODEL 9
REMARK VINA RESULT:      -8.1     19.145     22.153
REMARK  2 active torsions:
REMARK  status: ('A' for Active; 'I' for Inactive)
REMARK    1  A    between atoms: C1_2  and  N1_3 
REMARK    2  A    between atoms: N1_3  and  C2_4 
ROOT
HETATM    1  C2  UNL     1      41.988   6.920  54.788  1.00  0.00     0.107 C 
HETATM    2  C3  UNL     1      43.115   5.912  54.972  1.00  0.00    -0.001 C 
HETATM    3  C4  UNL     1      43.054   4.652  55.477  1.00  0.00     0.009 C 
HETATM    4  C5  UNL     1      44.267   3.813  55.592  1.00  0.00    -0.033 A 
HETATM    5  C6  UNL     1      45.030   2.815  55.070  1.00  0.00     0.011 A 
HETATM    6  C7  UNL     1      46.188   2.530  55.753  1.00  0.00    -0.002 A 
HETATM    7  C8  UNL     1      46.578   3.187  56.889  1.00  0.00    -0.012 A 
HETATM    8  C9  UNL     1      45.891   4.208  57.503  1.00  0.00     0.012 A 
HETATM    9  C10 UNL     1      46.566   4.661  58.605  1.00  0.00     0.019 A 
HETATM   10  C11 UNL     1      46.330   5.671  59.538  1.00  0.00    -0.018 A 
HETATM   11  C12 UNL     1      45.468   5.402  58.495  1.00  0.00     0.049 A 
HETATM   12  C13 UNL     1      44.453   5.387  57.609  1.00  0.00     0.009 A 
HETATM   13  C14 UNL     1      44.767   4.395  56.735  1.00  0.00    -0.056 A 
HETATM   14  C15 UNL     1      45.616   6.872  60.160  1.00  0.00     0.038 C 
HETATM   15  C16 UNL     1      45.771   8.004  59.190  1.00  0.00    -0.029 C 
HETATM   16  C17 UNL     1      45.183   8.551  58.139  1.00  0.00    -0.025 C 
HETATM   17  C18 UNL     1      44.208   8.761  57.077  1.00  0.00     0.020 C 
HETATM   18  C19 UNL     1      43.077   8.415  56.438  1.00  0.00     0.001 C 
HETATM   19  C20 UNL     1      41.830   7.656  56.123  1.00  0.00     0.035 C 
ENDROOT
BRANCH   1  20
HETATM   20  N1  UNL     1      42.272   7.795  53.701  1.00  0.00    -0.360 N 
HETATM   21  H2  UNL     1      43.177   8.308  53.715  1.00  0.00     0.162 HD
BRANCH  20  22
HETATM   22  C1  UNL     1      41.400   8.016  52.591  1.00  0.00     0.349 C 
HETATM   23  O1  UNL     1      40.160   7.988  52.896  1.00  0.00    -0.284 OA
ENDBRANCH  20  22
ENDBRANCH   1  20
TORSDOF 2
ENDMDL
