MODEL 1
REMARK VINA RESULT:      -9.6      0.000      0.000
REMARK  3 active torsions:
REMARK  status: ('A' for Active; 'I' for Inactive)
REMARK    1  A    between atoms: C2_2  and  C3_3 
REMARK    2  A    between atoms: C8_10  and  N3_11 
REMARK    3  A    between atoms: N3_11  and  C9_12 
ROOT
HETATM    1  C3  UNL     1      21.875  -0.034  53.697  1.00  0.00    -0.055 C 
HETATM    2  C4  UNL     1      22.994   0.465  53.198  1.00  0.00     0.022 C 
HETATM    3  C5  UNL     1      23.321   1.290  52.045  1.00  0.00     0.039 A 
HETATM    4  C6  UNL     1      22.579   1.658  50.945  1.00  0.00     0.074 A 
HETATM    5  N1  UNL     1      23.148   2.457  50.026  1.00  0.00    -0.241 NA
HETATM    6  C7  UNL     1      24.418   2.872  50.205  1.00  0.00     0.236 A 
HETATM    7  N2  UNL     1      25.079   2.484  51.282  1.00  0.00    -0.223 NA
HETATM    8  C8  UNL     1      24.622   1.692  52.266  1.00  0.00     0.143 A 
HETATM    9  C18 UNL     1      21.220   1.386  50.463  1.00  0.00     0.057 C 
HETATM   10  C19 UNL     1      20.209   0.635  50.923  1.00  0.00     0.137 C 
HETATM   11  O1  UNL     1      20.104  -0.163  52.049  1.00  0.00    -0.359 OA
HETATM   12  C20 UNL     1      20.418  -0.054  53.417  1.00  0.00     0.208 C 
ENDROOT
BRANCH   8  13
HETATM   13  N3  UNL     1      25.412   1.297  53.408  1.00  0.00    -0.324 N 
HETATM   14  H8  UNL     1      24.802   0.985  54.211  1.00  0.00     0.169 HD
BRANCH  13  15
HETATM   15  C9  UNL     1      26.822   1.260  53.618  1.00  0.00     0.140 A 
HETATM   16  N4  UNL     1      27.706   2.197  53.996  1.00  0.00    -0.242 NA
HETATM   17  C10 UNL     1      29.004   1.978  54.139  1.00  0.00     0.120 A 
HETATM   18  C11 UNL     1      29.602   0.759  53.914  1.00  0.00     0.031 A 
HETATM   19  C12 UNL     1      28.748  -0.249  53.520  1.00  0.00    -0.021 A 
HETATM   20  C13 UNL     1      29.316  -1.479  53.283  1.00  0.00     0.012 A 
HETATM   21  C17 UNL     1      27.404   0.019  53.384  1.00  0.00     0.020 A 
HETATM   22  C14 UNL     1      28.527  -2.532  52.883  1.00  0.00     0.001 A 
HETATM   23  C15 UNL     1      27.176  -2.327  52.728  1.00  0.00     0.001 A 
HETATM   24  C16 UNL     1      26.667  -1.073  52.981  1.00  0.00     0.016 A 
ENDBRANCH  13  15
ENDBRANCH   8  13
BRANCH   1  25
HETATM   25  C2  UNL     1      22.161  -0.829  54.938  1.00  0.00     0.032 C 
HETATM   26  C1  UNL     1      23.598  -1.213  55.060  1.00  0.00     0.010 C 
ENDBRANCH   1  25
TORSDOF 3
ENDMDL
MODEL 2
REMARK VINA RESULT:      -9.6      1.433      3.294
REMARK  3 active torsions:
REMARK  status: ('A' for Active; 'I' for Inactive)
REMARK    1  A    between atoms: C2_2  and  C3_3 
REMARK    2  A    between atoms: C8_10  and  N3_11 
REMARK    3  A    between atoms: N3_11  and  C9_12 
ROOT
HETATM    1  C3  UNL     1      21.713   0.816  50.864  1.00  0.00    -0.055 C 
HETATM    2  C4  UNL     1      22.598   0.590  51.820  1.00  0.00     0.022 C 
HETATM    3  C5  UNL     1      22.573  -0.117  53.092  1.00  0.00     0.039 A 
HETATM    4  C6  UNL     1      21.530  -0.620  53.838  1.00  0.00     0.074 A 
HETATM    5  N1  UNL     1      21.811  -1.252  54.989  1.00  0.00    -0.241 NA
HETATM    6  C7  UNL     1      23.096  -1.376  55.379  1.00  0.00     0.236 A 
HETATM    7  N2  UNL     1      24.054  -0.873  54.620  1.00  0.00    -0.223 NA
HETATM    8  C8  UNL     1      23.900  -0.223  53.455  1.00  0.00     0.143 A 
HETATM    9  C18 UNL     1      20.069  -0.649  53.703  1.00  0.00     0.057 C 
HETATM   10  C19 UNL     1      19.214  -0.153  52.797  1.00  0.00     0.137 C 
HETATM   11  O1  UNL     1      19.431   0.579  51.642  1.00  0.00    -0.359 OA
HETATM   12  C20 UNL     1      20.297   0.516  50.535  1.00  0.00     0.208 C 
ENDROOT
BRANCH   8  13
HETATM   13  N3  UNL     1      24.998   0.315  52.687  1.00  0.00    -0.324 N 
HETATM   14  H8  UNL     1      24.763   0.365  51.659  1.00  0.00     0.169 HD
BRANCH  13  15
HETATM   15  C9  UNL     1      26.291   0.773  53.076  1.00  0.00     0.140 A 
HETATM   16  N4  UNL     1      26.758   1.984  53.418  1.00  0.00    -0.242 NA
HETATM   17  C10 UNL     1      28.015   2.228  53.755  1.00  0.00     0.120 A 
HETATM   18  C11 UNL     1      28.995   1.262  53.796  1.00  0.00     0.031 A 
HETATM   19  C12 UNL     1      28.581  -0.008  53.454  1.00  0.00    -0.021 A 
HETATM   20  C13 UNL     1      29.539  -0.995  53.482  1.00  0.00     0.012 A 
HETATM   21  C17 UNL     1      27.264  -0.219  53.109  1.00  0.00     0.020 A 
HETATM   22  C14 UNL     1      29.200  -2.286  53.149  1.00  0.00     0.001 A 
HETATM   23  C15 UNL     1      27.901  -2.561  52.794  1.00  0.00     0.001 A 
HETATM   24  C16 UNL     1      26.988  -1.530  52.787  1.00  0.00     0.016 A 
ENDBRANCH  13  15
ENDBRANCH   8  13
BRANCH   1  25
HETATM   25  C2  UNL     1      22.325   1.630  49.761  1.00  0.00     0.032 C 
HETATM   26  C1  UNL     1      21.586   1.502  48.471  1.00  0.00     0.010 C 
ENDBRANCH   1  25
TORSDOF 3
ENDMDL
MODEL 3
REMARK VINA RESULT:      -9.0      2.179      5.472
REMARK  3 active torsions:
REMARK  status: ('A' for Active; 'I' for Inactive)
REMARK    1  A    between atoms: C2_2  and  C3_3 
REMARK    2  A    between atoms: C8_10  and  N3_11 
REMARK    3  A    between atoms: N3_11  and  C9_12 
ROOT
HETATM    1  C3  UNL     1      22.227  -0.132  53.040  1.00  0.00    -0.055 C 
HETATM    2  C4  UNL     1      23.369   0.499  52.826  1.00  0.00     0.022 C 
HETATM    3  C5  UNL     1      24.722   0.370  53.344  1.00  0.00     0.039 A 
HETATM    4  C6  UNL     1      25.228  -0.336  54.414  1.00  0.00     0.074 A 
HETATM    5  N1  UNL     1      26.548  -0.281  54.652  1.00  0.00    -0.241 NA
HETATM    6  C7  UNL     1      27.336   0.457  53.844  1.00  0.00     0.236 A 
HETATM    7  N2  UNL     1      26.793   1.113  52.833  1.00  0.00    -0.223 NA
HETATM    8  C8  UNL     1      25.493   1.136  52.495  1.00  0.00     0.143 A 
HETATM    9  C18 UNL     1      24.662  -1.202  55.455  1.00  0.00     0.057 C 
HETATM   10  C19 UNL     1      23.415  -1.593  55.755  1.00  0.00     0.137 C 
HETATM   11  O1  UNL     1      22.199  -1.301  55.162  1.00  0.00    -0.359 OA
HETATM   12  C20 UNL     1      21.682  -1.247  53.854  1.00  0.00     0.208 C 
ENDROOT
BRANCH   8  13
HETATM   13  N3  UNL     1      24.968   1.892  51.382  1.00  0.00    -0.324 N 
HETATM   14  H8  UNL     1      24.901   1.300  50.510  1.00  0.00     0.169 HD
BRANCH  13  15
HETATM   15  C9  UNL     1      24.544   3.249  51.275  1.00  0.00     0.140 A 
HETATM   16  N4  UNL     1      23.523   3.924  51.826  1.00  0.00    -0.242 NA
HETATM   17  C10 UNL     1      23.276   5.206  51.606  1.00  0.00     0.120 A 
HETATM   18  C11 UNL     1      24.042   6.002  50.784  1.00  0.00     0.031 A 
HETATM   19  C12 UNL     1      25.110   5.367  50.186  1.00  0.00    -0.021 A 
HETATM   20  C13 UNL     1      25.893   6.135  49.355  1.00  0.00     0.012 A 
HETATM   21  C17 UNL     1      25.332   4.032  50.439  1.00  0.00     0.020 A 
HETATM   22  C14 UNL     1      26.974   5.570  48.718  1.00  0.00     0.001 A 
HETATM   23  C15 UNL     1      27.248   4.239  48.930  1.00  0.00     0.001 A 
HETATM   24  C16 UNL     1      26.427   3.525  49.774  1.00  0.00     0.016 A 
ENDBRANCH  13  15
ENDBRANCH   8  13
BRANCH   1  25
HETATM   25  C2  UNL     1      21.133   0.457  52.197  1.00  0.00     0.032 C 
HETATM   26  C1  UNL     1      21.555   0.688  50.784  1.00  0.00     0.010 C 
ENDBRANCH   1  25
TORSDOF 3
ENDMDL
MODEL 4
REMARK VINA RESULT:      -8.9      2.502      6.004
REMARK  3 active torsions:
REMARK  status: ('A' for Active; 'I' for Inactive)
REMARK    1  A    between atoms: C2_2  and  C3_3 
REMARK    2  A    between atoms: C8_10  and  N3_11 
REMARK    3  A    between atoms: N3_11  and  C9_12 
ROOT
HETATM    1  C3  UNL     1      25.647   0.437  53.248  1.00  0.00    -0.055 C 
HETATM    2  C4  UNL     1      24.564   0.659  52.521  1.00  0.00     0.022 C 
HETATM    3  C5  UNL     1      23.135   0.489  52.736  1.00  0.00     0.039 A 
HETATM    4  C6  UNL     1      22.431  -0.176  53.715  1.00  0.00     0.074 A 
HETATM    5  N1  UNL     1      21.089  -0.153  53.668  1.00  0.00    -0.241 NA
HETATM    6  C7  UNL     1      20.474   0.516  52.672  1.00  0.00     0.236 A 
HETATM    7  N2  UNL     1      21.204   1.135  51.760  1.00  0.00    -0.223 NA
HETATM    8  C8  UNL     1      22.545   1.184  51.701  1.00  0.00     0.143 A 
HETATM    9  C18 UNL     1      22.783  -0.976  54.894  1.00  0.00     0.057 C 
HETATM   10  C19 UNL     1      23.947  -1.377  55.426  1.00  0.00     0.137 C 
HETATM   11  O1  UNL     1      25.255  -1.161  55.026  1.00  0.00    -0.359 OA
HETATM   12  C20 UNL     1      26.028  -0.070  54.590  1.00  0.00     0.208 C 
ENDROOT
BRANCH   8  13
HETATM   13  N3  UNL     1      23.276   1.869  50.661  1.00  0.00    -0.324 N 
HETATM   14  H8  UNL     1      24.049   1.267  50.271  1.00  0.00     0.169 HD
BRANCH  13  15
HETATM   15  C9  UNL     1      23.127   3.172  50.101  1.00  0.00     0.140 A 
HETATM   16  N4  UNL     1      22.050   3.937  49.861  1.00  0.00    -0.242 NA
HETATM   17  C10 UNL     1      22.103   5.145  49.321  1.00  0.00     0.120 A 
HETATM   18  C11 UNL     1      23.274   5.761  48.941  1.00  0.00     0.031 A 
HETATM   19  C12 UNL     1      24.420   5.027  49.160  1.00  0.00    -0.021 A 
HETATM   20  C13 UNL     1      25.607   5.614  48.787  1.00  0.00     0.012 A 
HETATM   21  C17 UNL     1      24.322   3.774  49.724  1.00  0.00     0.020 A 
HETATM   22  C14 UNL     1      26.791   4.940  48.970  1.00  0.00     0.001 A 
HETATM   23  C15 UNL     1      26.760   3.683  49.528  1.00  0.00     0.001 A 
HETATM   24  C16 UNL     1      25.541   3.150  49.882  1.00  0.00     0.016 A 
ENDBRANCH  13  15
ENDBRANCH   8  13
BRANCH   1  25
HETATM   25  C2  UNL     1      26.882   0.813  52.482  1.00  0.00     0.032 C 
HETATM   26  C1  UNL     1      27.437   2.135  52.894  1.00  0.00     0.010 C 
ENDBRANCH   1  25
TORSDOF 3
ENDMDL
MODEL 5
REMARK VINA RESULT:      -8.9      1.871      3.423
REMARK  3 active torsions:
REMARK  status: ('A' for Active; 'I' for Inactive)
REMARK    1  A    between atoms: C2_2  and  C3_3 
REMARK    2  A    between atoms: C8_10  and  N3_11 
REMARK    3  A    between atoms: N3_11  and  C9_12 
ROOT
HETATM    1  C3  UNL     1      23.598   3.678  50.829  1.00  0.00    -0.055 C 
HETATM    2  C4  UNL     1      23.968   2.613  51.521  1.00  0.00     0.022 C 
HETATM    3  C5  UNL     1      23.268   1.617  52.318  1.00  0.00     0.039 A 
HETATM    4  C6  UNL     1      21.979   1.574  52.800  1.00  0.00     0.074 A 
HETATM    5  N1  UNL     1      21.595   0.500  53.509  1.00  0.00    -0.241 NA
HETATM    6  C7  UNL     1      22.475  -0.499  53.726  1.00  0.00     0.236 A 
HETATM    7  N2  UNL     1      23.699  -0.400  53.238  1.00  0.00    -0.223 NA
HETATM    8  C8  UNL     1      24.198   0.618  52.518  1.00  0.00     0.143 A 
HETATM    9  C18 UNL     1      20.814   2.464  52.748  1.00  0.00     0.057 C 
HETATM   10  C19 UNL     1      20.602   3.681  52.224  1.00  0.00     0.137 C 
HETATM   11  O1  UNL     1      21.443   4.535  51.531  1.00  0.00    -0.359 OA
HETATM   12  C20 UNL     1      22.368   4.431  50.476  1.00  0.00     0.208 C 
ENDROOT
BRANCH   8  13
HETATM   13  N3  UNL     1      25.556   0.664  52.029  1.00  0.00    -0.324 N 
HETATM   14  H8  UNL     1      25.608   0.408  51.006  1.00  0.00     0.169 HD
BRANCH  13  15
HETATM   15  C9  UNL     1      26.785   0.986  52.677  1.00  0.00     0.140 A 
HETATM   16  N4  UNL     1      27.303   2.146  53.111  1.00  0.00    -0.242 NA
HETATM   17  C10 UNL     1      28.484   2.257  53.700  1.00  0.00     0.120 A 
HETATM   18  C11 UNL     1      29.323   1.192  53.936  1.00  0.00     0.031 A 
HETATM   19  C12 UNL     1      28.850  -0.031  53.512  1.00  0.00    -0.021 A 
HETATM   20  C13 UNL     1      29.668  -1.116  53.731  1.00  0.00     0.012 A 
HETATM   21  C17 UNL     1      27.617  -0.105  52.904  1.00  0.00     0.020 A 
HETATM   22  C14 UNL     1      29.265  -2.368  53.330  1.00  0.00     0.001 A 
HETATM   23  C15 UNL     1      28.043  -2.508  52.716  1.00  0.00     0.001 A 
HETATM   24  C16 UNL     1      27.270  -1.384  52.526  1.00  0.00     0.016 A 
ENDBRANCH  13  15
ENDBRANCH   8  13
BRANCH   1  25
HETATM   25  C2  UNL     1      24.790   4.337  50.199  1.00  0.00     0.032 C 
HETATM   26  C1  UNL     1      25.717   3.361  49.555  1.00  0.00     0.010 C 
ENDBRANCH   1  25
TORSDOF 3
ENDMDL
MODEL 6
REMARK VINA RESULT:      -8.7      2.121      5.564
REMARK  3 active torsions:
REMARK  status: ('A' for Active; 'I' for Inactive)
REMARK    1  A    between atoms: C2_2  and  C3_3 
REMARK    2  A    between atoms: C8_10  and  N3_11 
REMARK    3  A    between atoms: N3_11  and  C9_12 
ROOT
HETATM    1  C3  UNL     1      22.186  -0.086  53.031  1.00  0.00    -0.055 C 
HETATM    2  C4  UNL     1      23.354   0.475  52.766  1.00  0.00     0.022 C 
HETATM    3  C5  UNL     1      24.713   0.286  53.249  1.00  0.00     0.039 A 
HETATM    4  C6  UNL     1      25.212  -0.418  54.323  1.00  0.00     0.074 A 
HETATM    5  N1  UNL     1      26.540  -0.429  54.522  1.00  0.00    -0.241 NA
HETATM    6  C7  UNL     1      27.342   0.242  53.671  1.00  0.00     0.236 A 
HETATM    7  N2  UNL     1      26.804   0.900  52.658  1.00  0.00    -0.223 NA
HETATM    8  C8  UNL     1      25.498   0.985  52.356  1.00  0.00     0.143 A 
HETATM    9  C18 UNL     1      24.632  -1.223  55.405  1.00  0.00     0.057 C 
HETATM   10  C19 UNL     1      23.374  -1.536  55.752  1.00  0.00     0.137 C 
HETATM   11  O1  UNL     1      22.159  -1.194  55.185  1.00  0.00    -0.359 OA
HETATM   12  C20 UNL     1      21.606  -1.147  53.892  1.00  0.00     0.208 C 
ENDROOT
BRANCH   8  13
HETATM   13  N3  UNL     1      24.982   1.738  51.238  1.00  0.00    -0.324 N 
HETATM   14  H8  UNL     1      24.068   1.340  50.892  1.00  0.00     0.169 HD
BRANCH  13  15
HETATM   15  C9  UNL     1      25.486   2.884  50.555  1.00  0.00     0.140 A 
HETATM   16  N4  UNL     1      26.562   3.074  49.777  1.00  0.00    -0.242 NA
HETATM   17  C10 UNL     1      26.880   4.232  49.219  1.00  0.00     0.120 A 
HETATM   18  C11 UNL     1      26.139   5.383  49.371  1.00  0.00     0.031 A 
HETATM   19  C12 UNL     1      25.017   5.255  50.162  1.00  0.00    -0.021 A 
HETATM   20  C13 UNL     1      24.257   6.389  50.337  1.00  0.00     0.012 A 
HETATM   21  C17 UNL     1      24.721   4.034  50.724  1.00  0.00     0.020 A 
HETATM   22  C14 UNL     1      23.125   6.340  51.116  1.00  0.00     0.001 A 
HETATM   23  C15 UNL     1      22.777   5.148  51.707  1.00  0.00     0.001 A 
HETATM   24  C16 UNL     1      23.578   4.049  51.493  1.00  0.00     0.016 A 
ENDBRANCH  13  15
ENDBRANCH   8  13
BRANCH   1  25
HETATM   25  C2  UNL     1      21.101   0.539  52.203  1.00  0.00     0.032 C 
HETATM   26  C1  UNL     1      21.477   0.672  50.765  1.00  0.00     0.010 C 
ENDBRANCH   1  25
TORSDOF 3
ENDMDL
MODEL 7
REMARK VINA RESULT:      -8.7      0.949      2.155
REMARK  3 active torsions:
REMARK  status: ('A' for Active; 'I' for Inactive)
REMARK    1  A    between atoms: C2_2  and  C3_3 
REMARK    2  A    between atoms: C8_10  and  N3_11 
REMARK    3  A    between atoms: N3_11  and  C9_12 
ROOT
HETATM    1  C3  UNL     1      21.296  -0.430  53.401  1.00  0.00    -0.055 C 
HETATM    2  C4  UNL     1      22.423   0.055  52.908  1.00  0.00     0.022 C 
HETATM    3  C5  UNL     1      22.756   0.999  51.852  1.00  0.00     0.039 A 
HETATM    4  C6  UNL     1      21.993   1.555  50.849  1.00  0.00     0.074 A 
HETATM    5  N1  UNL     1      22.574   2.427  50.009  1.00  0.00    -0.241 NA
HETATM    6  C7  UNL     1      23.878   2.731  50.169  1.00  0.00     0.236 A 
HETATM    7  N2  UNL     1      24.559   2.164  51.150  1.00  0.00    -0.223 NA
HETATM    8  C8  UNL     1      24.091   1.283  52.050  1.00  0.00     0.143 A 
HETATM    9  C18 UNL     1      20.597   1.438  50.412  1.00  0.00     0.057 C 
HETATM   10  C19 UNL     1      19.556   0.701  50.829  1.00  0.00     0.137 C 
HETATM   11  O1  UNL     1      19.446  -0.228  51.850  1.00  0.00    -0.359 OA
HETATM   12  C20 UNL     1      19.829  -0.318  53.200  1.00  0.00     0.208 C 
ENDROOT
BRANCH   8  13
HETATM   13  N3  UNL     1      24.902   0.692  53.088  1.00  0.00    -0.324 N 
HETATM   14  H8  UNL     1      24.592   1.006  54.047  1.00  0.00     0.169 HD
BRANCH  13  15
HETATM   15  C9  UNL     1      26.005  -0.209  53.030  1.00  0.00     0.140 A 
HETATM   16  N4  UNL     1      26.090  -1.519  52.751  1.00  0.00    -0.242 NA
HETATM   17  C10 UNL     1      27.222  -2.206  52.747  1.00  0.00     0.120 A 
HETATM   18  C11 UNL     1      28.451  -1.654  53.029  1.00  0.00     0.031 A 
HETATM   19  C12 UNL     1      28.434  -0.307  53.325  1.00  0.00    -0.021 A 
HETATM   20  C13 UNL     1      29.647   0.273  53.615  1.00  0.00     0.012 A 
HETATM   21  C17 UNL     1      27.235   0.371  53.319  1.00  0.00     0.020 A 
HETATM   22  C14 UNL     1      29.708   1.612  53.924  1.00  0.00     0.001 A 
HETATM   23  C15 UNL     1      28.544   2.344  53.936  1.00  0.00     0.001 A 
HETATM   24  C16 UNL     1      27.362   1.706  53.637  1.00  0.00     0.016 A 
ENDBRANCH  13  15
ENDBRANCH   8  13
BRANCH   1  25
HETATM   25  C2  UNL     1      21.580  -1.397  54.513  1.00  0.00     0.032 C 
HETATM   26  C1  UNL     1      22.895  -1.147  55.173  1.00  0.00     0.010 C 
ENDBRANCH   1  25
TORSDOF 3
ENDMDL
MODEL 8
REMARK VINA RESULT:      -8.6      2.034      4.128
REMARK  3 active torsions:
REMARK  status: ('A' for Active; 'I' for Inactive)
REMARK    1  A    between atoms: C2_2  and  C3_3 
REMARK    2  A    between atoms: C8_10  and  N3_11 
REMARK    3  A    between atoms: N3_11  and  C9_12 
ROOT
HETATM    1  C3  UNL     1      23.984   3.768  50.068  1.00  0.00    -0.055 C 
HETATM    2  C4  UNL     1      24.168   2.785  50.934  1.00  0.00     0.022 C 
HETATM    3  C5  UNL     1      23.299   2.029  51.823  1.00  0.00     0.039 A 
HETATM    4  C6  UNL     1      21.996   2.233  52.220  1.00  0.00     0.074 A 
HETATM    5  N1  UNL     1      21.432   1.345  53.054  1.00  0.00    -0.241 NA
HETATM    6  C7  UNL     1      22.151   0.285  53.476  1.00  0.00     0.236 A 
HETATM    7  N2  UNL     1      23.398   0.142  53.061  1.00  0.00    -0.223 NA
HETATM    8  C8  UNL     1      24.068   0.959  52.231  1.00  0.00     0.143 A 
HETATM    9  C18 UNL     1      20.972   3.251  51.958  1.00  0.00     0.057 C 
HETATM   10  C19 UNL     1      20.959   4.388  51.245  1.00  0.00     0.137 C 
HETATM   11  O1  UNL     1      21.942   5.002  50.490  1.00  0.00    -0.359 OA
HETATM   12  C20 UNL     1      22.890   4.612  49.526  1.00  0.00     0.208 C 
ENDROOT
BRANCH   8  13
HETATM   13  N3  UNL     1      25.440   0.746  51.833  1.00  0.00    -0.324 N 
HETATM   14  H8  UNL     1      25.720   1.396  51.050  1.00  0.00     0.169 HD
BRANCH  13  15
HETATM   15  C9  UNL     1      26.434  -0.160  52.307  1.00  0.00     0.140 A 
HETATM   16  N4  UNL     1      26.530  -1.498  52.270  1.00  0.00    -0.242 NA
HETATM   17  C10 UNL     1      27.546  -2.183  52.773  1.00  0.00     0.120 A 
HETATM   18  C11 UNL     1      28.626  -1.601  53.396  1.00  0.00     0.031 A 
HETATM   19  C12 UNL     1      28.588  -0.224  53.468  1.00  0.00    -0.021 A 
HETATM   20  C13 UNL     1      29.653   0.388  54.089  1.00  0.00     0.012 A 
HETATM   21  C17 UNL     1      27.514   0.451  52.932  1.00  0.00     0.020 A 
HETATM   22  C14 UNL     1      29.683   1.758  54.202  1.00  0.00     0.001 A 
HETATM   23  C15 UNL     1      28.638   2.490  53.688  1.00  0.00     0.001 A 
HETATM   24  C16 UNL     1      27.602   1.819  53.078  1.00  0.00     0.016 A 
ENDBRANCH  13  15
ENDBRANCH   8  13
BRANCH   1  25
HETATM   25  C2  UNL     1      25.284   4.155  49.427  1.00  0.00     0.032 C 
HETATM   26  C1  UNL     1      26.401   3.232  49.784  1.00  0.00     0.010 C 
ENDBRANCH   1  25
TORSDOF 3
ENDMDL
MODEL 9
REMARK VINA RESULT:      -8.5      2.566      4.520
REMARK  3 active torsions:
REMARK  status: ('A' for Active; 'I' for Inactive)
REMARK    1  A    between atoms: C2_2  and  C3_3 
REMARK    2  A    between atoms: C8_10  and  N3_11 
REMARK    3  A    between atoms: N3_11  and  C9_12 
ROOT
HETATM    1  C3  UNL     1      25.703   4.562  49.536  1.00  0.00    -0.055 C 
HETATM    2  C4  UNL     1      25.423   3.636  50.437  1.00  0.00     0.022 C 
HETATM    3  C5  UNL     1      24.237   3.274  51.198  1.00  0.00     0.039 A 
HETATM    4  C6  UNL     1      23.040   3.928  51.390  1.00  0.00     0.074 A 
HETATM    5  N1  UNL     1      22.100   3.337  52.146  1.00  0.00    -0.241 NA
HETATM    6  C7  UNL     1      22.352   2.130  52.691  1.00  0.00     0.236 A 
HETATM    7  N2  UNL     1      23.521   1.552  52.471  1.00  0.00    -0.223 NA
HETATM    8  C8  UNL     1      24.534   2.040  51.737  1.00  0.00     0.143 A 
HETATM    9  C18 UNL     1      22.468   5.208  50.958  1.00  0.00     0.057 C 
HETATM   10  C19 UNL     1      22.938   6.233  50.231  1.00  0.00     0.137 C 
HETATM   11  O1  UNL     1      24.165   6.432  49.621  1.00  0.00    -0.359 OA
HETATM   12  C20 UNL     1      25.046   5.683  48.819  1.00  0.00     0.208 C 
ENDROOT
BRANCH   8  13
HETATM   13  N3  UNL     1      25.793   1.356  51.554  1.00  0.00    -0.324 N 
HETATM   14  H8  UNL     1      25.790   0.769  50.678  1.00  0.00     0.169 HD
BRANCH  13  15
HETATM   15  C9  UNL     1      26.988   1.348  52.332  1.00  0.00     0.140 A 
HETATM   16  N4  UNL     1      27.739   2.333  52.848  1.00  0.00    -0.242 NA
HETATM   17  C10 UNL     1      28.840   2.135  53.557  1.00  0.00     0.120 A 
HETATM   18  C11 UNL     1      29.345   0.888  53.849  1.00  0.00     0.031 A 
HETATM   19  C12 UNL     1      28.619  -0.171  53.347  1.00  0.00    -0.021 A 
HETATM   20  C13 UNL     1      29.100  -1.431  53.619  1.00  0.00     0.012 A 
HETATM   21  C17 UNL     1      27.479   0.078  52.615  1.00  0.00     0.020 A 
HETATM   22  C14 UNL     1      28.431  -2.535  53.147  1.00  0.00     0.001 A 
HETATM   23  C15 UNL     1      27.286  -2.353  52.408  1.00  0.00     0.001 A 
HETATM   24  C16 UNL     1      26.855  -1.067  52.170  1.00  0.00     0.016 A 
ENDBRANCH  13  15
ENDBRANCH   8  13
BRANCH   1  25
HETATM   25  C2  UNL     1      27.132   4.450  49.092  1.00  0.00     0.032 C 
HETATM   26  C1  UNL     1      27.629   5.688  48.423  1.00  0.00     0.010 C 
ENDBRANCH   1  25
TORSDOF 3
ENDMDL
