MODEL 1
REMARK VINA RESULT:      -7.2      0.000      0.000
REMARK  8 active torsions:
REMARK  status: ('A' for Active; 'I' for Inactive)
REMARK    1  A    between atoms: O1_2  and  C2_3 
REMARK    2  A    between atoms: C2_3  and  C3_4 
REMARK    3  A    between atoms: C3_4  and  O2_5 
REMARK    4  A    between atoms: O2_5  and  C4_6 
REMARK    5  A    between atoms: C5_7  and  O3_8 
REMARK    6  A    between atoms: O3_8  and  C6_9 
REMARK    7  A    between atoms: C6_9  and  C7_10 
REMARK    8  A    between atoms: C7_10  and  O4_11 
ROOT
HETATM    1  C4  UNL     1      24.639   1.756  52.299  1.00  0.00     0.100 C 
HETATM    2  C5  UNL     1      23.565   1.750  51.572  1.00  0.00     0.090 C 
HETATM    3  C9  UNL     1      22.582   2.005  50.507  1.00  0.00     0.167 C 
HETATM    4  S1  UNL     1      21.086   2.840  51.143  1.00  0.00    -0.021 SA
HETATM    5  N1  UNL     1      21.555   4.460  51.703  1.00  0.00    -0.209 NA
HETATM    6  C10 UNL     1      21.641   5.490  50.960  1.00  0.00     0.240 C 
HETATM    7  N2  UNL     1      21.940   6.840  50.955  1.00  0.00    -0.257 NA
HETATM    8  C11 UNL     1      22.932   7.520  50.625  1.00  0.00     0.095 C 
HETATM    9  C12 UNL     1      24.158   8.282  50.213  1.00  0.00     0.085 C 
HETATM   10  C13 UNL     1      25.159   7.354  49.639  1.00  0.00    -0.051 A 
HETATM   11  C14 UNL     1      25.980   7.642  48.576  1.00  0.00     0.007 A 
HETATM   12  C15 UNL     1      26.912   6.747  48.090  1.00  0.00     0.003 A 
HETATM   13  C16 UNL     1      27.095   5.490  48.630  1.00  0.00     0.029 A 
HETATM   14  C17 UNL     1      26.263   5.236  49.682  1.00  0.00     0.032 A 
HETATM   15  C18 UNL     1      25.326   6.099  50.194  1.00  0.00     0.037 A 
HETATM   16  N3  UNL     1      26.395   3.910  50.269  1.00  0.00    -0.366 N 
HETATM   17  C19 UNL     1      25.569   2.987  51.082  1.00  0.00     0.091 C 
HETATM   18  C20 UNL     1      25.917   2.422  52.172  1.00  0.00     0.056 C 
HETATM   19  H25 UNL     1      27.346   3.421  50.108  1.00  0.00     0.165 HD
ENDROOT
BRANCH   1  20
HETATM   20  O2  UNL     1      24.996   1.141  53.473  1.00  0.00    -0.346 OA
BRANCH  20  21
HETATM   21  C3  UNL     1      26.203   1.247  54.166  1.00  0.00     0.201 C 
BRANCH  21  22
HETATM   22  C2  UNL     1      26.407   0.007  54.981  1.00  0.00     0.193 C 
BRANCH  22  23
HETATM   23  O1  UNL     1      27.723  -0.402  54.979  1.00  0.00    -0.394 OA
HETATM   24  C1  UNL     1      28.562   0.636  54.578  1.00  0.00     0.201 C 
ENDBRANCH  22  23
ENDBRANCH  21  22
ENDBRANCH  20  21
ENDBRANCH   1  20
BRANCH   2  25
HETATM   25  O3  UNL     1      23.099   0.869  52.588  1.00  0.00    -0.350 OA
BRANCH  25  26
HETATM   26  C6  UNL     1      22.177  -0.147  52.298  1.00  0.00     0.201 C 
BRANCH  26  27
HETATM   27  C7  UNL     1      21.423  -0.615  53.487  1.00  0.00     0.193 C 
BRANCH  27  28
HETATM   28  O4  UNL     1      21.937  -1.650  54.208  1.00  0.00    -0.394 OA
HETATM   29  C8  UNL     1      22.785  -1.315  55.242  1.00  0.00     0.201 C 
ENDBRANCH  27  28
ENDBRANCH  26  27
ENDBRANCH  25  26
ENDBRANCH   2  25
TORSDOF 8
ENDMDL
MODEL 2
REMARK VINA RESULT:      -6.8      3.620      7.445
REMARK  8 active torsions:
REMARK  status: ('A' for Active; 'I' for Inactive)
REMARK    1  A    between atoms: O1_2  and  C2_3 
REMARK    2  A    between atoms: C2_3  and  C3_4 
REMARK    3  A    between atoms: C3_4  and  O2_5 
REMARK    4  A    between atoms: O2_5  and  C4_6 
REMARK    5  A    between atoms: C5_7  and  O3_8 
REMARK    6  A    between atoms: O3_8  and  C6_9 
REMARK    7  A    between atoms: C6_9  and  C7_10 
REMARK    8  A    between atoms: C7_10  and  O4_11 
ROOT
HETATM    1  C4  UNL     1      25.780   5.080  49.770  1.00  0.00     0.100 C 
HETATM    2  C5  UNL     1      24.924   5.809  50.417  1.00  0.00     0.090 C 
HETATM    3  C9  UNL     1      23.886   6.266  51.354  1.00  0.00     0.167 C 
HETATM    4  S1  UNL     1      22.384   6.839  50.485  1.00  0.00    -0.021 SA
HETATM    5  N1  UNL     1      21.652   5.439  49.671  1.00  0.00    -0.209 NA
HETATM    6  C10 UNL     1      20.850   4.616  50.218  1.00  0.00     0.240 C 
HETATM    7  N2  UNL     1      20.095   3.479  49.997  1.00  0.00    -0.257 NA
HETATM    8  C11 UNL     1      20.232   2.267  50.259  1.00  0.00     0.095 C 
HETATM    9  C12 UNL     1      20.456   0.823  50.602  1.00  0.00     0.085 C 
HETATM   10  C13 UNL     1      21.697   0.680  51.397  1.00  0.00    -0.051 A 
HETATM   11  C14 UNL     1      21.867  -0.199  52.439  1.00  0.00     0.007 A 
HETATM   12  C15 UNL     1      23.053  -0.307  53.136  1.00  0.00     0.003 A 
HETATM   13  C16 UNL     1      24.164   0.459  52.846  1.00  0.00     0.029 A 
HETATM   14  C17 UNL     1      23.961   1.321  51.808  1.00  0.00     0.032 A 
HETATM   15  C18 UNL     1      22.799   1.456  51.091  1.00  0.00     0.037 A 
HETATM   16  N3  UNL     1      25.094   2.174  51.481  1.00  0.00    -0.366 N 
HETATM   17  C19 UNL     1      25.328   3.469  50.799  1.00  0.00     0.091 C 
HETATM   18  C20 UNL     1      26.157   3.687  49.854  1.00  0.00     0.056 C 
HETATM   19  H25 UNL     1      26.062   1.802  51.787  1.00  0.00     0.165 HD
ENDROOT
BRANCH   1  20
HETATM   20  O2  UNL     1      26.666   5.333  48.752  1.00  0.00    -0.346 OA
BRANCH  20  21
HETATM   21  C3  UNL     1      27.916   4.750  48.537  1.00  0.00     0.201 C 
BRANCH  21  22
HETATM   22  C2  UNL     1      28.923   5.834  48.301  1.00  0.00     0.193 C 
BRANCH  22  23
HETATM   23  O1  UNL     1      30.192   5.451  48.680  1.00  0.00    -0.394 OA
HETATM   24  C1  UNL     1      31.139   5.898  47.762  1.00  0.00     0.201 C 
ENDBRANCH  22  23
ENDBRANCH  21  22
ENDBRANCH  20  21
ENDBRANCH   1  20
BRANCH   2  25
HETATM   25  O3  UNL     1      25.409   6.828  49.551  1.00  0.00    -0.350 OA
BRANCH  25  26
HETATM   26  C6  UNL     1      26.005   7.991  50.062  1.00  0.00     0.201 C 
BRANCH  26  27
HETATM   27  C7  UNL     1      25.609   9.224  49.338  1.00  0.00     0.193 C 
BRANCH  27  28
HETATM   28  O4  UNL     1      26.371  10.340  49.506  1.00  0.00    -0.394 OA
HETATM   29  C8  UNL     1      27.652  10.290  49.000  1.00  0.00     0.201 C 
ENDBRANCH  27  28
ENDBRANCH  26  27
ENDBRANCH  25  26
ENDBRANCH   2  25
TORSDOF 8
ENDMDL
MODEL 3
REMARK VINA RESULT:      -6.7      2.112      2.750
REMARK  8 active torsions:
REMARK  status: ('A' for Active; 'I' for Inactive)
REMARK    1  A    between atoms: O1_2  and  C2_3 
REMARK    2  A    between atoms: C2_3  and  C3_4 
REMARK    3  A    between atoms: C3_4  and  O2_5 
REMARK    4  A    between atoms: O2_5  and  C4_6 
REMARK    5  A    between atoms: C5_7  and  O3_8 
REMARK    6  A    between atoms: O3_8  and  C6_9 
REMARK    7  A    between atoms: C6_9  and  C7_10 
REMARK    8  A    between atoms: C7_10  and  O4_11 
ROOT
HETATM    1  C4  UNL     1      22.384   1.704  51.795  1.00  0.00     0.100 C 
HETATM    2  C5  UNL     1      21.585   2.126  50.864  1.00  0.00     0.090 C 
HETATM    3  C9  UNL     1      21.044   2.757  49.650  1.00  0.00     0.167 C 
HETATM    4  S1  UNL     1      19.871   4.102  50.043  1.00  0.00    -0.021 SA
HETATM    5  N1  UNL     1      20.775   5.404  50.846  1.00  0.00    -0.209 NA
HETATM    6  C10 UNL     1      21.412   6.327  50.245  1.00  0.00     0.240 C 
HETATM    7  N2  UNL     1      22.191   7.453  50.437  1.00  0.00    -0.257 NA
HETATM    8  C11 UNL     1      23.414   7.695  50.390  1.00  0.00     0.095 C 
HETATM    9  C12 UNL     1      24.896   7.922  50.319  1.00  0.00     0.085 C 
HETATM   10  C13 UNL     1      25.575   6.684  49.874  1.00  0.00    -0.051 A 
HETATM   11  C14 UNL     1      26.665   6.641  49.039  1.00  0.00     0.007 A 
HETATM   12  C15 UNL     1      27.274   5.459  48.670  1.00  0.00     0.003 A 
HETATM   13  C16 UNL     1      26.839   4.224  49.107  1.00  0.00     0.029 A 
HETATM   14  C17 UNL     1      25.755   4.303  49.933  1.00  0.00     0.032 A 
HETATM   15  C18 UNL     1      25.124   5.457  50.323  1.00  0.00     0.037 A 
HETATM   16  N3  UNL     1      25.238   3.025  50.399  1.00  0.00    -0.366 N 
HETATM   17  C19 UNL     1      23.962   2.488  50.927  1.00  0.00     0.091 C 
HETATM   18  C20 UNL     1      23.810   1.819  52.003  1.00  0.00     0.056 C 
HETATM   19  H25 UNL     1      25.943   2.205  50.390  1.00  0.00     0.165 HD
ENDROOT
BRANCH   1  20
HETATM   20  O2  UNL     1      22.201   0.984  52.950  1.00  0.00    -0.346 OA
BRANCH  20  21
HETATM   21  C3  UNL     1      23.001  -0.041  53.458  1.00  0.00     0.201 C 
BRANCH  21  22
HETATM   22  C2  UNL     1      22.120  -1.163  53.916  1.00  0.00     0.193 C 
BRANCH  22  23
HETATM   23  O1  UNL     1      22.187  -1.347  55.281  1.00  0.00    -0.394 OA
HETATM   24  C1  UNL     1      23.507  -1.508  55.694  1.00  0.00     0.201 C 
ENDBRANCH  22  23
ENDBRANCH  21  22
ENDBRANCH  20  21
ENDBRANCH   1  20
BRANCH   2  25
HETATM   25  O3  UNL     1      20.601   1.485  51.668  1.00  0.00    -0.350 OA
BRANCH  25  26
HETATM   26  C6  UNL     1      19.731   0.529  51.124  1.00  0.00     0.201 C 
BRANCH  26  27
HETATM   27  C7  UNL     1      18.592   0.194  52.014  1.00  0.00     0.193 C 
BRANCH  27  28
HETATM   28  O4  UNL     1      18.821  -0.645  53.062  1.00  0.00    -0.394 OA
HETATM   29  C8  UNL     1      17.819  -1.545  53.358  1.00  0.00     0.201 C 
ENDBRANCH  27  28
ENDBRANCH  26  27
ENDBRANCH  25  26
ENDBRANCH   2  25
TORSDOF 8
ENDMDL
MODEL 4
REMARK VINA RESULT:      -6.6     22.005     24.765
REMARK  8 active torsions:
REMARK  status: ('A' for Active; 'I' for Inactive)
REMARK    1  A    between atoms: O1_2  and  C2_3 
REMARK    2  A    between atoms: C2_3  and  C3_4 
REMARK    3  A    between atoms: C3_4  and  O2_5 
REMARK    4  A    between atoms: O2_5  and  C4_6 
REMARK    5  A    between atoms: C5_7  and  O3_8 
REMARK    6  A    between atoms: O3_8  and  C6_9 
REMARK    7  A    between atoms: C6_9  and  C7_10 
REMARK    8  A    between atoms: C7_10  and  O4_11 
ROOT
HETATM    1  C4  UNL     1      42.384   1.744  68.897  1.00  0.00     0.100 C 
HETATM    2  C5  UNL     1      41.371   1.811  69.705  1.00  0.00     0.090 C 
HETATM    3  C9  UNL     1      40.246   1.464  70.587  1.00  0.00     0.167 C 
HETATM    4  S1  UNL     1      38.655   2.100  69.951  1.00  0.00    -0.021 SA
HETATM    5  N1  UNL     1      38.294   1.257  68.428  1.00  0.00    -0.209 NA
HETATM    6  C10 UNL     1      37.715   0.128  68.342  1.00  0.00     0.240 C 
HETATM    7  N2  UNL     1      37.263  -0.829  67.451  1.00  0.00    -0.257 NA
HETATM    8  C11 UNL     1      37.691  -1.930  67.051  1.00  0.00     0.095 C 
HETATM    9  C12 UNL     1      38.259  -3.247  66.609  1.00  0.00     0.085 C 
HETATM   10  C13 UNL     1      39.492  -3.546  67.372  1.00  0.00    -0.051 A 
HETATM   11  C14 UNL     1      39.864  -4.796  67.806  1.00  0.00     0.007 A 
HETATM   12  C15 UNL     1      41.036  -5.024  68.499  1.00  0.00     0.003 A 
HETATM   13  C16 UNL     1      41.928  -4.019  68.814  1.00  0.00     0.029 A 
HETATM   14  C17 UNL     1      41.527  -2.792  68.370  1.00  0.00     0.032 A 
HETATM   15  C18 UNL     1      40.372  -2.526  67.678  1.00  0.00     0.037 A 
HETATM   16  N3  UNL     1      42.419  -1.692  68.704  1.00  0.00    -0.366 N 
HETATM   17  C19 UNL     1      42.333  -0.219  68.847  1.00  0.00     0.091 C 
HETATM   18  C20 UNL     1      43.090   0.641  68.286  1.00  0.00     0.056 C 
HETATM   19  H25 UNL     1      43.446  -1.967  68.899  1.00  0.00     0.165 HD
ENDROOT
BRANCH   1  20
HETATM   20  O2  UNL     1      43.188   2.683  68.300  1.00  0.00    -0.346 OA
BRANCH  20  21
HETATM   21  C3  UNL     1      44.430   2.489  67.693  1.00  0.00     0.201 C 
BRANCH  21  22
HETATM   22  C2  UNL     1      44.794   3.724  66.926  1.00  0.00     0.193 C 
BRANCH  22  23
HETATM   23  O1  UNL     1      44.354   3.668  65.621  1.00  0.00    -0.394 OA
HETATM   24  C1  UNL     1      45.131   4.484  64.802  1.00  0.00     0.201 C 
ENDBRANCH  22  23
ENDBRANCH  21  22
ENDBRANCH  20  21
ENDBRANCH   1  20
BRANCH   2  25
HETATM   25  O3  UNL     1      41.597   3.211  69.584  1.00  0.00    -0.350 OA
BRANCH  25  26
HETATM   26  C6  UNL     1      41.588   4.046  70.711  1.00  0.00     0.201 C 
BRANCH  26  27
HETATM   27  C7  UNL     1      41.382   5.479  70.381  1.00  0.00     0.193 C 
BRANCH  27  28
HETATM   28  O4  UNL     1      41.726   5.907  69.135  1.00  0.00    -0.394 OA
HETATM   29  C8  UNL     1      42.642   6.936  69.071  1.00  0.00     0.201 C 
ENDBRANCH  27  28
ENDBRANCH  26  27
ENDBRANCH  25  26
ENDBRANCH   2  25
TORSDOF 8
ENDMDL
MODEL 5
REMARK VINA RESULT:      -6.4      6.851      9.691
REMARK  8 active torsions:
REMARK  status: ('A' for Active; 'I' for Inactive)
REMARK    1  A    between atoms: O1_2  and  C2_3 
REMARK    2  A    between atoms: C2_3  and  C3_4 
REMARK    3  A    between atoms: C3_4  and  O2_5 
REMARK    4  A    between atoms: O2_5  and  C4_6 
REMARK    5  A    between atoms: C5_7  and  O3_8 
REMARK    6  A    between atoms: O3_8  and  C6_9 
REMARK    7  A    between atoms: C6_9  and  C7_10 
REMARK    8  A    between atoms: C7_10  and  O4_11 
ROOT
HETATM    1  C4  UNL     1      31.466   6.319  47.825  1.00  0.00     0.100 C 
HETATM    2  C5  UNL     1      31.449   7.448  48.465  1.00  0.00     0.090 C 
HETATM    3  C9  UNL     1      31.043   8.586  49.304  1.00  0.00     0.167 C 
HETATM    4  S1  UNL     1      30.940  10.139  48.346  1.00  0.00    -0.021 SA
HETATM    5  N1  UNL     1      29.621   9.973  47.166  1.00  0.00    -0.209 NA
HETATM    6  C10 UNL     1      28.394  10.207  47.409  1.00  0.00     0.240 C 
HETATM    7  N2  UNL     1      27.128  10.215  46.852  1.00  0.00    -0.257 NA
HETATM    8  C11 UNL     1      26.148   9.445  46.885  1.00  0.00     0.095 C 
HETATM    9  C12 UNL     1      25.003   8.477  46.963  1.00  0.00     0.085 C 
HETATM   10  C13 UNL     1      25.337   7.375  47.895  1.00  0.00    -0.051 A 
HETATM   11  C14 UNL     1      24.449   6.776  48.755  1.00  0.00     0.007 A 
HETATM   12  C15 UNL     1      24.808   5.737  49.590  1.00  0.00     0.003 A 
HETATM   13  C16 UNL     1      26.085   5.218  49.633  1.00  0.00     0.029 A 
HETATM   14  C17 UNL     1      26.942   5.837  48.769  1.00  0.00     0.032 A 
HETATM   15  C18 UNL     1      26.623   6.869  47.922  1.00  0.00     0.037 A 
HETATM   16  N3  UNL     1      28.312   5.345  48.796  1.00  0.00    -0.366 N 
HETATM   17  C19 UNL     1      29.659   5.841  48.430  1.00  0.00     0.091 C 
HETATM   18  C20 UNL     1      30.508   5.246  47.686  1.00  0.00     0.056 C 
HETATM   19  H25 UNL     1      28.438   4.338  49.168  1.00  0.00     0.165 HD
ENDROOT
BRANCH   1  20
HETATM   20  O2  UNL     1      32.390   5.694  47.026  1.00  0.00    -0.346 OA
BRANCH  20  21
HETATM   21  C3  UNL     1      32.387   4.370  46.584  1.00  0.00     0.201 C 
BRANCH  21  22
HETATM   22  C2  UNL     1      33.789   3.971  46.232  1.00  0.00     0.193 C 
BRANCH  22  23
HETATM   23  O1  UNL     1      34.120   2.738  46.750  1.00  0.00    -0.394 OA
HETATM   24  C1  UNL     1      33.164   2.315  47.670  1.00  0.00     0.201 C 
ENDBRANCH  22  23
ENDBRANCH  21  22
ENDBRANCH  20  21
ENDBRANCH   1  20
BRANCH   2  25
HETATM   25  O3  UNL     1      32.750   7.579  47.905  1.00  0.00    -0.350 OA
BRANCH  25  26
HETATM   26  C6  UNL     1      33.851   7.925  48.702  1.00  0.00     0.201 C 
BRANCH  26  27
HETATM   27  C7  UNL     1      35.157   7.609  48.073  1.00  0.00     0.193 C 
BRANCH  27  28
HETATM   28  O4  UNL     1      35.962   6.697  48.686  1.00  0.00    -0.394 OA
HETATM   29  C8  UNL     1      35.353   5.544  49.134  1.00  0.00     0.201 C 
ENDBRANCH  27  28
ENDBRANCH  26  27
ENDBRANCH  25  26
ENDBRANCH   2  25
TORSDOF 8
ENDMDL
MODEL 6
REMARK VINA RESULT:      -6.3      3.464      8.204
REMARK  8 active torsions:
REMARK  status: ('A' for Active; 'I' for Inactive)
REMARK    1  A    between atoms: O1_2  and  C2_3 
REMARK    2  A    between atoms: C2_3  and  C3_4 
REMARK    3  A    between atoms: C3_4  and  O2_5 
REMARK    4  A    between atoms: O2_5  and  C4_6 
REMARK    5  A    between atoms: C5_7  and  O3_8 
REMARK    6  A    between atoms: O3_8  and  C6_9 
REMARK    7  A    between atoms: C6_9  and  C7_10 
REMARK    8  A    between atoms: C7_10  and  O4_11 
ROOT
HETATM    1  C4  UNL     1      23.179   4.999  50.912  1.00  0.00     0.100 C 
HETATM    2  C5  UNL     1      23.952   4.348  50.099  1.00  0.00     0.090 C 
HETATM    3  C9  UNL     1      24.624   3.278  49.346  1.00  0.00     0.167 C 
HETATM    4  S1  UNL     1      26.417   3.219  49.695  1.00  0.00    -0.021 SA
HETATM    5  N1  UNL     1      26.632   2.758  51.398  1.00  0.00    -0.209 NA
HETATM    6  C10 UNL     1      26.653   1.562  51.832  1.00  0.00     0.240 C 
HETATM    7  N2  UNL     1      26.782   0.790  52.972  1.00  0.00    -0.257 NA
HETATM    8  C11 UNL     1      25.988   0.187  53.721  1.00  0.00     0.095 C 
HETATM    9  C12 UNL     1      24.982  -0.518  54.584  1.00  0.00     0.085 C 
HETATM   10  C13 UNL     1      23.630  -0.384  53.995  1.00  0.00    -0.051 A 
HETATM   11  C14 UNL     1      22.668  -1.365  54.002  1.00  0.00     0.007 A 
HETATM   12  C15 UNL     1      21.414  -1.182  53.455  1.00  0.00     0.003 A 
HETATM   13  C16 UNL     1      21.024  -0.002  52.855  1.00  0.00     0.029 A 
HETATM   14  C17 UNL     1      22.003   0.949  52.864  1.00  0.00     0.032 A 
HETATM   15  C18 UNL     1      23.259   0.806  53.398  1.00  0.00     0.037 A 
HETATM   16  N3  UNL     1      21.651   2.204  52.215  1.00  0.00    -0.366 N 
HETATM   17  C19 UNL     1      22.357   3.352  51.598  1.00  0.00     0.091 C 
HETATM   18  C20 UNL     1      22.178   4.586  51.870  1.00  0.00     0.056 C 
HETATM   19  H25 UNL     1      20.593   2.415  52.149  1.00  0.00     0.165 HD
ENDROOT
BRANCH   1  20
HETATM   20  O2  UNL     1      23.001   6.331  51.194  1.00  0.00    -0.346 OA
BRANCH  20  21
HETATM   21  C3  UNL     1      21.806   7.053  51.207  1.00  0.00     0.201 C 
BRANCH  21  22
HETATM   22  C2  UNL     1      21.653   7.764  49.897  1.00  0.00     0.193 C 
BRANCH  22  23
HETATM   23  O1  UNL     1      22.635   8.712  49.707  1.00  0.00    -0.394 OA
HETATM   24  C1  UNL     1      22.557   9.255  48.427  1.00  0.00     0.201 C 
ENDBRANCH  22  23
ENDBRANCH  21  22
ENDBRANCH  20  21
ENDBRANCH   1  20
BRANCH   2  25
HETATM   25  O3  UNL     1      24.399   5.657  49.763  1.00  0.00    -0.350 OA
BRANCH  25  26
HETATM   26  C6  UNL     1      24.539   6.054  48.426  1.00  0.00     0.201 C 
BRANCH  26  27
HETATM   27  C7  UNL     1      25.657   7.007  48.207  1.00  0.00     0.193 C 
BRANCH  27  28
HETATM   28  O4  UNL     1      26.911   6.619  48.569  1.00  0.00    -0.394 OA
HETATM   29  C8  UNL     1      27.877   7.603  48.581  1.00  0.00     0.201 C 
ENDBRANCH  27  28
ENDBRANCH  26  27
ENDBRANCH  25  26
ENDBRANCH   2  25
TORSDOF 8
ENDMDL
MODEL 7
REMARK VINA RESULT:      -6.1      8.641     11.874
REMARK  8 active torsions:
REMARK  status: ('A' for Active; 'I' for Inactive)
REMARK    1  A    between atoms: O1_2  and  C2_3 
REMARK    2  A    between atoms: C2_3  and  C3_4 
REMARK    3  A    between atoms: C3_4  and  O2_5 
REMARK    4  A    between atoms: O2_5  and  C4_6 
REMARK    5  A    between atoms: C5_7  and  O3_8 
REMARK    6  A    between atoms: O3_8  and  C6_9 
REMARK    7  A    between atoms: C6_9  and  C7_10 
REMARK    8  A    between atoms: C7_10  and  O4_11 
ROOT
HETATM    1  C4  UNL     1      29.566   8.739  47.734  1.00  0.00     0.100 C 
HETATM    2  C5  UNL     1      30.265   9.182  46.735  1.00  0.00     0.090 C 
HETATM    3  C9  UNL     1      31.224   9.292  45.625  1.00  0.00     0.167 C 
HETATM    4  S1  UNL     1      32.488  10.575  45.937  1.00  0.00    -0.021 SA
HETATM    5  N1  UNL     1      33.476  10.049  47.318  1.00  0.00    -0.209 NA
HETATM    6  C10 UNL     1      34.484   9.276  47.239  1.00  0.00     0.240 C 
HETATM    7  N2  UNL     1      35.471   8.651  47.979  1.00  0.00    -0.257 NA
HETATM    8  C11 UNL     1      35.642   7.496  48.419  1.00  0.00     0.095 C 
HETATM    9  C12 UNL     1      35.789   6.090  48.921  1.00  0.00     0.085 C 
HETATM   10  C13 UNL     1      34.672   5.256  48.423  1.00  0.00    -0.051 A 
HETATM   11  C14 UNL     1      34.783   3.944  48.030  1.00  0.00     0.007 A 
HETATM   12  C15 UNL     1      33.704   3.204  47.590  1.00  0.00     0.003 A 
HETATM   13  C16 UNL     1      32.427   3.720  47.506  1.00  0.00     0.029 A 
HETATM   14  C17 UNL     1      32.352   5.025  47.901  1.00  0.00     0.032 A 
HETATM   15  C18 UNL     1      33.400   5.792  48.346  1.00  0.00     0.037 A 
HETATM   16  N3  UNL     1      31.030   5.626  47.803  1.00  0.00    -0.366 N 
HETATM   17  C19 UNL     1      30.453   6.987  47.700  1.00  0.00     0.091 C 
HETATM   18  C20 UNL     1      29.535   7.478  48.439  1.00  0.00     0.056 C 
HETATM   19  H25 UNL     1      30.200   4.933  47.817  1.00  0.00     0.165 HD
ENDROOT
BRANCH   1  20
HETATM   20  O2  UNL     1      28.581   9.284  48.521  1.00  0.00    -0.346 OA
BRANCH  20  21
HETATM   21  C3  UNL     1      27.519   8.627  49.144  1.00  0.00     0.201 C 
BRANCH  21  22
HETATM   22  C2  UNL     1      26.400   9.601  49.353  1.00  0.00     0.193 C 
BRANCH  22  23
HETATM   23  O1  UNL     1      26.776  10.891  49.048  1.00  0.00    -0.394 OA
HETATM   24  C1  UNL     1      25.863  11.480  48.176  1.00  0.00     0.201 C 
ENDBRANCH  22  23
ENDBRANCH  21  22
ENDBRANCH  20  21
ENDBRANCH   1  20
BRANCH   2  25
HETATM   25  O3  UNL     1      29.497  10.360  46.953  1.00  0.00    -0.350 OA
BRANCH  25  26
HETATM   26  C6  UNL     1      28.850  11.009  45.891  1.00  0.00     0.201 C 
BRANCH  26  27
HETATM   27  C7  UNL     1      28.895  12.490  45.990  1.00  0.00     0.193 C 
BRANCH  27  28
HETATM   28  O4  UNL     1      28.959  13.049  47.230  1.00  0.00    -0.394 OA
HETATM   29  C8  UNL     1      28.531  14.355  47.336  1.00  0.00     0.201 C 
ENDBRANCH  27  28
ENDBRANCH  26  27
ENDBRANCH  25  26
ENDBRANCH   2  25
TORSDOF 8
ENDMDL
MODEL 8
REMARK VINA RESULT:      -5.9      4.562      8.003
REMARK  8 active torsions:
REMARK  status: ('A' for Active; 'I' for Inactive)
REMARK    1  A    between atoms: O1_2  and  C2_3 
REMARK    2  A    between atoms: C2_3  and  C3_4 
REMARK    3  A    between atoms: C3_4  and  O2_5 
REMARK    4  A    between atoms: O2_5  and  C4_6 
REMARK    5  A    between atoms: C5_7  and  O3_8 
REMARK    6  A    between atoms: O3_8  and  C6_9 
REMARK    7  A    between atoms: C6_9  and  C7_10 
REMARK    8  A    between atoms: C7_10  and  O4_11 
ROOT
HETATM    1  C4  UNL     1      26.939   6.080  48.542  1.00  0.00     0.100 C 
HETATM    2  C5  UNL     1      25.956   6.902  48.746  1.00  0.00     0.090 C 
HETATM    3  C9  UNL     1      24.694   7.505  49.204  1.00  0.00     0.167 C 
HETATM    4  S1  UNL     1      23.586   7.913  47.809  1.00  0.00    -0.021 SA
HETATM    5  N1  UNL     1      23.089   6.392  47.036  1.00  0.00    -0.209 NA
HETATM    6  C10 UNL     1      22.113   5.668  47.415  1.00  0.00     0.240 C 
HETATM    7  N2  UNL     1      21.416   4.505  47.144  1.00  0.00    -0.257 NA
HETATM    8  C11 UNL     1      21.400   3.356  47.628  1.00  0.00     0.095 C 
HETATM    9  C12 UNL     1      21.429   1.991  48.253  1.00  0.00     0.085 C 
HETATM   10  C13 UNL     1      22.336   1.992  49.424  1.00  0.00    -0.051 A 
HETATM   11  C14 UNL     1      22.114   1.302  50.591  1.00  0.00     0.007 A 
HETATM   12  C15 UNL     1      23.003   1.321  51.647  1.00  0.00     0.003 A 
HETATM   13  C16 UNL     1      24.184   2.033  51.619  1.00  0.00     0.029 A 
HETATM   14  C17 UNL     1      24.372   2.707  50.447  1.00  0.00     0.032 A 
HETATM   15  C18 UNL     1      23.514   2.712  49.375  1.00  0.00     0.037 A 
HETATM   16  N3  UNL     1      25.591   3.500  50.377  1.00  0.00    -0.366 N 
HETATM   17  C19 UNL     1      26.098   4.662  49.611  1.00  0.00     0.091 C 
HETATM   18  C20 UNL     1      27.199   4.724  48.968  1.00  0.00     0.056 C 
HETATM   19  H25 UNL     1      26.387   3.190  51.040  1.00  0.00     0.165 HD
ENDROOT
BRANCH   1  20
HETATM   20  O2  UNL     1      28.118   6.163  47.845  1.00  0.00    -0.346 OA
BRANCH  20  21
HETATM   21  C3  UNL     1      29.359   5.625  48.190  1.00  0.00     0.201 C 
BRANCH  21  22
HETATM   22  C2  UNL     1      30.388   6.714  48.158  1.00  0.00     0.193 C 
BRANCH  22  23
HETATM   23  O1  UNL     1      31.199   6.691  49.272  1.00  0.00    -0.394 OA
HETATM   24  C1  UNL     1      32.260   5.806  49.093  1.00  0.00     0.201 C 
ENDBRANCH  22  23
ENDBRANCH  21  22
ENDBRANCH  20  21
ENDBRANCH   1  20
BRANCH   2  25
HETATM   25  O3  UNL     1      26.746   7.765  47.935  1.00  0.00    -0.350 OA
BRANCH  25  26
HETATM   26  C6  UNL     1      27.073   9.060  48.360  1.00  0.00     0.201 C 
BRANCH  26  27
HETATM   27  C7  UNL     1      27.725   9.879  47.308  1.00  0.00     0.193 C 
BRANCH  27  28
HETATM   28  O4  UNL     1      27.818   9.358  46.053  1.00  0.00    -0.394 OA
HETATM   29  C8  UNL     1      29.091   9.110  45.586  1.00  0.00     0.201 C 
ENDBRANCH  27  28
ENDBRANCH  26  27
ENDBRANCH  25  26
ENDBRANCH   2  25
TORSDOF 8
ENDMDL
MODEL 9
REMARK VINA RESULT:      -5.8      2.477      5.285
REMARK  8 active torsions:
REMARK  status: ('A' for Active; 'I' for Inactive)
REMARK    1  A    between atoms: O1_2  and  C2_3 
REMARK    2  A    between atoms: C2_3  and  C3_4 
REMARK    3  A    between atoms: C3_4  and  O2_5 
REMARK    4  A    between atoms: O2_5  and  C4_6 
REMARK    5  A    between atoms: C5_7  and  O3_8 
REMARK    6  A    between atoms: O3_8  and  C6_9 
REMARK    7  A    between atoms: C6_9  and  C7_10 
REMARK    8  A    between atoms: C7_10  and  O4_11 
ROOT
HETATM    1  C4  UNL     1      21.410   2.975  51.360  1.00  0.00     0.100 C 
HETATM    2  C5  UNL     1      22.347   2.638  52.191  1.00  0.00     0.090 C 
HETATM    3  C9  UNL     1      23.545   2.650  53.045  1.00  0.00     0.167 C 
HETATM    4  S1  UNL     1      24.768   1.394  52.528  1.00  0.00    -0.021 SA
HETATM    5  N1  UNL     1      25.374   1.845  50.920  1.00  0.00    -0.209 NA
HETATM    6  C10 UNL     1      26.329   2.658  50.703  1.00  0.00     0.240 C 
HETATM    7  N2  UNL     1      27.078   3.260  49.709  1.00  0.00    -0.257 NA
HETATM    8  C11 UNL     1      27.078   4.382  49.164  1.00  0.00     0.095 C 
HETATM    9  C12 UNL     1      27.027   5.749  48.547  1.00  0.00     0.085 C 
HETATM   10  C13 UNL     1      26.015   6.578  49.240  1.00  0.00    -0.051 A 
HETATM   11  C14 UNL     1      26.144   7.920  49.505  1.00  0.00     0.007 A 
HETATM   12  C15 UNL     1      25.160   8.652  50.139  1.00  0.00     0.003 A 
HETATM   13  C16 UNL     1      23.969   8.097  50.560  1.00  0.00     0.029 A 
HETATM   14  C17 UNL     1      23.874   6.764  50.283  1.00  0.00     0.032 A 
HETATM   15  C18 UNL     1      24.828   6.003  49.654  1.00  0.00     0.037 A 
HETATM   16  N3  UNL     1      22.646   6.124  50.733  1.00  0.00    -0.366 N 
HETATM   17  C19 UNL     1      22.184   4.756  51.063  1.00  0.00     0.091 C 
HETATM   18  C20 UNL     1      21.146   4.175  50.599  1.00  0.00     0.056 C 
HETATM   19  H25 UNL     1      21.800   6.783  50.871  1.00  0.00     0.165 HD
ENDROOT
BRANCH   1  20
HETATM   20  O2  UNL     1      20.299   2.334  50.869  1.00  0.00    -0.346 OA
BRANCH  20  21
HETATM   21  C3  UNL     1      19.074   2.897  50.507  1.00  0.00     0.201 C 
BRANCH  21  22
HETATM   22  C2  UNL     1      18.001   1.861  50.655  1.00  0.00     0.193 C 
BRANCH  22  23
HETATM   23  O1  UNL     1      16.760   2.429  50.849  1.00  0.00    -0.394 OA
HETATM   24  C1  UNL     1      16.850   3.548  51.673  1.00  0.00     0.201 C 
ENDBRANCH  22  23
ENDBRANCH  21  22
ENDBRANCH  20  21
ENDBRANCH   1  20
BRANCH   2  25
HETATM   25  O3  UNL     1      21.615   1.419  52.243  1.00  0.00    -0.350 OA
BRANCH  25  26
HETATM   26  C6  UNL     1      21.192   0.879  53.466  1.00  0.00     0.201 C 
BRANCH  26  27
HETATM   27  C7  UNL     1      20.610  -0.481  53.342  1.00  0.00     0.193 C 
BRANCH  27  28
HETATM   28  O4  UNL     1      21.150  -1.482  54.091  1.00  0.00    -0.394 OA
HETATM   29  C8  UNL     1      22.195  -1.132  54.919  1.00  0.00     0.201 C 
ENDBRANCH  27  28
ENDBRANCH  26  27
ENDBRANCH  25  26
ENDBRANCH   2  25
TORSDOF 8
ENDMDL
