MODEL 1
REMARK VINA RESULT:      -7.4      0.000      0.000
REMARK  9 active torsions:
REMARK  status: ('A' for Active; 'I' for Inactive)
REMARK    1  A    between atoms: C2_2  and  C3_3 
REMARK    2  A    between atoms: C4_5  and  C5_6 
REMARK    3  A    between atoms: C5_6  and  N1_8 
REMARK    4  A    between atoms: C14_18  and  O1_19 
REMARK    5  A    between atoms: O1_19  and  C15_20 
REMARK    6  A    between atoms: C15_20  and  C16_21 
REMARK    7  A    between atoms: C16_21  and  C17_22 
REMARK    8  A    between atoms: C17_22  and  N4_23 
REMARK    9  A    between atoms: C22_29  and  O3_30 
ROOT
HETATM    1  N1  UNL     1      23.521   4.726  49.638  1.00  0.00    -0.327 N 
HETATM    2  C7  UNL     1      22.739   4.488  48.450  1.00  0.00     0.135 A 
HETATM    3  C8  UNL     1      22.634   5.437  47.352  1.00  0.00     0.119 C 
HETATM    4  N2  UNL     1      22.564   6.170  46.487  1.00  0.00    -0.190 NA
HETATM    5  C9  UNL     1      22.046   3.352  48.285  1.00  0.00     0.158 A 
HETATM    6  N3  UNL     1      22.020   2.296  49.246  1.00  0.00    -0.257 NA
HETATM    7  C10 UNL     1      22.702   2.451  50.331  1.00  0.00     0.096 A 
HETATM    8  C11 UNL     1      23.478   3.658  50.580  1.00  0.00     0.064 A 
HETATM    9  C12 UNL     1      24.186   3.867  51.647  1.00  0.00     0.034 A 
HETATM   10  C13 UNL     1      24.234   2.859  52.697  1.00  0.00     0.038 A 
HETATM   11  C14 UNL     1      23.518   1.745  52.478  1.00  0.00     0.081 A 
HETATM   12  C22 UNL     1      22.681   1.364  51.341  1.00  0.00     0.231 A 
ENDROOT
BRANCH   1  13
HETATM   13  C5  UNL     1      24.166   5.959  49.624  1.00  0.00     0.111 C 
HETATM   14  C6  UNL     1      23.995   6.890  50.759  1.00  0.00     0.037 C 
BRANCH  13  15
HETATM   15  C4  UNL     1      25.662   5.665  49.587  1.00  0.00     0.017 C 
HETATM   16  C3  UNL     1      26.379   6.311  48.658  1.00  0.00     0.009 C 
HETATM   17 CL1  UNL     1      25.637   7.455  47.522  1.00  0.00    -0.089 Cl
BRANCH  16  18
HETATM   18  C2  UNL     1      27.839   6.290  48.316  1.00  0.00     0.046 C 
HETATM   19  C1  UNL     1      28.194   7.448  47.401  1.00  0.00     0.011 C 
ENDBRANCH  16  18
ENDBRANCH  13  15
ENDBRANCH   1  13
BRANCH  12  20
HETATM   20  O3  UNL     1      21.378   1.033  51.699  1.00  0.00    -0.378 OA
HETATM   21  C23 UNL     1      20.828   2.143  52.341  1.00  0.00     0.203 C 
ENDBRANCH  12  20
BRANCH  11  22
HETATM   22  O1  UNL     1      23.532   0.748  53.460  1.00  0.00    -0.352 OA
BRANCH  22  23
HETATM   23  C15 UNL     1      24.263  -0.452  53.315  1.00  0.00     0.177 C 
BRANCH  23  24
HETATM   24  C16 UNL     1      25.122  -0.714  54.557  1.00  0.00     0.057 C 
BRANCH  24  25
HETATM   25  C17 UNL     1      26.203   0.333  54.558  1.00  0.00     0.274 C 
BRANCH  25  26
HETATM   26  N4  UNL     1      26.973   0.340  53.332  1.00  0.00     0.092 N 
HETATM   27  C18 UNL     1      27.401   1.691  53.049  1.00  0.00     0.298 C 
HETATM   28  C19 UNL     1      28.752   1.987  53.679  1.00  0.00     0.198 C 
HETATM   29  O2  UNL     1      28.952   1.290  54.863  1.00  0.00    -0.388 OA
HETATM   30  C20 UNL     1      29.082  -0.057  54.560  1.00  0.00     0.198 C 
HETATM   31  C21 UNL     1      28.163  -0.481  53.430  1.00  0.00     0.298 C 
ENDBRANCH  25  26
ENDBRANCH  24  25
ENDBRANCH  23  24
ENDBRANCH  22  23
ENDBRANCH  11  22
TORSDOF 9
ENDMDL
MODEL 2
REMARK VINA RESULT:      -7.3      4.698      7.678
REMARK  9 active torsions:
REMARK  status: ('A' for Active; 'I' for Inactive)
REMARK    1  A    between atoms: C2_2  and  C3_3 
REMARK    2  A    between atoms: C4_5  and  C5_6 
REMARK    3  A    between atoms: C5_6  and  N1_8 
REMARK    4  A    between atoms: C14_18  and  O1_19 
REMARK    5  A    between atoms: O1_19  and  C15_20 
REMARK    6  A    between atoms: C15_20  and  C16_21 
REMARK    7  A    between atoms: C16_21  and  C17_22 
REMARK    8  A    between atoms: C17_22  and  N4_23 
REMARK    9  A    between atoms: C22_29  and  O3_30 
ROOT
HETATM    1  N1  UNL     1      24.888   4.988  50.265  1.00  0.00    -0.327 N 
HETATM    2  C7  UNL     1      23.972   5.837  50.986  1.00  0.00     0.135 A 
HETATM    3  C8  UNL     1      22.805   5.341  51.699  1.00  0.00     0.119 C 
HETATM    4  N2  UNL     1      21.902   4.953  52.268  1.00  0.00    -0.190 NA
HETATM    5  C9  UNL     1      24.147   7.165  51.043  1.00  0.00     0.158 A 
HETATM    6  N3  UNL     1      25.232   7.847  50.410  1.00  0.00    -0.257 NA
HETATM    7  C10 UNL     1      26.085   7.139  49.750  1.00  0.00     0.096 A 
HETATM    8  C11 UNL     1      25.959   5.692  49.644  1.00  0.00     0.064 A 
HETATM    9  C12 UNL     1      26.788   4.929  49.000  1.00  0.00     0.034 A 
HETATM   10  C13 UNL     1      27.933   5.514  48.315  1.00  0.00     0.038 A 
HETATM   11  C14 UNL     1      28.054   6.848  48.403  1.00  0.00     0.081 A 
HETATM   12  C22 UNL     1      27.215   7.833  49.084  1.00  0.00     0.231 A 
ENDROOT
BRANCH   1  13
HETATM   13  C5  UNL     1      24.537   3.643  50.322  1.00  0.00     0.111 C 
HETATM   14  C6  UNL     1      23.939   2.989  49.139  1.00  0.00     0.037 C 
BRANCH  13  15
HETATM   15  C4  UNL     1      25.826   2.870  50.580  1.00  0.00     0.017 C 
HETATM   16  C3  UNL     1      25.983   2.351  51.805  1.00  0.00     0.009 C 
HETATM   17 CL1  UNL     1      24.756   2.547  53.073  1.00  0.00    -0.089 Cl
BRANCH  16  18
HETATM   18  C2  UNL     1      27.085   1.547  52.428  1.00  0.00     0.046 C 
HETATM   19  C1  UNL     1      26.806   0.061  52.297  1.00  0.00     0.011 C 
ENDBRANCH  16  18
ENDBRANCH  13  15
ENDBRANCH   1  13
BRANCH  12  20
HETATM   20  O3  UNL     1      26.761   8.847  48.247  1.00  0.00    -0.378 OA
HETATM   21  C23 UNL     1      27.249  10.054  48.750  1.00  0.00     0.203 C 
ENDBRANCH  12  20
BRANCH  11  22
HETATM   22  O1  UNL     1      29.138   7.456  47.760  1.00  0.00    -0.352 OA
BRANCH  22  23
HETATM   23  C15 UNL     1      30.477   7.229  48.147  1.00  0.00     0.177 C 
BRANCH  23  24
HETATM   24  C16 UNL     1      31.293   6.677  46.972  1.00  0.00     0.057 C 
BRANCH  24  25
HETATM   25  C17 UNL     1      32.123   5.548  47.520  1.00  0.00     0.274 C 
BRANCH  25  26
HETATM   26  N4  UNL     1      33.174   5.138  46.614  1.00  0.00     0.092 N 
HETATM   27  C18 UNL     1      34.336   4.752  47.381  1.00  0.00     0.298 C 
HETATM   28  C19 UNL     1      34.309   3.271  47.720  1.00  0.00     0.198 C 
HETATM   29  O2  UNL     1      33.017   2.785  47.880  1.00  0.00    -0.388 OA
HETATM   30  C20 UNL     1      32.392   2.792  46.643  1.00  0.00     0.198 C 
HETATM   31  C21 UNL     1      32.786   3.997  45.809  1.00  0.00     0.298 C 
ENDBRANCH  25  26
ENDBRANCH  24  25
ENDBRANCH  23  24
ENDBRANCH  22  23
ENDBRANCH  11  22
TORSDOF 9
ENDMDL
MODEL 3
REMARK VINA RESULT:      -7.0      4.244      7.385
REMARK  9 active torsions:
REMARK  status: ('A' for Active; 'I' for Inactive)
REMARK    1  A    between atoms: C2_2  and  C3_3 
REMARK    2  A    between atoms: C4_5  and  C5_6 
REMARK    3  A    between atoms: C5_6  and  N1_8 
REMARK    4  A    between atoms: C14_18  and  O1_19 
REMARK    5  A    between atoms: O1_19  and  C15_20 
REMARK    6  A    between atoms: C15_20  and  C16_21 
REMARK    7  A    between atoms: C16_21  and  C17_22 
REMARK    8  A    between atoms: C17_22  and  N4_23 
REMARK    9  A    between atoms: C22_29  and  O3_30 
ROOT
HETATM    1  N1  UNL     1      22.611   3.504  50.730  1.00  0.00    -0.327 N 
HETATM    2  C7  UNL     1      21.597   4.337  51.327  1.00  0.00     0.135 A 
HETATM    3  C8  UNL     1      20.345   3.824  51.862  1.00  0.00     0.119 C 
HETATM    4  N2  UNL     1      19.373   3.423  52.292  1.00  0.00    -0.190 NA
HETATM    5  C9  UNL     1      21.754   5.665  51.427  1.00  0.00     0.158 A 
HETATM    6  N3  UNL     1      22.911   6.362  50.964  1.00  0.00    -0.257 NA
HETATM    7  C10 UNL     1      23.854   5.668  50.419  1.00  0.00     0.096 A 
HETATM    8  C11 UNL     1      23.754   4.222  50.276  1.00  0.00     0.064 A 
HETATM    9  C12 UNL     1      24.670   3.473  49.743  1.00  0.00     0.034 A 
HETATM   10  C13 UNL     1      25.896   4.074  49.235  1.00  0.00     0.038 A 
HETATM   11  C14 UNL     1      25.994   5.407  49.358  1.00  0.00     0.081 A 
HETATM   12  C22 UNL     1      25.061   6.378  49.930  1.00  0.00     0.231 A 
ENDROOT
BRANCH   1  13
HETATM   13  C5  UNL     1      22.265   2.156  50.717  1.00  0.00     0.111 C 
HETATM   14  C6  UNL     1      22.151   1.439  49.429  1.00  0.00     0.037 C 
BRANCH  13  15
HETATM   15  C4  UNL     1      23.365   1.420  51.473  1.00  0.00     0.017 C 
HETATM   16  C3  UNL     1      22.984   0.683  52.525  1.00  0.00     0.009 C 
HETATM   17 CL1  UNL     1      21.285   0.563  53.023  1.00  0.00    -0.089 Cl
BRANCH  16  18
HETATM   18  C2  UNL     1      23.751  -0.165  53.495  1.00  0.00     0.046 C 
HETATM   19  C1  UNL     1      22.808  -0.920  54.414  1.00  0.00     0.011 C 
ENDBRANCH  16  18
ENDBRANCH  13  15
ENDBRANCH   1  13
BRANCH  12  20
HETATM   20  O3  UNL     1      24.723   7.403  49.052  1.00  0.00    -0.378 OA
HETATM   21  C23 UNL     1      25.125   8.604  49.638  1.00  0.00     0.203 C 
ENDBRANCH  12  20
BRANCH  11  22
HETATM   22  O1  UNL     1      27.154   6.030  48.883  1.00  0.00    -0.352 OA
BRANCH  22  23
HETATM   23  C15 UNL     1      28.293   5.305  48.471  1.00  0.00     0.177 C 
BRANCH  23  24
HETATM   24  C16 UNL     1      29.306   6.233  47.791  1.00  0.00     0.057 C 
BRANCH  24  25
HETATM   25  C17 UNL     1      30.462   6.376  48.744  1.00  0.00     0.274 C 
BRANCH  25  26
HETATM   26  N4  UNL     1      31.602   5.569  48.363  1.00  0.00     0.092 N 
HETATM   27  C18 UNL     1      31.804   5.680  46.936  1.00  0.00     0.298 C 
HETATM   28  C19 UNL     1      32.740   6.827  46.597  1.00  0.00     0.198 C 
HETATM   29  O2  UNL     1      32.643   7.879  47.499  1.00  0.00    -0.388 OA
HETATM   30  C20 UNL     1      33.158   7.459  48.716  1.00  0.00     0.198 C 
HETATM   31  C21 UNL     1      32.822   6.008  49.009  1.00  0.00     0.298 C 
ENDBRANCH  25  26
ENDBRANCH  24  25
ENDBRANCH  23  24
ENDBRANCH  22  23
ENDBRANCH  11  22
TORSDOF 9
ENDMDL
MODEL 4
REMARK VINA RESULT:      -6.9      4.091      7.691
REMARK  9 active torsions:
REMARK  status: ('A' for Active; 'I' for Inactive)
REMARK    1  A    between atoms: C2_2  and  C3_3 
REMARK    2  A    between atoms: C4_5  and  C5_6 
REMARK    3  A    between atoms: C5_6  and  N1_8 
REMARK    4  A    between atoms: C14_18  and  O1_19 
REMARK    5  A    between atoms: O1_19  and  C15_20 
REMARK    6  A    between atoms: C15_20  and  C16_21 
REMARK    7  A    between atoms: C16_21  and  C17_22 
REMARK    8  A    between atoms: C17_22  and  N4_23 
REMARK    9  A    between atoms: C22_29  and  O3_30 
ROOT
HETATM    1  N1  UNL     1      22.498   3.552  50.634  1.00  0.00    -0.327 N 
HETATM    2  C7  UNL     1      21.494   4.398  51.230  1.00  0.00     0.135 A 
HETATM    3  C8  UNL     1      20.211   3.909  51.711  1.00  0.00     0.119 C 
HETATM    4  N2  UNL     1      19.215   3.527  52.100  1.00  0.00    -0.190 NA
HETATM    5  C9  UNL     1      21.690   5.716  51.380  1.00  0.00     0.158 A 
HETATM    6  N3  UNL     1      22.883   6.389  50.973  1.00  0.00    -0.257 NA
HETATM    7  C10 UNL     1      23.819   5.683  50.433  1.00  0.00     0.096 A 
HETATM    8  C11 UNL     1      23.676   4.246  50.238  1.00  0.00     0.064 A 
HETATM    9  C12 UNL     1      24.584   3.485  49.706  1.00  0.00     0.034 A 
HETATM   10  C13 UNL     1      25.843   4.062  49.253  1.00  0.00     0.038 A 
HETATM   11  C14 UNL     1      25.980   5.386  49.425  1.00  0.00     0.081 A 
HETATM   12  C22 UNL     1      25.062   6.368  50.002  1.00  0.00     0.231 A 
ENDROOT
BRANCH   1  13
HETATM   13  C5  UNL     1      22.110   2.217  50.566  1.00  0.00     0.111 C 
HETATM   14  C6  UNL     1      22.122   1.514  49.266  1.00  0.00     0.037 C 
BRANCH  13  15
HETATM   15  C4  UNL     1      23.089   1.437  51.437  1.00  0.00     0.017 C 
HETATM   16  C3  UNL     1      22.558   0.593  52.331  1.00  0.00     0.009 C 
HETATM   17 CL1  UNL     1      20.804   0.385  52.504  1.00  0.00    -0.089 Cl
BRANCH  16  18
HETATM   18  C2  UNL     1      23.176  -0.328  53.341  1.00  0.00     0.046 C 
HETATM   19  C1  UNL     1      22.139  -0.802  54.344  1.00  0.00     0.011 C 
ENDBRANCH  16  18
ENDBRANCH  13  15
ENDBRANCH   1  13
BRANCH  12  20
HETATM   20  O3  UNL     1      24.782   7.431  49.150  1.00  0.00    -0.378 OA
HETATM   21  C23 UNL     1      24.225   6.898  47.987  1.00  0.00     0.203 C 
ENDBRANCH  12  20
BRANCH  11  22
HETATM   22  O1  UNL     1      27.173   5.986  49.004  1.00  0.00    -0.352 OA
BRANCH  22  23
HETATM   23  C15 UNL     1      28.237   5.249  48.440  1.00  0.00     0.177 C 
BRANCH  23  24
HETATM   24  C16 UNL     1      29.307   6.192  47.879  1.00  0.00     0.057 C 
BRANCH  24  25
HETATM   25  C17 UNL     1      28.845   7.592  48.180  1.00  0.00     0.274 C 
BRANCH  25  26
HETATM   26  N4  UNL     1      29.718   8.281  49.105  1.00  0.00     0.092 N 
HETATM   27  C18 UNL     1      31.068   8.261  48.587  1.00  0.00     0.298 C 
HETATM   28  C19 UNL     1      31.344   9.474  47.715  1.00  0.00     0.198 C 
HETATM   29  O2  UNL     1      30.211   9.919  47.046  1.00  0.00    -0.388 OA
HETATM   30  C20 UNL     1      29.333  10.449  47.980  1.00  0.00     0.198 C 
HETATM   31  C21 UNL     1      29.342   9.669  49.281  1.00  0.00     0.298 C 
ENDBRANCH  25  26
ENDBRANCH  24  25
ENDBRANCH  23  24
ENDBRANCH  22  23
ENDBRANCH  11  22
TORSDOF 9
ENDMDL
MODEL 5
REMARK VINA RESULT:      -6.9      6.118      9.927
REMARK  9 active torsions:
REMARK  status: ('A' for Active; 'I' for Inactive)
REMARK    1  A    between atoms: C2_2  and  C3_3 
REMARK    2  A    between atoms: C4_5  and  C5_6 
REMARK    3  A    between atoms: C5_6  and  N1_8 
REMARK    4  A    between atoms: C14_18  and  O1_19 
REMARK    5  A    between atoms: O1_19  and  C15_20 
REMARK    6  A    between atoms: C15_20  and  C16_21 
REMARK    7  A    between atoms: C16_21  and  C17_22 
REMARK    8  A    between atoms: C17_22  and  N4_23 
REMARK    9  A    between atoms: C22_29  and  O3_30 
ROOT
HETATM    1  N1  UNL     1      28.995   8.116  48.420  1.00  0.00    -0.327 N 
HETATM    2  C7  UNL     1      29.425   9.364  49.000  1.00  0.00     0.135 A 
HETATM    3  C8  UNL     1      28.550  10.512  49.182  1.00  0.00     0.119 C 
HETATM    4  N2  UNL     1      27.864  11.403  49.338  1.00  0.00    -0.190 NA
HETATM    5  C9  UNL     1      30.687   9.543  49.415  1.00  0.00     0.158 A 
HETATM    6  N3  UNL     1      31.699   8.539  49.324  1.00  0.00    -0.257 NA
HETATM    7  C10 UNL     1      31.373   7.400  48.813  1.00  0.00     0.096 A 
HETATM    8  C11 UNL     1      30.021   7.133  48.341  1.00  0.00     0.064 A 
HETATM    9  C12 UNL     1      29.635   6.006  47.824  1.00  0.00     0.034 A 
HETATM   10  C13 UNL     1      30.581   4.908  47.681  1.00  0.00     0.038 A 
HETATM   11  C14 UNL     1      31.831   5.148  48.110  1.00  0.00     0.081 A 
HETATM   12  C22 UNL     1      32.414   6.348  48.709  1.00  0.00     0.231 A 
ENDROOT
BRANCH   1  13
HETATM   13  C5  UNL     1      27.653   8.125  48.051  1.00  0.00     0.111 C 
HETATM   14  C6  UNL     1      27.284   8.192  46.621  1.00  0.00     0.037 C 
BRANCH  13  15
HETATM   15  C4  UNL     1      27.061   6.808  48.542  1.00  0.00     0.017 C 
HETATM   16  C3  UNL     1      26.084   6.891  49.455  1.00  0.00     0.009 C 
HETATM   17 CL1  UNL     1      25.500   8.450  50.070  1.00  0.00    -0.089 Cl
BRANCH  16  18
HETATM   18  C2  UNL     1      25.272   5.847  50.162  1.00  0.00     0.046 C 
HETATM   19  C1  UNL     1      25.239   4.558  49.361  1.00  0.00     0.011 C 
ENDBRANCH  16  18
ENDBRANCH  13  15
ENDBRANCH   1  13
BRANCH  12  20
HETATM   20  O3  UNL     1      33.537   6.814  48.033  1.00  0.00    -0.378 OA
HETATM   21  C23 UNL     1      34.648   6.544  48.832  1.00  0.00     0.203 C 
ENDBRANCH  12  20
BRANCH  11  22
HETATM   22  O1  UNL     1      32.776   4.123  47.993  1.00  0.00    -0.352 OA
BRANCH  22  23
HETATM   23  C15 UNL     1      32.869   3.300  46.849  1.00  0.00     0.177 C 
BRANCH  23  24
HETATM   24  C16 UNL     1      34.268   3.394  46.228  1.00  0.00     0.057 C 
BRANCH  24  25
HETATM   25  C17 UNL     1      34.313   4.694  45.471  1.00  0.00     0.274 C 
BRANCH  25  26
HETATM   26  N4  UNL     1      33.177   4.865  44.590  1.00  0.00     0.092 N 
HETATM   27  C18 UNL     1      32.702   6.227  44.690  1.00  0.00     0.298 C 
HETATM   28  C19 UNL     1      33.387   7.127  43.675  1.00  0.00     0.198 C 
HETATM   29  O2  UNL     1      34.687   6.726  43.399  1.00  0.00    -0.388 OA
HETATM   30  C20 UNL     1      34.636   5.526  42.706  1.00  0.00     0.198 C 
HETATM   31  C21 UNL     1      33.520   4.626  43.203  1.00  0.00     0.298 C 
ENDBRANCH  25  26
ENDBRANCH  24  25
ENDBRANCH  23  24
ENDBRANCH  22  23
ENDBRANCH  11  22
TORSDOF 9
ENDMDL
MODEL 6
REMARK VINA RESULT:      -6.7      4.421      6.811
REMARK  9 active torsions:
REMARK  status: ('A' for Active; 'I' for Inactive)
REMARK    1  A    between atoms: C2_2  and  C3_3 
REMARK    2  A    between atoms: C4_5  and  C5_6 
REMARK    3  A    between atoms: C5_6  and  N1_8 
REMARK    4  A    between atoms: C14_18  and  O1_19 
REMARK    5  A    between atoms: O1_19  and  C15_20 
REMARK    6  A    between atoms: C15_20  and  C16_21 
REMARK    7  A    between atoms: C16_21  and  C17_22 
REMARK    8  A    between atoms: C17_22  and  N4_23 
REMARK    9  A    between atoms: C22_29  and  O3_30 
ROOT
HETATM    1  N1  UNL     1      30.386   7.465  48.053  1.00  0.00    -0.327 N 
HETATM    2  C7  UNL     1      30.349   8.901  47.934  1.00  0.00     0.135 A 
HETATM    3  C8  UNL     1      31.524   9.718  47.670  1.00  0.00     0.119 C 
HETATM    4  N2  UNL     1      32.437  10.356  47.449  1.00  0.00    -0.190 NA
HETATM    5  C9  UNL     1      29.202   9.583  48.064  1.00  0.00     0.158 A 
HETATM    6  N3  UNL     1      27.940   8.967  48.325  1.00  0.00    -0.257 NA
HETATM    7  C10 UNL     1      27.911   7.681  48.441  1.00  0.00     0.096 A 
HETATM    8  C11 UNL     1      29.116   6.874  48.312  1.00  0.00     0.064 A 
HETATM    9  C12 UNL     1      29.147   5.581  48.413  1.00  0.00     0.034 A 
HETATM   10  C13 UNL     1      27.919   4.843  48.678  1.00  0.00     0.038 A 
HETATM   11  C14 UNL     1      26.804   5.580  48.803  1.00  0.00     0.081 A 
HETATM   12  C22 UNL     1      26.608   7.027  48.715  1.00  0.00     0.231 A 
ENDROOT
BRANCH   1  13
HETATM   13  C5  UNL     1      31.665   6.941  47.888  1.00  0.00     0.111 C 
HETATM   14  C6  UNL     1      32.507   6.673  49.073  1.00  0.00     0.037 C 
BRANCH  13  15
HETATM   15  C4  UNL     1      31.493   5.581  47.220  1.00  0.00     0.017 C 
HETATM   16  C3  UNL     1      32.522   5.137  46.486  1.00  0.00     0.009 C 
HETATM   17 CL1  UNL     1      34.016   6.076  46.294  1.00  0.00    -0.089 Cl
BRANCH  16  18
HETATM   18  C2  UNL     1      32.729   3.879  45.695  1.00  0.00     0.046 C 
HETATM   19  C1  UNL     1      32.435   2.655  46.544  1.00  0.00     0.011 C 
ENDBRANCH  16  18
ENDBRANCH  13  15
ENDBRANCH   1  13
BRANCH  12  20
HETATM   20  O3  UNL     1      25.996   7.571  49.839  1.00  0.00    -0.378 OA
HETATM   21  C23 UNL     1      24.793   8.143  49.423  1.00  0.00     0.203 C 
ENDBRANCH  12  20
BRANCH  11  22
HETATM   22  O1  UNL     1      25.599   4.915  49.059  1.00  0.00    -0.352 OA
BRANCH  22  23
HETATM   23  C15 UNL     1      25.541   3.541  49.382  1.00  0.00     0.177 C 
BRANCH  23  24
HETATM   24  C16 UNL     1      25.547   3.344  50.901  1.00  0.00     0.057 C 
BRANCH  24  25
HETATM   25  C17 UNL     1      26.505   2.218  51.183  1.00  0.00     0.274 C 
BRANCH  25  26
HETATM   26  N4  UNL     1      26.111   1.423  52.326  1.00  0.00     0.092 N 
HETATM   27  C18 UNL     1      26.783   0.145  52.268  1.00  0.00     0.298 C 
HETATM   28  C19 UNL     1      28.117   0.187  52.994  1.00  0.00     0.198 C 
HETATM   29  O2  UNL     1      28.718   1.437  52.931  1.00  0.00    -0.388 OA
HETATM   30  C20 UNL     1      27.967   2.321  53.691  1.00  0.00     0.198 C 
HETATM   31  C21 UNL     1      26.479   2.050  53.580  1.00  0.00     0.298 C 
ENDBRANCH  25  26
ENDBRANCH  24  25
ENDBRANCH  23  24
ENDBRANCH  22  23
ENDBRANCH  11  22
TORSDOF 9
ENDMDL
MODEL 7
REMARK VINA RESULT:      -6.6      2.571      4.011
REMARK  9 active torsions:
REMARK  status: ('A' for Active; 'I' for Inactive)
REMARK    1  A    between atoms: C2_2  and  C3_3 
REMARK    2  A    between atoms: C4_5  and  C5_6 
REMARK    3  A    between atoms: C5_6  and  N1_8 
REMARK    4  A    between atoms: C14_18  and  O1_19 
REMARK    5  A    between atoms: O1_19  and  C15_20 
REMARK    6  A    between atoms: C15_20  and  C16_21 
REMARK    7  A    between atoms: C16_21  and  C17_22 
REMARK    8  A    between atoms: C17_22  and  N4_23 
REMARK    9  A    between atoms: C22_29  and  O3_30 
ROOT
HETATM    1  N1  UNL     1      26.508   7.410  49.069  1.00  0.00    -0.327 N 
HETATM    2  C7  UNL     1      25.821   8.616  49.456  1.00  0.00     0.135 A 
HETATM    3  C8  UNL     1      26.275   9.952  49.100  1.00  0.00     0.119 C 
HETATM    4  N2  UNL     1      26.621  10.994  48.811  1.00  0.00    -0.190 NA
HETATM    5  C9  UNL     1      24.695   8.577  50.184  1.00  0.00     0.158 A 
HETATM    6  N3  UNL     1      24.086   7.365  50.632  1.00  0.00    -0.257 NA
HETATM    7  C10 UNL     1      24.656   6.251  50.316  1.00  0.00     0.096 A 
HETATM    8  C11 UNL     1      25.881   6.216  49.528  1.00  0.00     0.064 A 
HETATM    9  C12 UNL     1      26.495   5.128  49.176  1.00  0.00     0.034 A 
HETATM   10  C13 UNL     1      25.965   3.832  49.576  1.00  0.00     0.038 A 
HETATM   11  C14 UNL     1      24.839   3.855  50.307  1.00  0.00     0.081 A 
HETATM   12  C22 UNL     1      24.037   4.985  50.777  1.00  0.00     0.231 A 
ENDROOT
BRANCH   1  13
HETATM   13  C5  UNL     1      27.654   7.657  48.319  1.00  0.00     0.111 C 
HETATM   14  C6  UNL     1      28.761   6.676  48.325  1.00  0.00     0.037 C 
BRANCH  13  15
HETATM   15  C4  UNL     1      27.211   7.730  46.862  1.00  0.00     0.017 C 
HETATM   16  C3  UNL     1      27.857   8.604  46.079  1.00  0.00     0.009 C 
HETATM   17 CL1  UNL     1      29.166   9.631  46.697  1.00  0.00    -0.089 Cl
BRANCH  16  18
HETATM   18  C2  UNL     1      27.714   8.959  44.629  1.00  0.00     0.046 C 
HETATM   19  C1  UNL     1      26.425   8.392  44.061  1.00  0.00     0.011 C 
ENDBRANCH  16  18
ENDBRANCH  13  15
ENDBRANCH   1  13
BRANCH  12  20
HETATM   20  O3  UNL     1      23.844   4.990  52.155  1.00  0.00    -0.378 OA
HETATM   21  C23 UNL     1      22.472   4.878  52.384  1.00  0.00     0.203 C 
ENDBRANCH  12  20
BRANCH  11  22
HETATM   22  O1  UNL     1      24.293   2.633  50.716  1.00  0.00    -0.352 OA
BRANCH  22  23
HETATM   23  C15 UNL     1      24.685   1.986  51.908  1.00  0.00     0.177 C 
BRANCH  23  24
HETATM   24  C16 UNL     1      25.561   0.767  51.597  1.00  0.00     0.057 C 
BRANCH  24  25
HETATM   25  C17 UNL     1      26.901   1.032  52.229  1.00  0.00     0.274 C 
BRANCH  25  26
HETATM   26  N4  UNL     1      27.525  -0.172  52.737  1.00  0.00     0.092 N 
HETATM   27  C18 UNL     1      28.771   0.177  53.381  1.00  0.00     0.298 C 
HETATM   28  C19 UNL     1      28.568   0.470  54.858  1.00  0.00     0.198 C 
HETATM   29  O2  UNL     1      27.321   1.019  55.125  1.00  0.00    -0.388 OA
HETATM   30  C20 UNL     1      26.359   0.044  54.907  1.00  0.00     0.198 C 
HETATM   31  C21 UNL     1      26.700  -0.841  53.723  1.00  0.00     0.298 C 
ENDBRANCH  25  26
ENDBRANCH  24  25
ENDBRANCH  23  24
ENDBRANCH  22  23
ENDBRANCH  11  22
TORSDOF 9
ENDMDL
MODEL 8
REMARK VINA RESULT:      -6.6      3.916      7.182
REMARK  9 active torsions:
REMARK  status: ('A' for Active; 'I' for Inactive)
REMARK    1  A    between atoms: C2_2  and  C3_3 
REMARK    2  A    between atoms: C4_5  and  C5_6 
REMARK    3  A    between atoms: C5_6  and  N1_8 
REMARK    4  A    between atoms: C14_18  and  O1_19 
REMARK    5  A    between atoms: O1_19  and  C15_20 
REMARK    6  A    between atoms: C15_20  and  C16_21 
REMARK    7  A    between atoms: C16_21  and  C17_22 
REMARK    8  A    between atoms: C17_22  and  N4_23 
REMARK    9  A    between atoms: C22_29  and  O3_30 
ROOT
HETATM    1  N1  UNL     1      23.120   4.159  50.563  1.00  0.00    -0.327 N 
HETATM    2  C7  UNL     1      22.012   4.795  51.231  1.00  0.00     0.135 A 
HETATM    3  C8  UNL     1      20.884   4.068  51.792  1.00  0.00     0.119 C 
HETATM    4  N2  UNL     1      20.010   3.500  52.243  1.00  0.00    -0.190 NA
HETATM    5  C9  UNL     1      21.956   6.127  51.378  1.00  0.00     0.158 A 
HETATM    6  N3  UNL     1      22.965   7.018  50.898  1.00  0.00    -0.257 NA
HETATM    7  C10 UNL     1      23.982   6.506  50.291  1.00  0.00     0.096 A 
HETATM    8  C11 UNL     1      24.111   5.068  50.095  1.00  0.00     0.064 A 
HETATM    9  C12 UNL     1      25.112   4.497  49.499  1.00  0.00     0.034 A 
HETATM   10  C13 UNL     1      26.201   5.306  48.968  1.00  0.00     0.038 A 
HETATM   11  C14 UNL     1      26.088   6.632  49.140  1.00  0.00     0.081 A 
HETATM   12  C22 UNL     1      25.036   7.419  49.785  1.00  0.00     0.231 A 
ENDROOT
BRANCH   1  13
HETATM   13  C5  UNL     1      22.996   2.774  50.511  1.00  0.00     0.111 C 
HETATM   14  C6  UNL     1      22.781   2.104  49.210  1.00  0.00     0.037 C 
BRANCH  13  15
HETATM   15  C4  UNL     1      24.312   2.202  51.027  1.00  0.00     0.017 C 
HETATM   16  C3  UNL     1      24.233   1.325  52.036  1.00  0.00     0.009 C 
HETATM   17 CL1  UNL     1      22.679   0.844  52.746  1.00  0.00    -0.089 Cl
BRANCH  16  18
HETATM   18  C2  UNL     1      25.278   0.563  52.796  1.00  0.00     0.046 C 
HETATM   19  C1  UNL     1      26.555   0.446  51.984  1.00  0.00     0.011 C 
ENDBRANCH  16  18
ENDBRANCH  13  15
ENDBRANCH   1  13
BRANCH  12  20
HETATM   20  O3  UNL     1      24.498   8.402  48.961  1.00  0.00    -0.378 OA
HETATM   21  C23 UNL     1      24.004   7.767  47.821  1.00  0.00     0.203 C 
ENDBRANCH  12  20
BRANCH  11  22
HETATM   22  O1  UNL     1      27.110   7.451  48.646  1.00  0.00    -0.352 OA
BRANCH  22  23
HETATM   23  C15 UNL     1      27.622   8.550  49.371  1.00  0.00     0.177 C 
BRANCH  23  24
HETATM   24  C16 UNL     1      28.847   9.139  48.662  1.00  0.00     0.057 C 
BRANCH  24  25
HETATM   25  C17 UNL     1      30.032   8.329  49.111  1.00  0.00     0.274 C 
BRANCH  25  26
HETATM   26  N4  UNL     1      30.884   7.930  48.011  1.00  0.00     0.092 N 
HETATM   27  C18 UNL     1      32.145   7.457  48.536  1.00  0.00     0.298 C 
HETATM   28  C19 UNL     1      32.107   5.961  48.802  1.00  0.00     0.198 C 
HETATM   29  O2  UNL     1      30.843   5.517  49.168  1.00  0.00    -0.388 OA
HETATM   30  C20 UNL     1      30.009   5.618  48.066  1.00  0.00     0.198 C 
HETATM   31  C21 UNL     1      30.305   6.853  47.235  1.00  0.00     0.298 C 
ENDBRANCH  25  26
ENDBRANCH  24  25
ENDBRANCH  23  24
ENDBRANCH  22  23
ENDBRANCH  11  22
TORSDOF 9
ENDMDL
MODEL 9
REMARK VINA RESULT:      -6.6      4.956      7.766
REMARK  9 active torsions:
REMARK  status: ('A' for Active; 'I' for Inactive)
REMARK    1  A    between atoms: C2_2  and  C3_3 
REMARK    2  A    between atoms: C4_5  and  C5_6 
REMARK    3  A    between atoms: C5_6  and  N1_8 
REMARK    4  A    between atoms: C14_18  and  O1_19 
REMARK    5  A    between atoms: O1_19  and  C15_20 
REMARK    6  A    between atoms: C15_20  and  C16_21 
REMARK    7  A    between atoms: C16_21  and  C17_22 
REMARK    8  A    between atoms: C17_22  and  N4_23 
REMARK    9  A    between atoms: C22_29  and  O3_30 
ROOT
HETATM    1  N1  UNL     1      17.688  -0.309  52.088  1.00  0.00    -0.327 N 
HETATM    2  C7  UNL     1      17.195  -1.493  52.746  1.00  0.00     0.135 A 
HETATM    3  C8  UNL     1      15.836  -1.992  52.597  1.00  0.00     0.119 C 
HETATM    4  N2  UNL     1      14.781  -2.389  52.469  1.00  0.00    -0.190 NA
HETATM    5  C9  UNL     1      17.980  -2.222  53.553  1.00  0.00     0.158 A 
HETATM    6  N3  UNL     1      19.344  -1.901  53.829  1.00  0.00    -0.257 NA
HETATM    7  C10 UNL     1      19.842  -0.851  53.268  1.00  0.00     0.096 A 
HETATM    8  C11 UNL     1      19.050  -0.012  52.379  1.00  0.00     0.064 A 
HETATM    9  C12 UNL     1      19.497   1.051  51.784  1.00  0.00     0.034 A 
HETATM   10  C13 UNL     1      20.875   1.476  51.991  1.00  0.00     0.038 A 
HETATM   11  C14 UNL     1      21.611   0.710  52.812  1.00  0.00     0.081 A 
HETATM   12  C22 UNL     1      21.257  -0.504  53.548  1.00  0.00     0.231 A 
ENDROOT
BRANCH   1  13
HETATM   13  C5  UNL     1      16.726   0.309  51.295  1.00  0.00     0.111 C 
HETATM   14  C6  UNL     1      16.699   1.783  51.188  1.00  0.00     0.037 C 
BRANCH  13  15
HETATM   15  C4  UNL     1      16.963  -0.177  49.869  1.00  0.00     0.017 C 
HETATM   16  C3  UNL     1      15.876  -0.475  49.146  1.00  0.00     0.009 C 
HETATM   17 CL1  UNL     1      14.235  -0.316  49.804  1.00  0.00    -0.089 Cl
BRANCH  16  18
HETATM   18  C2  UNL     1      15.702  -0.971  47.741  1.00  0.00     0.046 C 
HETATM   19  C1  UNL     1      15.579  -2.484  47.716  1.00  0.00     0.011 C 
ENDBRANCH  16  18
ENDBRANCH  13  15
ENDBRANCH   1  13
BRANCH  12  20
HETATM   20  O3  UNL     1      21.492  -0.409  54.916  1.00  0.00    -0.378 OA
HETATM   21  C23 UNL     1      22.494  -1.327  55.231  1.00  0.00     0.203 C 
ENDBRANCH  12  20
BRANCH  11  22
HETATM   22  O1  UNL     1      22.941   1.079  53.042  1.00  0.00    -0.352 OA
BRANCH  22  23
HETATM   23  C15 UNL     1      23.650   1.948  52.184  1.00  0.00     0.177 C 
BRANCH  23  24
HETATM   24  C16 UNL     1      24.660   2.784  52.978  1.00  0.00     0.057 C 
BRANCH  24  25
HETATM   25  C17 UNL     1      25.639   1.813  53.581  1.00  0.00     0.274 C 
BRANCH  25  26
HETATM   26  N4  UNL     1      26.782   1.571  52.728  1.00  0.00     0.092 N 
HETATM   27  C18 UNL     1      27.988   1.638  53.523  1.00  0.00     0.298 C 
HETATM   28  C19 UNL     1      28.357   0.276  54.086  1.00  0.00     0.198 C 
HETATM   29  O2  UNL     1      27.243  -0.513  54.343  1.00  0.00    -0.388 OA
HETATM   30  C20 UNL     1      26.669  -0.866  53.132  1.00  0.00     0.198 C 
HETATM   31  C21 UNL     1      26.739   0.259  52.116  1.00  0.00     0.298 C 
ENDBRANCH  25  26
ENDBRANCH  24  25
ENDBRANCH  23  24
ENDBRANCH  22  23
ENDBRANCH  11  22
TORSDOF 9
ENDMDL
