MODEL 1
REMARK VINA RESULT:      -7.3      0.000      0.000
REMARK  5 active torsions:
REMARK  status: ('A' for Active; 'I' for Inactive)
REMARK    1  A    between atoms: C3_3  and  C4_4 
REMARK       I    between atoms: C4_4  and  N1_6 
REMARK    2  A    between atoms: N1_6  and  C5_7 
REMARK    3  A    between atoms: C8_10  and  N2_11 
REMARK    4  A    between atoms: N2_11  and  C9_12 
REMARK    5  A    between atoms: C9_12  and  C10_13 
ROOT
HETATM    1  C5  UNL     1      24.547  -0.435  53.623  1.00  0.00     0.132 A 
HETATM    2  C6  UNL     1      24.977   0.469  52.659  1.00  0.00     0.068 A 
HETATM    3  C7  UNL     1      26.256   0.825  53.025  1.00  0.00     0.043 A 
HETATM    4  C8  UNL     1      26.996   1.712  52.291  1.00  0.00     0.138 C 
HETATM    5  N3  UNL     1      28.083   2.371  52.731  1.00  0.00    -0.224 NA
HETATM    6  C12 UNL     1      28.918   2.083  53.772  1.00  0.00     0.235 C 
HETATM    7  N4  UNL     1      28.819   1.096  54.700  1.00  0.00    -0.252 NA
HETATM    8  C13 UNL     1      27.805   0.220  54.906  1.00  0.00     0.150 C 
HETATM    9  C14 UNL     1      26.597   0.109  54.247  1.00  0.00     0.090 A 
HETATM   10  N5  UNL     1      25.525  -0.615  54.531  1.00  0.00    -0.229 NA
ENDROOT
BRANCH   1  11
HETATM   11  N1  UNL     1      23.274  -1.067  53.644  1.00  0.00    -0.308 N 
HETATM   12  C4  UNL     1      22.075  -0.302  53.676  1.00  0.00     0.246 C 
HETATM   13  O1  UNL     1      22.236   0.945  53.683  1.00  0.00    -0.268 OA
HETATM   14  H6  UNL     1      23.198  -2.107  53.638  1.00  0.00     0.170 HD
BRANCH  12  15
HETATM   15  C3  UNL     1      20.747  -0.933  53.699  1.00  0.00     0.070 C 
HETATM   16  C2  UNL     1      19.633  -0.454  53.187  1.00  0.00    -0.026 C 
HETATM   17  C1  UNL     1      18.324  -1.184  53.267  1.00  0.00     0.036 C 
ENDBRANCH  12  15
ENDBRANCH   1  11
BRANCH   4  18
HETATM   18  N2  UNL     1      26.622   1.992  50.948  1.00  0.00    -0.371 N 
HETATM   19  H8  UNL     1      26.571   1.277  50.210  1.00  0.00     0.161 HD
BRANCH  18  20
HETATM   20  C9  UNL     1      26.281   3.353  50.547  1.00  0.00     0.149 C 
BRANCH  20  21
HETATM   21  C10 UNL     1      24.822   3.599  50.554  1.00  0.00    -0.000 C 
HETATM   22  C11 UNL     1      24.135   3.901  51.653  1.00  0.00     0.053 C 
HETATM   23 BR1  UNL     1      22.247   4.207  51.580  1.00  0.00    -0.064 Br
ENDBRANCH  20  21
ENDBRANCH  18  20
ENDBRANCH   4  18
TORSDOF 5
ENDMDL
MODEL 2
REMARK VINA RESULT:      -7.2      2.192      4.949
REMARK  5 active torsions:
REMARK  status: ('A' for Active; 'I' for Inactive)
REMARK    1  A    between atoms: C3_3  and  C4_4 
REMARK       I    between atoms: C4_4  and  N1_6 
REMARK    2  A    between atoms: N1_6  and  C5_7 
REMARK    3  A    between atoms: C8_10  and  N2_11 
REMARK    4  A    between atoms: N2_11  and  C9_12 
REMARK    5  A    between atoms: C9_12  and  C10_13 
ROOT
HETATM    1  C5  UNL     1      26.253   2.288  51.071  1.00  0.00     0.132 A 
HETATM    2  C6  UNL     1      25.915   1.072  51.653  1.00  0.00     0.068 A 
HETATM    3  C7  UNL     1      26.781   0.912  52.711  1.00  0.00     0.043 A 
HETATM    4  C8  UNL     1      26.735  -0.191  53.521  1.00  0.00     0.138 C 
HETATM    5  N3  UNL     1      27.722  -0.600  54.339  1.00  0.00    -0.224 NA
HETATM    6  C12 UNL     1      28.774   0.099  54.855  1.00  0.00     0.235 C 
HETATM    7  N4  UNL     1      29.155   1.379  54.607  1.00  0.00    -0.252 NA
HETATM    8  C13 UNL     1      28.664   2.251  53.693  1.00  0.00     0.150 C 
HETATM    9  C14 UNL     1      27.664   2.070  52.759  1.00  0.00     0.090 A 
HETATM   10  N5  UNL     1      27.280   2.835  51.749  1.00  0.00    -0.229 NA
ENDROOT
BRANCH   1  11
HETATM   11  N1  UNL     1      25.615   2.860  49.937  1.00  0.00    -0.308 N 
HETATM   12  C4  UNL     1      24.553   3.795  50.085  1.00  0.00     0.246 C 
HETATM   13  O1  UNL     1      24.239   4.063  51.274  1.00  0.00    -0.268 OA
HETATM   14  H6  UNL     1      25.915   2.600  48.973  1.00  0.00     0.170 HD
BRANCH  12  15
HETATM   15  C3  UNL     1      23.877   4.399  48.928  1.00  0.00     0.070 C 
HETATM   16  C2  UNL     1      22.820   3.933  48.296  1.00  0.00    -0.026 C 
HETATM   17  C1  UNL     1      22.206   4.632  47.119  1.00  0.00     0.036 C 
ENDBRANCH  12  15
ENDBRANCH   1  11
BRANCH   4  18
HETATM   18  N2  UNL     1      25.566  -1.002  53.531  1.00  0.00    -0.371 N 
HETATM   19  H8  UNL     1      25.397  -1.767  52.866  1.00  0.00     0.161 HD
BRANCH  18  20
HETATM   20  C9  UNL     1      24.520  -0.772  54.523  1.00  0.00     0.149 C 
BRANCH  20  21
HETATM   21  C10 UNL     1      23.202  -0.505  53.908  1.00  0.00    -0.000 C 
HETATM   22  C11 UNL     1      22.046  -0.688  54.543  1.00  0.00     0.053 C 
HETATM   23 BR1  UNL     1      20.380  -0.318  53.677  1.00  0.00    -0.064 Br
ENDBRANCH  20  21
ENDBRANCH  18  20
ENDBRANCH   4  18
TORSDOF 5
ENDMDL
MODEL 3
REMARK VINA RESULT:      -7.2      2.671      5.838
REMARK  5 active torsions:
REMARK  status: ('A' for Active; 'I' for Inactive)
REMARK    1  A    between atoms: C3_3  and  C4_4 
REMARK       I    between atoms: C4_4  and  N1_6 
REMARK    2  A    between atoms: N1_6  and  C5_7 
REMARK    3  A    between atoms: C8_10  and  N2_11 
REMARK    4  A    between atoms: N2_11  and  C9_12 
REMARK    5  A    between atoms: C9_12  and  C10_13 
ROOT
HETATM    1  C5  UNL     1      26.719   2.559  51.828  1.00  0.00     0.132 A 
HETATM    2  C6  UNL     1      26.108   1.324  52.012  1.00  0.00     0.068 A 
HETATM    3  C7  UNL     1      27.043   0.536  52.645  1.00  0.00     0.043 A 
HETATM    4  C8  UNL     1      26.780  -0.763  52.987  1.00  0.00     0.138 C 
HETATM    5  N3  UNL     1      27.704  -1.694  53.283  1.00  0.00    -0.224 NA
HETATM    6  C12 UNL     1      28.999  -1.542  53.685  1.00  0.00     0.235 C 
HETATM    7  N4  UNL     1      29.729  -0.403  53.808  1.00  0.00    -0.252 NA
HETATM    8  C13 UNL     1      29.400   0.862  53.448  1.00  0.00     0.150 C 
HETATM    9  C14 UNL     1      28.250   1.328  52.842  1.00  0.00     0.090 A 
HETATM   10  N5  UNL     1      27.969   2.515  52.327  1.00  0.00    -0.229 NA
ENDROOT
BRANCH   1  11
HETATM   11  N1  UNL     1      26.117   3.686  51.208  1.00  0.00    -0.308 N 
HETATM   12  C4  UNL     1      26.353   3.986  49.837  1.00  0.00     0.246 C 
HETATM   13  O1  UNL     1      27.121   3.187  49.241  1.00  0.00    -0.268 OA
HETATM   14  H6  UNL     1      25.488   4.317  51.750  1.00  0.00     0.170 HD
BRANCH  12  15
HETATM   15  C3  UNL     1      25.742   5.147  49.174  1.00  0.00     0.070 C 
HETATM   16  C2  UNL     1      26.370   6.154  48.603  1.00  0.00    -0.026 C 
HETATM   17  C1  UNL     1      25.645   7.295  47.952  1.00  0.00     0.036 C 
ENDBRANCH  12  15
ENDBRANCH   1  11
BRANCH   4  18
HETATM   18  N2  UNL     1      25.430  -1.210  53.048  1.00  0.00    -0.371 N 
HETATM   19  H8  UNL     1      24.984  -1.776  52.315  1.00  0.00     0.161 HD
BRANCH  18  20
HETATM   20  C9  UNL     1      24.594  -0.871  54.195  1.00  0.00     0.149 C 
BRANCH  20  21
HETATM   21  C10 UNL     1      23.244  -0.414  53.799  1.00  0.00    -0.000 C 
HETATM   22  C11 UNL     1      22.132  -0.776  54.435  1.00  0.00     0.053 C 
HETATM   23 BR1  UNL     1      20.420  -0.141  53.860  1.00  0.00    -0.064 Br
ENDBRANCH  20  21
ENDBRANCH  18  20
ENDBRANCH   4  18
TORSDOF 5
ENDMDL
MODEL 4
REMARK VINA RESULT:      -7.2      3.027      6.961
REMARK  5 active torsions:
REMARK  status: ('A' for Active; 'I' for Inactive)
REMARK    1  A    between atoms: C3_3  and  C4_4 
REMARK       I    between atoms: C4_4  and  N1_6 
REMARK    2  A    between atoms: N1_6  and  C5_7 
REMARK    3  A    between atoms: C8_10  and  N2_11 
REMARK    4  A    between atoms: N2_11  and  C9_12 
REMARK    5  A    between atoms: C9_12  and  C10_13 
ROOT
HETATM    1  C5  UNL     1      24.179   3.224  51.739  1.00  0.00     0.132 A 
HETATM    2  C6  UNL     1      24.521   2.060  52.416  1.00  0.00     0.068 A 
HETATM    3  C7  UNL     1      23.329   1.474  52.778  1.00  0.00     0.043 A 
HETATM    4  C8  UNL     1      23.285   0.293  53.470  1.00  0.00     0.138 C 
HETATM    5  N3  UNL     1      22.223  -0.172  54.152  1.00  0.00    -0.224 NA
HETATM    6  C12 UNL     1      20.902   0.149  54.035  1.00  0.00     0.235 C 
HETATM    7  N4  UNL     1      20.316   1.094  53.255  1.00  0.00    -0.252 NA
HETATM    8  C13 UNL     1      20.901   2.043  52.484  1.00  0.00     0.150 C 
HETATM    9  C14 UNL     1      22.242   2.318  52.301  1.00  0.00     0.090 A 
HETATM   10  N5  UNL     1      22.837   3.335  51.696  1.00  0.00    -0.229 NA
ENDROOT
BRANCH   1  11
HETATM   11  N1  UNL     1      25.101   4.150  51.182  1.00  0.00    -0.308 N 
HETATM   12  C4  UNL     1      25.385   4.158  49.788  1.00  0.00     0.246 C 
HETATM   13  O1  UNL     1      24.764   3.297  49.112  1.00  0.00    -0.268 OA
HETATM   14  H6  UNL     1      25.590   4.843  51.790  1.00  0.00     0.170 HD
BRANCH  12  15
HETATM   15  C3  UNL     1      26.336   5.106  49.190  1.00  0.00     0.070 C 
HETATM   16  C2  UNL     1      27.552   4.842  48.760  1.00  0.00    -0.026 C 
HETATM   17  C1  UNL     1      28.445   5.890  48.162  1.00  0.00     0.036 C 
ENDBRANCH  12  15
ENDBRANCH   1  11
BRANCH   4  18
HETATM   18  N2  UNL     1      24.436  -0.543  53.497  1.00  0.00    -0.371 N 
HETATM   19  H8  UNL     1      24.816  -1.017  52.668  1.00  0.00     0.161 HD
BRANCH  18  20
HETATM   20  C9  UNL     1      25.150  -0.771  54.750  1.00  0.00     0.149 C 
BRANCH  20  21
HETATM   21  C10 UNL     1      26.398   0.018  54.843  1.00  0.00    -0.000 C 
HETATM   22  C11 UNL     1      27.338   0.017  53.900  1.00  0.00     0.053 C 
HETATM   23 BR1  UNL     1      28.926   1.067  54.096  1.00  0.00    -0.064 Br
ENDBRANCH  20  21
ENDBRANCH  18  20
ENDBRANCH   4  18
TORSDOF 5
ENDMDL
MODEL 5
REMARK VINA RESULT:      -7.0      2.435      5.931
REMARK  5 active torsions:
REMARK  status: ('A' for Active; 'I' for Inactive)
REMARK    1  A    between atoms: C3_3  and  C4_4 
REMARK       I    between atoms: C4_4  and  N1_6 
REMARK    2  A    between atoms: N1_6  and  C5_7 
REMARK    3  A    between atoms: C8_10  and  N2_11 
REMARK    4  A    between atoms: N2_11  and  C9_12 
REMARK    5  A    between atoms: C9_12  and  C10_13 
ROOT
HETATM    1  C5  UNL     1      24.685  -0.267  53.446  1.00  0.00     0.132 A 
HETATM    2  C6  UNL     1      24.184   0.677  52.557  1.00  0.00     0.068 A 
HETATM    3  C7  UNL     1      22.821   0.686  52.753  1.00  0.00     0.043 A 
HETATM    4  C8  UNL     1      21.995   1.510  52.036  1.00  0.00     0.138 C 
HETATM    5  N3  UNL     1      20.665   1.357  51.906  1.00  0.00    -0.224 NA
HETATM    6  C12 UNL     1      19.785   0.663  52.684  1.00  0.00     0.235 C 
HETATM    7  N4  UNL     1      20.033  -0.134  53.754  1.00  0.00    -0.252 NA
HETATM    8  C13 UNL     1      21.226  -0.546  54.250  1.00  0.00     0.150 C 
HETATM    9  C14 UNL     1      22.502  -0.284  53.792  1.00  0.00     0.090 A 
HETATM   10  N5  UNL     1      23.668  -0.803  54.146  1.00  0.00    -0.229 NA
ENDROOT
BRANCH   1  11
HETATM   11  N1  UNL     1      26.057  -0.610  53.590  1.00  0.00    -0.308 N 
HETATM   12  C4  UNL     1      26.939   0.195  54.364  1.00  0.00     0.246 C 
HETATM   13  O1  UNL     1      26.412   1.208  54.894  1.00  0.00    -0.268 OA
HETATM   14  H6  UNL     1      26.442  -1.461  53.127  1.00  0.00     0.170 HD
BRANCH  12  15
HETATM   15  C3  UNL     1      28.361  -0.139  54.526  1.00  0.00     0.070 C 
HETATM   16  C2  UNL     1      29.132  -0.761  53.658  1.00  0.00    -0.026 C 
HETATM   17  C1  UNL     1      30.580  -1.054  53.926  1.00  0.00     0.036 C 
ENDBRANCH  12  15
ENDBRANCH   1  11
BRANCH   4  18
HETATM   18  N2  UNL     1      22.545   2.633  51.358  1.00  0.00    -0.371 N 
HETATM   19  H8  UNL     1      22.925   3.458  51.838  1.00  0.00     0.161 HD
BRANCH  18  20
HETATM   20  C9  UNL     1      22.594   2.660  49.899  1.00  0.00     0.149 C 
BRANCH  20  21
HETATM   21  C10 UNL     1      23.910   3.093  49.382  1.00  0.00    -0.000 C 
HETATM   22  C11 UNL     1      24.942   3.393  50.167  1.00  0.00     0.053 C 
HETATM   23 BR1  UNL     1      26.616   3.946  49.421  1.00  0.00    -0.064 Br
ENDBRANCH  20  21
ENDBRANCH  18  20
ENDBRANCH   4  18
TORSDOF 5
ENDMDL
MODEL 6
REMARK VINA RESULT:      -6.8      3.259      6.114
REMARK  5 active torsions:
REMARK  status: ('A' for Active; 'I' for Inactive)
REMARK    1  A    between atoms: C3_3  and  C4_4 
REMARK       I    between atoms: C4_4  and  N1_6 
REMARK    2  A    between atoms: N1_6  and  C5_7 
REMARK    3  A    between atoms: C8_10  and  N2_11 
REMARK    4  A    between atoms: N2_11  and  C9_12 
REMARK    5  A    between atoms: C9_12  and  C10_13 
ROOT
HETATM    1  C5  UNL     1      25.090   1.715  52.296  1.00  0.00     0.132 A 
HETATM    2  C6  UNL     1      24.870   3.079  52.138  1.00  0.00     0.068 A 
HETATM    3  C7  UNL     1      23.505   3.248  52.220  1.00  0.00     0.043 A 
HETATM    4  C8  UNL     1      22.924   4.482  52.106  1.00  0.00     0.138 C 
HETATM    5  N3  UNL     1      21.626   4.710  51.833  1.00  0.00    -0.224 NA
HETATM    6  C12 UNL     1      20.546   3.888  51.976  1.00  0.00     0.235 C 
HETATM    7  N4  UNL     1      20.508   2.584  52.352  1.00  0.00    -0.252 NA
HETATM    8  C13 UNL     1      21.537   1.727  52.562  1.00  0.00     0.150 C 
HETATM    9  C14 UNL     1      22.895   1.942  52.433  1.00  0.00     0.090 A 
HETATM   10  N5  UNL     1      23.909   1.091  52.464  1.00  0.00    -0.229 NA
ENDROOT
BRANCH   1  11
HETATM   11  N1  UNL     1      26.362   1.083  52.279  1.00  0.00    -0.308 N 
HETATM   12  C4  UNL     1      27.203   1.094  53.427  1.00  0.00     0.246 C 
HETATM   13  O1  UNL     1      26.733   1.694  54.428  1.00  0.00    -0.268 OA
HETATM   14  H6  UNL     1      26.703   0.600  51.421  1.00  0.00     0.170 HD
BRANCH  12  15
HETATM   15  C3  UNL     1      28.523   0.448  53.434  1.00  0.00     0.070 C 
HETATM   16  C2  UNL     1      28.790  -0.807  53.733  1.00  0.00    -0.026 C 
HETATM   17  C1  UNL     1      30.182  -1.367  53.709  1.00  0.00     0.036 C 
ENDBRANCH  12  15
ENDBRANCH   1  11
BRANCH   4  18
HETATM   18  N2  UNL     1      23.718   5.648  52.285  1.00  0.00    -0.371 N 
HETATM   19  H8  UNL     1      24.172   5.899  53.173  1.00  0.00     0.161 HD
BRANCH  18  20
HETATM   20  C9  UNL     1      23.931   6.571  51.174  1.00  0.00     0.149 C 
BRANCH  20  21
HETATM   21  C10 UNL     1      25.000   6.118  50.256  1.00  0.00    -0.000 C 
HETATM   22  C11 UNL     1      25.872   6.944  49.683  1.00  0.00     0.053 C 
HETATM   23 BR1  UNL     1      27.227   6.280  48.506  1.00  0.00    -0.064 Br
ENDBRANCH  20  21
ENDBRANCH  18  20
ENDBRANCH   4  18
TORSDOF 5
ENDMDL
MODEL 7
REMARK VINA RESULT:      -6.7      2.641      6.378
REMARK  5 active torsions:
REMARK  status: ('A' for Active; 'I' for Inactive)
REMARK    1  A    between atoms: C3_3  and  C4_4 
REMARK       I    between atoms: C4_4  and  N1_6 
REMARK    2  A    between atoms: N1_6  and  C5_7 
REMARK    3  A    between atoms: C8_10  and  N2_11 
REMARK    4  A    between atoms: N2_11  and  C9_12 
REMARK    5  A    between atoms: C9_12  and  C10_13 
ROOT
HETATM    1  C5  UNL     1      25.471   2.874  51.989  1.00  0.00     0.132 A 
HETATM    2  C6  UNL     1      24.276   2.167  52.037  1.00  0.00     0.068 A 
HETATM    3  C7  UNL     1      24.443   1.217  53.019  1.00  0.00     0.043 A 
HETATM    4  C8  UNL     1      23.451   0.330  53.342  1.00  0.00     0.138 C 
HETATM    5  N3  UNL     1      23.624  -0.820  54.018  1.00  0.00    -0.224 NA
HETATM    6  C12 UNL     1      24.641  -1.204  54.842  1.00  0.00     0.235 C 
HETATM    7  N4  UNL     1      25.799  -0.558  55.130  1.00  0.00    -0.252 NA
HETATM    8  C13 UNL     1      26.301   0.576  54.582  1.00  0.00     0.150 C 
HETATM    9  C14 UNL     1      25.783   1.364  53.573  1.00  0.00     0.090 A 
HETATM   10  N5  UNL     1      26.322   2.370  52.903  1.00  0.00    -0.229 NA
ENDROOT
BRANCH   1  11
HETATM   11  N1  UNL     1      25.749   3.957  51.111  1.00  0.00    -0.308 N 
HETATM   12  C4  UNL     1      26.493   3.761  49.914  1.00  0.00     0.246 C 
HETATM   13  O1  UNL     1      26.871   2.579  49.708  1.00  0.00    -0.268 OA
HETATM   14  H6  UNL     1      25.411   4.919  51.332  1.00  0.00     0.170 HD
BRANCH  12  15
HETATM   15  C3  UNL     1      26.792   4.866  48.992  1.00  0.00     0.070 C 
HETATM   16  C2  UNL     1      27.984   5.307  48.646  1.00  0.00    -0.026 C 
HETATM   17  C1  UNL     1      28.179   6.448  47.691  1.00  0.00     0.036 C 
ENDBRANCH  12  15
ENDBRANCH   1  11
BRANCH   4  18
HETATM   18  N2  UNL     1      22.112   0.608  52.951  1.00  0.00    -0.371 N 
HETATM   19  H8  UNL     1      21.855   1.000  52.036  1.00  0.00     0.161 HD
BRANCH  18  20
HETATM   20  C9  UNL     1      21.007   0.336  53.866  1.00  0.00     0.149 C 
BRANCH  20  21
HETATM   21  C10 UNL     1      19.787  -0.119  53.164  1.00  0.00    -0.000 C 
HETATM   22  C11 UNL     1      19.301   0.478  52.078  1.00  0.00     0.053 C 
HETATM   23 BR1  UNL     1      17.715  -0.172  51.226  1.00  0.00    -0.064 Br
ENDBRANCH  20  21
ENDBRANCH  18  20
ENDBRANCH   4  18
TORSDOF 5
ENDMDL
MODEL 8
REMARK VINA RESULT:      -6.6      2.971      5.540
REMARK  5 active torsions:
REMARK  status: ('A' for Active; 'I' for Inactive)
REMARK    1  A    between atoms: C3_3  and  C4_4 
REMARK       I    between atoms: C4_4  and  N1_6 
REMARK    2  A    between atoms: N1_6  and  C5_7 
REMARK    3  A    between atoms: C8_10  and  N2_11 
REMARK    4  A    between atoms: N2_11  and  C9_12 
REMARK    5  A    between atoms: C9_12  and  C10_13 
ROOT
HETATM    1  C5  UNL     1      23.588   2.519  51.494  1.00  0.00     0.132 A 
HETATM    2  C6  UNL     1      23.314   1.226  51.924  1.00  0.00     0.068 A 
HETATM    3  C7  UNL     1      24.242   0.955  52.904  1.00  0.00     0.043 A 
HETATM    4  C8  UNL     1      24.270  -0.247  53.560  1.00  0.00     0.138 C 
HETATM    5  N3  UNL     1      25.311  -0.728  54.262  1.00  0.00    -0.224 NA
HETATM    6  C12 UNL     1      26.372  -0.069  54.812  1.00  0.00     0.235 C 
HETATM    7  N4  UNL     1      26.706   1.244  54.719  1.00  0.00    -0.252 NA
HETATM    8  C13 UNL     1      26.142   2.213  53.958  1.00  0.00     0.150 C 
HETATM    9  C14 UNL     1      25.096   2.125  53.061  1.00  0.00     0.090 A 
HETATM   10  N5  UNL     1      24.636   3.005  52.184  1.00  0.00    -0.229 NA
ENDROOT
BRANCH   1  11
HETATM   11  N1  UNL     1      22.872   3.215  50.482  1.00  0.00    -0.308 N 
HETATM   12  C4  UNL     1      23.500   3.584  49.260  1.00  0.00     0.246 C 
HETATM   13  O1  UNL     1      24.708   3.250  49.157  1.00  0.00    -0.268 OA
HETATM   14  H6  UNL     1      21.870   3.468  50.620  1.00  0.00     0.170 HD
BRANCH  12  15
HETATM   15  C3  UNL     1      22.780   4.304  48.200  1.00  0.00     0.070 C 
HETATM   16  C2  UNL     1      22.149   3.777  47.171  1.00  0.00    -0.026 C 
HETATM   17  C1  UNL     1      21.443   4.608  46.141  1.00  0.00     0.036 C 
ENDBRANCH  12  15
ENDBRANCH   1  11
BRANCH   4  18
HETATM   18  N2  UNL     1      23.124  -1.090  53.522  1.00  0.00    -0.371 N 
HETATM   19  H8  UNL     1      22.866  -1.664  52.709  1.00  0.00     0.161 HD
BRANCH  18  20
HETATM   20  C9  UNL     1      22.237  -1.177  54.678  1.00  0.00     0.149 C 
BRANCH  20  21
HETATM   21  C10 UNL     1      20.838  -1.474  54.299  1.00  0.00    -0.000 C 
HETATM   22  C11 UNL     1      20.084  -0.648  53.578  1.00  0.00     0.053 C 
HETATM   23 BR1  UNL     1      18.280  -1.104  53.127  1.00  0.00    -0.064 Br
ENDBRANCH  20  21
ENDBRANCH  18  20
ENDBRANCH   4  18
TORSDOF 5
ENDMDL
MODEL 9
REMARK VINA RESULT:      -6.5      3.062      6.450
REMARK  5 active torsions:
REMARK  status: ('A' for Active; 'I' for Inactive)
REMARK    1  A    between atoms: C3_3  and  C4_4 
REMARK       I    between atoms: C4_4  and  N1_6 
REMARK    2  A    between atoms: N1_6  and  C5_7 
REMARK    3  A    between atoms: C8_10  and  N2_11 
REMARK    4  A    between atoms: N2_11  and  C9_12 
REMARK    5  A    between atoms: C9_12  and  C10_13 
ROOT
HETATM    1  C5  UNL     1      25.221   1.972  51.808  1.00  0.00     0.132 A 
HETATM    2  C6  UNL     1      23.844   1.806  51.898  1.00  0.00     0.068 A 
HETATM    3  C7  UNL     1      23.297   3.008  51.508  1.00  0.00     0.043 A 
HETATM    4  C8  UNL     1      21.943   3.208  51.474  1.00  0.00     0.138 C 
HETATM    5  N3  UNL     1      21.332   4.406  51.445  1.00  0.00    -0.224 NA
HETATM    6  C12 UNL     1      21.818   5.625  51.070  1.00  0.00     0.235 C 
HETATM    7  N4  UNL     1      23.081   5.968  50.709  1.00  0.00    -0.252 NA
HETATM    8  C13 UNL     1      24.210   5.219  50.745  1.00  0.00     0.150 C 
HETATM    9  C14 UNL     1      24.385   3.919  51.176  1.00  0.00     0.090 A 
HETATM   10  N5  UNL     1      25.491   3.221  51.383  1.00  0.00    -0.229 NA
ENDROOT
BRANCH   1  11
HETATM   11  N1  UNL     1      26.188   0.978  52.117  1.00  0.00    -0.308 N 
HETATM   12  C4  UNL     1      26.782   0.907  53.409  1.00  0.00     0.246 C 
HETATM   13  O1  UNL     1      26.385   1.777  54.227  1.00  0.00    -0.268 OA
HETATM   14  H6  UNL     1      26.482   0.282  51.399  1.00  0.00     0.170 HD
BRANCH  12  15
HETATM   15  C3  UNL     1      27.784  -0.111  53.752  1.00  0.00     0.070 C 
HETATM   16  C2  UNL     1      29.046  -0.138  53.377  1.00  0.00    -0.026 C 
HETATM   17  C1  UNL     1      29.990  -1.231  53.786  1.00  0.00     0.036 C 
ENDBRANCH  12  15
ENDBRANCH   1  11
BRANCH   4  18
HETATM   18  N2  UNL     1      21.071   2.083  51.468  1.00  0.00    -0.371 N 
HETATM   19  H8  UNL     1      21.040   1.390  50.709  1.00  0.00     0.161 HD
BRANCH  18  20
HETATM   20  C9  UNL     1      20.151   1.860  52.579  1.00  0.00     0.149 C 
BRANCH  20  21
HETATM   21  C10 UNL     1      20.662   0.866  53.548  1.00  0.00    -0.000 C 
HETATM   22  C11 UNL     1      21.070  -0.353  53.201  1.00  0.00     0.053 C 
HETATM   23 BR1  UNL     1      21.719  -1.583  54.516  1.00  0.00    -0.064 Br
ENDBRANCH  20  21
ENDBRANCH  18  20
ENDBRANCH   4  18
TORSDOF 5
ENDMDL
