MODEL 1
REMARK VINA RESULT:      -7.2      0.000      0.000
REMARK  4 active torsions:
REMARK  status: ('A' for Active; 'I' for Inactive)
REMARK    1  A    between atoms: O1_2  and  C2_3 
REMARK    2  A    between atoms: C2_3  and  C3_4 
REMARK    3  A    between atoms: C3_4  and  O2_5 
REMARK    4  A    between atoms: O2_5  and  C4_6 
ROOT
HETATM    1  C4  UNL     1      24.219   3.839  49.333  1.00  0.00     0.102 A 
HETATM    2  C5  UNL     1      24.330   3.004  50.413  1.00  0.00     0.052 A 
HETATM    3  C6  UNL     1      23.420   2.052  50.683  1.00  0.00    -0.018 A 
HETATM    4  C7  UNL     1      22.293   1.701  50.008  1.00  0.00    -0.027 A 
HETATM    5  C8  UNL     1      22.181   2.558  48.919  1.00  0.00     0.049 A 
HETATM    6  C9  UNL     1      23.047   3.574  48.569  1.00  0.00     0.102 A 
HETATM    7  O3  UNL     1      22.842   4.456  47.460  1.00  0.00    -0.346 OA
HETATM    8  C10 UNL     1      21.709   5.401  47.712  1.00  0.00     0.202 C 
HETATM    9  C11 UNL     1      22.009   6.098  49.021  1.00  0.00     0.194 C 
HETATM   10  O4  UNL     1      21.050   7.003  49.466  1.00  0.00    -0.385 OA
HETATM   11  C12 UNL     1      21.516   7.368  50.833  1.00  0.00     0.195 C 
HETATM   12  C13 UNL     1      21.667   5.973  51.396  1.00  0.00    -0.000 C 
HETATM   13  C14 UNL     1      22.607   5.213  51.885  1.00  0.00     0.004 C 
HETATM   14  C15 UNL     1      22.516   3.812  52.363  1.00  0.00    -0.066 C 
HETATM   15  C16 UNL     1      21.063   3.556  52.309  1.00  0.00     0.048 C 
HETATM   16  C17 UNL     1      23.793   3.509  52.660  1.00  0.00    -0.015 C 
HETATM   17  C18 UNL     1      24.098   2.077  53.120  1.00  0.00     0.068 C 
HETATM   18  C19 UNL     1      23.298   1.313  51.982  1.00  0.00    -0.029 C 
HETATM   19  C20 UNL     1      22.473   0.478  52.528  1.00  0.00     0.091 C 
HETATM   20  N1  UNL     1      21.536   0.036  51.512  1.00  0.00    -0.394 N 
HETATM   21  C21 UNL     1      21.294   0.657  50.246  1.00  0.00     0.158 C 
HETATM   22  H25 UNL     1      20.958  -0.826  51.696  1.00  0.00     0.159 HD
ENDROOT
BRANCH   1  23
HETATM   23  O2  UNL     1      24.976   4.827  48.838  1.00  0.00    -0.346 OA
BRANCH  23  24
HETATM   24  C3  UNL     1      25.761   5.813  49.336  1.00  0.00     0.201 C 
BRANCH  24  25
HETATM   25  C2  UNL     1      26.974   6.161  48.546  1.00  0.00     0.193 C 
BRANCH  25  26
HETATM   26  O1  UNL     1      27.857   5.073  48.583  1.00  0.00    -0.394 OA
HETATM   27  C1  UNL     1      29.141   5.483  48.208  1.00  0.00     0.201 C 
ENDBRANCH  25  26
ENDBRANCH  24  25
ENDBRANCH  23  24
ENDBRANCH   1  23
TORSDOF 4
ENDMDL
MODEL 2
REMARK VINA RESULT:      -7.1      2.969      5.931
REMARK  4 active torsions:
REMARK  status: ('A' for Active; 'I' for Inactive)
REMARK    1  A    between atoms: O1_2  and  C2_3 
REMARK    2  A    between atoms: C2_3  and  C3_4 
REMARK    3  A    between atoms: C3_4  and  O2_5 
REMARK    4  A    between atoms: O2_5  and  C4_6 
ROOT
HETATM    1  C4  UNL     1      23.070   3.548  52.239  1.00  0.00     0.102 A 
HETATM    2  C5  UNL     1      24.030   4.357  51.690  1.00  0.00     0.052 A 
HETATM    3  C6  UNL     1      23.739   5.551  51.145  1.00  0.00    -0.018 A 
HETATM    4  C7  UNL     1      22.547   6.196  51.035  1.00  0.00    -0.027 A 
HETATM    5  C8  UNL     1      21.577   5.367  51.585  1.00  0.00     0.049 A 
HETATM    6  C9  UNL     1      21.771   4.122  52.148  1.00  0.00     0.102 A 
HETATM    7  O3  UNL     1      20.714   3.295  52.649  1.00  0.00    -0.346 OA
HETATM    8  C10 UNL     1      19.870   2.750  51.540  1.00  0.00     0.202 C 
HETATM    9  C11 UNL     1      20.811   2.053  50.582  1.00  0.00     0.194 C 
HETATM   10  O4  UNL     1      20.229   1.502  49.444  1.00  0.00    -0.385 OA
HETATM   11  C12 UNL     1      21.395   1.073  48.623  1.00  0.00     0.195 C 
HETATM   12  C13 UNL     1      22.154   2.381  48.616  1.00  0.00    -0.000 C 
HETATM   13  C14 UNL     1      23.310   2.841  49.007  1.00  0.00     0.004 C 
HETATM   14  C15 UNL     1      23.839   4.223  48.916  1.00  0.00    -0.066 C 
HETATM   15  C16 UNL     1      22.802   4.905  48.117  1.00  0.00     0.048 C 
HETATM   16  C17 UNL     1      25.021   4.139  49.554  1.00  0.00    -0.015 C 
HETATM   17  C18 UNL     1      25.832   5.430  49.730  1.00  0.00     0.068 C 
HETATM   18  C19 UNL     1      24.655   6.349  50.266  1.00  0.00    -0.029 C 
HETATM   19  C20 UNL     1      24.584   7.418  49.538  1.00  0.00     0.091 C 
HETATM   20  N1  UNL     1      23.323   8.078  49.823  1.00  0.00    -0.394 N 
HETATM   21  C21 UNL     1      22.189   7.504  50.480  1.00  0.00     0.158 C 
HETATM   22  H25 UNL     1      23.198   9.081  49.527  1.00  0.00     0.159 HD
ENDROOT
BRANCH   1  23
HETATM   23  O2  UNL     1      23.096   2.356  52.849  1.00  0.00    -0.346 OA
BRANCH  23  24
HETATM   24  C3  UNL     1      23.704   1.160  52.656  1.00  0.00     0.201 C 
BRANCH  24  25
HETATM   25  C2  UNL     1      23.034  -0.030  53.249  1.00  0.00     0.193 C 
BRANCH  25  26
HETATM   26  O1  UNL     1      21.900   0.400  53.951  1.00  0.00    -0.394 OA
HETATM   27  C1  UNL     1      21.409  -0.636  54.753  1.00  0.00     0.201 C 
ENDBRANCH  25  26
ENDBRANCH  24  25
ENDBRANCH  23  24
ENDBRANCH   1  23
TORSDOF 4
ENDMDL
MODEL 3
REMARK VINA RESULT:      -6.9      2.359      3.672
REMARK  4 active torsions:
REMARK  status: ('A' for Active; 'I' for Inactive)
REMARK    1  A    between atoms: O1_2  and  C2_3 
REMARK    2  A    between atoms: C2_3  and  C3_4 
REMARK    3  A    between atoms: C3_4  and  O2_5 
REMARK    4  A    between atoms: O2_5  and  C4_6 
ROOT
HETATM    1  C4  UNL     1      23.877   2.683  51.267  1.00  0.00     0.102 A 
HETATM    2  C5  UNL     1      22.562   2.345  51.448  1.00  0.00     0.052 A 
HETATM    3  C6  UNL     1      21.701   2.229  50.423  1.00  0.00    -0.018 A 
HETATM    4  C7  UNL     1      21.904   2.379  49.087  1.00  0.00    -0.027 A 
HETATM    5  C8  UNL     1      23.238   2.729  48.910  1.00  0.00     0.049 A 
HETATM    6  C9  UNL     1      24.191   2.893  49.894  1.00  0.00     0.102 A 
HETATM    7  O3  UNL     1      25.539   3.309  49.645  1.00  0.00    -0.346 OA
HETATM    8  C10 UNL     1      25.602   4.747  49.234  1.00  0.00     0.202 C 
HETATM    9  C11 UNL     1      24.891   5.536  50.311  1.00  0.00     0.194 C 
HETATM   10  O4  UNL     1      24.800   6.909  50.104  1.00  0.00    -0.385 OA
HETATM   11  C12 UNL     1      23.902   7.373  51.198  1.00  0.00     0.195 C 
HETATM   12  C13 UNL     1      22.753   6.420  50.961  1.00  0.00    -0.000 C 
HETATM   13  C14 UNL     1      22.120   5.475  51.600  1.00  0.00     0.004 C 
HETATM   14  C15 UNL     1      20.998   4.626  51.131  1.00  0.00    -0.066 C 
HETATM   15  C16 UNL     1      20.666   5.235  49.828  1.00  0.00     0.048 C 
HETATM   16  C17 UNL     1      20.814   3.773  52.155  1.00  0.00    -0.015 C 
HETATM   17  C18 UNL     1      19.761   2.670  51.985  1.00  0.00     0.068 C 
HETATM   18  C19 UNL     1      20.208   2.169  50.548  1.00  0.00    -0.029 C 
HETATM   19  C20 UNL     1      19.185   2.184  49.754  1.00  0.00     0.091 C 
HETATM   20  N1  UNL     1      19.666   2.045  48.391  1.00  0.00    -0.394 N 
HETATM   21  C21 UNL     1      21.009   2.232  47.937  1.00  0.00     0.158 C 
HETATM   22  H25 UNL     1      18.979   1.780  47.636  1.00  0.00     0.159 HD
ENDROOT
BRANCH   1  23
HETATM   23  O2  UNL     1      24.921   2.838  52.092  1.00  0.00    -0.346 OA
BRANCH  23  24
HETATM   24  C3  UNL     1      25.219   2.527  53.377  1.00  0.00     0.201 C 
BRANCH  24  25
HETATM   25  C2  UNL     1      26.427   1.685  53.595  1.00  0.00     0.193 C 
BRANCH  25  26
HETATM   26  O1  UNL     1      27.399   2.459  54.244  1.00  0.00    -0.394 OA
HETATM   27  C1  UNL     1      28.617   2.372  53.563  1.00  0.00     0.201 C 
ENDBRANCH  25  26
ENDBRANCH  24  25
ENDBRANCH  23  24
ENDBRANCH   1  23
TORSDOF 4
ENDMDL
MODEL 4
REMARK VINA RESULT:      -6.8      5.649     10.681
REMARK  4 active torsions:
REMARK  status: ('A' for Active; 'I' for Inactive)
REMARK    1  A    between atoms: O1_2  and  C2_3 
REMARK    2  A    between atoms: C2_3  and  C3_4 
REMARK    3  A    between atoms: C3_4  and  O2_5 
REMARK    4  A    between atoms: O2_5  and  C4_6 
ROOT
HETATM    1  C4  UNL     1      30.987   6.733  48.002  1.00  0.00     0.102 A 
HETATM    2  C5  UNL     1      31.384   5.425  47.920  1.00  0.00     0.052 A 
HETATM    3  C6  UNL     1      32.633   5.032  48.224  1.00  0.00    -0.018 A 
HETATM    4  C7  UNL     1      33.696   5.755  48.667  1.00  0.00    -0.027 A 
HETATM    5  C8  UNL     1      33.289   7.083  48.740  1.00  0.00     0.049 A 
HETATM    6  C9  UNL     1      32.042   7.587  48.431  1.00  0.00     0.102 A 
HETATM    7  O3  UNL     1      31.705   8.978  48.478  1.00  0.00    -0.346 OA
HETATM    8  C10 UNL     1      32.374   9.742  47.378  1.00  0.00     0.202 C 
HETATM    9  C11 UNL     1      32.005   9.050  46.084  1.00  0.00     0.194 C 
HETATM   10  O4  UNL     1      32.560   9.583  44.925  1.00  0.00    -0.385 OA
HETATM   11  C12 UNL     1      32.186   8.602  43.869  1.00  0.00     0.195 C 
HETATM   12  C13 UNL     1      32.704   7.349  44.539  1.00  0.00    -0.000 C 
HETATM   13  C14 UNL     1      32.239   6.211  44.976  1.00  0.00     0.004 C 
HETATM   14  C15 UNL     1      32.965   5.108  45.650  1.00  0.00    -0.066 C 
HETATM   15  C16 UNL     1      34.371   5.546  45.545  1.00  0.00     0.048 C 
HETATM   16  C17 UNL     1      31.982   4.243  45.961  1.00  0.00    -0.015 C 
HETATM   17  C18 UNL     1      32.361   2.988  46.759  1.00  0.00     0.068 C 
HETATM   18  C19 UNL     1      33.232   3.701  47.876  1.00  0.00    -0.029 C 
HETATM   19  C20 UNL     1      34.397   3.138  47.934  1.00  0.00     0.091 C 
HETATM   20  N1  UNL     1      35.277   3.993  48.709  1.00  0.00    -0.394 N 
HETATM   21  C21 UNL     1      35.058   5.368  49.039  1.00  0.00     0.158 C 
HETATM   22  H25 UNL     1      36.177   3.590  49.080  1.00  0.00     0.159 HD
ENDROOT
BRANCH   1  23
HETATM   23  O2  UNL     1      29.828   7.369  47.784  1.00  0.00    -0.346 OA
BRANCH  23  24
HETATM   24  C3  UNL     1      28.574   7.032  47.399  1.00  0.00     0.201 C 
BRANCH  24  25
HETATM   25  C2  UNL     1      27.710   6.392  48.429  1.00  0.00     0.193 C 
BRANCH  25  26
HETATM   26  O1  UNL     1      27.911   5.006  48.380  1.00  0.00    -0.394 OA
HETATM   27  C1  UNL     1      26.942   4.352  49.149  1.00  0.00     0.201 C 
ENDBRANCH  25  26
ENDBRANCH  24  25
ENDBRANCH  23  24
ENDBRANCH   1  23
TORSDOF 4
ENDMDL
MODEL 5
REMARK VINA RESULT:      -6.7      2.696      5.878
REMARK  4 active torsions:
REMARK  status: ('A' for Active; 'I' for Inactive)
REMARK    1  A    between atoms: O1_2  and  C2_3 
REMARK    2  A    between atoms: C2_3  and  C3_4 
REMARK    3  A    between atoms: C3_4  and  O2_5 
REMARK    4  A    between atoms: O2_5  and  C4_6 
ROOT
HETATM    1  C4  UNL     1      19.789   3.679  50.688  1.00  0.00     0.102 A 
HETATM    2  C5  UNL     1      20.588   2.825  51.401  1.00  0.00     0.052 A 
HETATM    3  C6  UNL     1      21.736   3.225  51.975  1.00  0.00    -0.018 A 
HETATM    4  C7  UNL     1      22.317   4.455  52.008  1.00  0.00    -0.027 A 
HETATM    5  C8  UNL     1      21.505   5.314  51.276  1.00  0.00     0.049 A 
HETATM    6  C9  UNL     1      20.325   4.996  50.636  1.00  0.00     0.102 A 
HETATM    7  O3  UNL     1      19.564   5.922  49.851  1.00  0.00    -0.346 OA
HETATM    8  C10 UNL     1      20.261   6.259  48.570  1.00  0.00     0.202 C 
HETATM    9  C11 UNL     1      20.557   4.946  47.880  1.00  0.00     0.194 C 
HETATM   10  O4  UNL     1      21.245   5.030  46.673  1.00  0.00    -0.385 OA
HETATM   11  C12 UNL     1      21.554   3.611  46.342  1.00  0.00     0.195 C 
HETATM   12  C13 UNL     1      22.210   3.218  47.647  1.00  0.00    -0.000 C 
HETATM   13  C14 UNL     1      22.021   2.366  48.617  1.00  0.00     0.004 C 
HETATM   14  C15 UNL     1      22.813   2.180  49.857  1.00  0.00    -0.066 C 
HETATM   15  C16 UNL     1      23.963   3.078  49.634  1.00  0.00     0.048 C 
HETATM   16  C17 UNL     1      22.114   1.244  50.525  1.00  0.00    -0.015 C 
HETATM   17  C18 UNL     1      22.605   0.850  51.925  1.00  0.00     0.068 C 
HETATM   18  C19 UNL     1      22.807   2.315  52.500  1.00  0.00    -0.029 C 
HETATM   19  C20 UNL     1      24.010   2.430  52.964  1.00  0.00     0.091 C 
HETATM   20  N1  UNL     1      24.282   3.839  53.178  1.00  0.00    -0.394 N 
HETATM   21  C21 UNL     1      23.543   4.942  52.644  1.00  0.00     0.158 C 
HETATM   22  H25 UNL     1      25.100   4.111  53.784  1.00  0.00     0.159 HD
ENDROOT
BRANCH   1  23
HETATM   23  O2  UNL     1      18.617   3.544  50.053  1.00  0.00    -0.346 OA
BRANCH  23  24
HETATM   24  C3  UNL     1      17.343   3.226  50.388  1.00  0.00     0.201 C 
BRANCH  24  25
HETATM   25  C2  UNL     1      16.536   4.300  51.030  1.00  0.00     0.193 C 
BRANCH  25  26
HETATM   26  O1  UNL     1      16.604   4.138  52.421  1.00  0.00    -0.394 OA
HETATM   27  C1  UNL     1      15.316   4.100  52.965  1.00  0.00     0.201 C 
ENDBRANCH  25  26
ENDBRANCH  24  25
ENDBRANCH  23  24
ENDBRANCH   1  23
TORSDOF 4
ENDMDL
MODEL 6
REMARK VINA RESULT:      -6.5      7.247     10.201
REMARK  4 active torsions:
REMARK  status: ('A' for Active; 'I' for Inactive)
REMARK    1  A    between atoms: O1_2  and  C2_3 
REMARK    2  A    between atoms: C2_3  and  C3_4 
REMARK    3  A    between atoms: C3_4  and  O2_5 
REMARK    4  A    between atoms: O2_5  and  C4_6 
ROOT
HETATM    1  C4  UNL     1      32.642   7.000  47.966  1.00  0.00     0.102 A 
HETATM    2  C5  UNL     1      31.661   7.779  48.518  1.00  0.00     0.052 A 
HETATM    3  C6  UNL     1      30.388   7.362  48.629  1.00  0.00    -0.018 A 
HETATM    4  C7  UNL     1      29.821   6.176  48.280  1.00  0.00    -0.027 A 
HETATM    5  C8  UNL     1      30.820   5.393  47.713  1.00  0.00     0.049 A 
HETATM    6  C9  UNL     1      32.144   5.737  47.536  1.00  0.00     0.102 A 
HETATM    7  O3  UNL     1      33.112   4.899  46.893  1.00  0.00    -0.346 OA
HETATM    8  C10 UNL     1      32.859   4.799  45.421  1.00  0.00     0.202 C 
HETATM    9  C11 UNL     1      32.806   6.216  44.893  1.00  0.00     0.194 C 
HETATM   10  O4  UNL     1      32.539   6.353  43.534  1.00  0.00    -0.385 OA
HETATM   11  C12 UNL     1      32.359   7.821  43.356  1.00  0.00     0.195 C 
HETATM   12  C13 UNL     1      31.323   8.049  44.433  1.00  0.00    -0.000 C 
HETATM   13  C14 UNL     1      31.196   8.733  45.537  1.00  0.00     0.004 C 
HETATM   14  C15 UNL     1      30.050   8.774  46.477  1.00  0.00    -0.066 C 
HETATM   15  C16 UNL     1      29.027   7.986  45.762  1.00  0.00     0.048 C 
HETATM   16  C17 UNL     1      30.503   9.557  47.473  1.00  0.00    -0.015 C 
HETATM   17  C18 UNL     1      29.592   9.762  48.692  1.00  0.00     0.068 C 
HETATM   18  C19 UNL     1      29.210   8.241  48.930  1.00  0.00    -0.029 C 
HETATM   19  C20 UNL     1      27.921   8.125  48.967  1.00  0.00     0.091 C 
HETATM   20  N1  UNL     1      27.588   6.717  48.855  1.00  0.00    -0.394 N 
HETATM   21  C21 UNL     1      28.454   5.668  48.410  1.00  0.00     0.158 C 
HETATM   22  H25 UNL     1      26.618   6.403  49.121  1.00  0.00     0.159 HD
ENDROOT
BRANCH   1  23
HETATM   23  O2  UNL     1      33.956   7.163  47.763  1.00  0.00    -0.346 OA
BRANCH  23  24
HETATM   24  C3  UNL     1      34.829   8.199  47.728  1.00  0.00     0.201 C 
BRANCH  24  25
HETATM   25  C2  UNL     1      34.571   9.253  46.710  1.00  0.00     0.193 C 
BRANCH  25  26
HETATM   26  O1  UNL     1      35.706   9.375  45.896  1.00  0.00    -0.394 OA
HETATM   27  C1  UNL     1      35.332   9.751  44.601  1.00  0.00     0.201 C 
ENDBRANCH  25  26
ENDBRANCH  24  25
ENDBRANCH  23  24
ENDBRANCH   1  23
TORSDOF 4
ENDMDL
MODEL 7
REMARK VINA RESULT:      -6.5      2.858      5.245
REMARK  4 active torsions:
REMARK  status: ('A' for Active; 'I' for Inactive)
REMARK    1  A    between atoms: O1_2  and  C2_3 
REMARK    2  A    between atoms: C2_3  and  C3_4 
REMARK    3  A    between atoms: C3_4  and  O2_5 
REMARK    4  A    between atoms: O2_5  and  C4_6 
ROOT
HETATM    1  C4  UNL     1      21.887   4.061  48.029  1.00  0.00     0.102 A 
HETATM    2  C5  UNL     1      22.499   5.254  48.306  1.00  0.00     0.052 A 
HETATM    3  C6  UNL     1      23.713   5.324  48.879  1.00  0.00    -0.018 A 
HETATM    4  C7  UNL     1      24.559   4.331  49.264  1.00  0.00    -0.027 A 
HETATM    5  C8  UNL     1      23.928   3.123  48.988  1.00  0.00     0.049 A 
HETATM    6  C9  UNL     1      22.682   2.947  48.424  1.00  0.00     0.102 A 
HETATM    7  O3  UNL     1      22.068   1.670  48.216  1.00  0.00    -0.346 OA
HETATM    8  C10 UNL     1      21.657   1.041  49.511  1.00  0.00     0.202 C 
HETATM    9  C11 UNL     1      20.783   2.049  50.224  1.00  0.00     0.194 C 
HETATM   10  O4  UNL     1      20.319   1.676  51.481  1.00  0.00    -0.385 OA
HETATM   11  C12 UNL     1      19.671   2.912  52.001  1.00  0.00     0.195 C 
HETATM   12  C13 UNL     1      20.822   3.870  51.791  1.00  0.00    -0.000 C 
HETATM   13  C14 UNL     1      21.077   4.958  51.117  1.00  0.00     0.004 C 
HETATM   14  C15 UNL     1      22.340   5.731  51.044  1.00  0.00    -0.066 C 
HETATM   15  C16 UNL     1      23.178   5.061  52.058  1.00  0.00     0.048 C 
HETATM   16  C17 UNL     1      22.060   6.685  50.137  1.00  0.00    -0.015 C 
HETATM   17  C18 UNL     1      23.189   7.645  49.738  1.00  0.00     0.068 C 
HETATM   18  C19 UNL     1      24.316   6.556  49.487  1.00  0.00    -0.029 C 
HETATM   19  C20 UNL     1      25.364   6.858  50.185  1.00  0.00     0.091 C 
HETATM   20  N1  UNL     1      26.244   5.704  50.205  1.00  0.00    -0.394 N 
HETATM   21  C21 UNL     1      25.896   4.359  49.860  1.00  0.00     0.158 C 
HETATM   22  H25 UNL     1      27.247   5.837  50.499  1.00  0.00     0.159 HD
ENDROOT
BRANCH   1  23
HETATM   23  O2  UNL     1      20.724   3.722  47.458  1.00  0.00    -0.346 OA
BRANCH  23  24
HETATM   24  C3  UNL     1      20.251   3.566  46.198  1.00  0.00     0.201 C 
BRANCH  24  25
HETATM   25  C2  UNL     1      20.904   4.379  45.136  1.00  0.00     0.193 C 
BRANCH  25  26
HETATM   26  O1  UNL     1      21.148   3.554  44.029  1.00  0.00    -0.394 OA
HETATM   27  C1  UNL     1      20.389   3.981  42.934  1.00  0.00     0.201 C 
ENDBRANCH  25  26
ENDBRANCH  24  25
ENDBRANCH  23  24
ENDBRANCH   1  23
TORSDOF 4
ENDMDL
MODEL 8
REMARK VINA RESULT:      -6.4      2.844      5.675
REMARK  4 active torsions:
REMARK  status: ('A' for Active; 'I' for Inactive)
REMARK    1  A    between atoms: O1_2  and  C2_3 
REMARK    2  A    between atoms: C2_3  and  C3_4 
REMARK    3  A    between atoms: C3_4  and  O2_5 
REMARK    4  A    between atoms: O2_5  and  C4_6 
ROOT
HETATM    1  C4  UNL     1      21.361   4.107  48.518  1.00  0.00     0.102 A 
HETATM    2  C5  UNL     1      21.986   5.265  48.899  1.00  0.00     0.052 A 
HETATM    3  C6  UNL     1      23.286   5.305  49.234  1.00  0.00    -0.018 A 
HETATM    4  C7  UNL     1      24.217   4.313  49.255  1.00  0.00    -0.027 A 
HETATM    5  C8  UNL     1      23.575   3.138  48.876  1.00  0.00     0.049 A 
HETATM    6  C9  UNL     1      22.246   2.992  48.534  1.00  0.00     0.102 A 
HETATM    7  O3  UNL     1      21.637   1.739  48.204  1.00  0.00    -0.346 OA
HETATM    8  C10 UNL     1      21.506   0.858  49.408  1.00  0.00     0.202 C 
HETATM    9  C11 UNL     1      20.765   1.661  50.454  1.00  0.00     0.194 C 
HETATM   10  O4  UNL     1      20.568   1.035  51.681  1.00  0.00    -0.385 OA
HETATM   11  C12 UNL     1      20.004   2.112  52.541  1.00  0.00     0.195 C 
HETATM   12  C13 UNL     1      21.065   3.162  52.306  1.00  0.00    -0.000 C 
HETATM   13  C14 UNL     1      21.154   4.369  51.818  1.00  0.00     0.004 C 
HETATM   14  C15 UNL     1      22.358   5.220  51.657  1.00  0.00    -0.066 C 
HETATM   15  C16 UNL     1      23.397   4.429  52.346  1.00  0.00     0.048 C 
HETATM   16  C17 UNL     1      21.880   6.305  51.020  1.00  0.00    -0.015 C 
HETATM   17  C18 UNL     1      22.883   7.390  50.608  1.00  0.00     0.068 C 
HETATM   18  C19 UNL     1      23.965   6.439  49.944  1.00  0.00    -0.029 C 
HETATM   19  C20 UNL     1      25.123   6.672  50.476  1.00  0.00     0.091 C 
HETATM   20  N1  UNL     1      26.019   5.592  50.106  1.00  0.00    -0.394 N 
HETATM   21  C21 UNL     1      25.644   4.315  49.581  1.00  0.00     0.158 C 
HETATM   22  H25 UNL     1      27.057   5.731  50.225  1.00  0.00     0.159 HD
ENDROOT
BRANCH   1  23
HETATM   23  O2  UNL     1      20.117   3.807  48.123  1.00  0.00    -0.346 OA
BRANCH  23  24
HETATM   24  C3  UNL     1      18.885   4.358  48.238  1.00  0.00     0.201 C 
BRANCH  24  25
HETATM   25  C2  UNL     1      17.975   3.752  49.248  1.00  0.00     0.193 C 
BRANCH  25  26
HETATM   26  O1  UNL     1      18.013   4.536  50.409  1.00  0.00    -0.394 OA
HETATM   27  C1  UNL     1      17.035   4.106  51.312  1.00  0.00     0.201 C 
ENDBRANCH  25  26
ENDBRANCH  24  25
ENDBRANCH  23  24
ENDBRANCH   1  23
TORSDOF 4
ENDMDL
MODEL 9
REMARK VINA RESULT:      -6.3      7.085     10.214
REMARK  4 active torsions:
REMARK  status: ('A' for Active; 'I' for Inactive)
REMARK    1  A    between atoms: O1_2  and  C2_3 
REMARK    2  A    between atoms: C2_3  and  C3_4 
REMARK    3  A    between atoms: C3_4  and  O2_5 
REMARK    4  A    between atoms: O2_5  and  C4_6 
ROOT
HETATM    1  C4  UNL     1      32.116   8.598  46.754  1.00  0.00     0.102 A 
HETATM    2  C5  UNL     1      33.105   7.743  47.163  1.00  0.00     0.052 A 
HETATM    3  C6  UNL     1      33.456   6.657  46.454  1.00  0.00    -0.018 A 
HETATM    4  C7  UNL     1      32.984   6.196  45.264  1.00  0.00    -0.027 A 
HETATM    5  C8  UNL     1      31.974   7.063  44.859  1.00  0.00     0.049 A 
HETATM    6  C9  UNL     1      31.529   8.187  45.523  1.00  0.00     0.102 A 
HETATM    7  O3  UNL     1      30.445   9.007  45.073  1.00  0.00    -0.346 OA
HETATM    8  C10 UNL     1      29.130   8.306  45.215  1.00  0.00     0.202 C 
HETATM    9  C11 UNL     1      29.027   7.866  46.659  1.00  0.00     0.194 C 
HETATM   10  O4  UNL     1      27.883   7.151  47.001  1.00  0.00    -0.385 OA
HETATM   11  C12 UNL     1      28.152   6.699  48.395  1.00  0.00     0.195 C 
HETATM   12  C13 UNL     1      29.498   6.050  48.161  1.00  0.00    -0.000 C 
HETATM   13  C14 UNL     1      30.731   6.188  48.562  1.00  0.00     0.004 C 
HETATM   14  C15 UNL     1      31.932   5.421  48.153  1.00  0.00    -0.066 C 
HETATM   15  C16 UNL     1      31.353   4.355  47.312  1.00  0.00     0.048 C 
HETATM   16  C17 UNL     1      32.929   6.049  48.803  1.00  0.00    -0.015 C 
HETATM   17  C18 UNL     1      34.364   5.566  48.548  1.00  0.00     0.068 C 
HETATM   18  C19 UNL     1      34.294   5.522  46.963  1.00  0.00    -0.029 C 
HETATM   19  C20 UNL     1      34.660   4.350  46.552  1.00  0.00     0.091 C 
HETATM   20  N1  UNL     1      34.283   4.220  45.157  1.00  0.00    -0.394 N 
HETATM   21  C21 UNL     1      33.355   5.042  44.443  1.00  0.00     0.158 C 
HETATM   22  H25 UNL     1      34.719   3.450  44.584  1.00  0.00     0.159 HD
ENDROOT
BRANCH   1  23
HETATM   23  O2  UNL     1      31.601   9.731  47.248  1.00  0.00    -0.346 OA
BRANCH  23  24
HETATM   24  C3  UNL     1      31.481  10.312  48.467  1.00  0.00     0.201 C 
BRANCH  24  25
HETATM   25  C2  UNL     1      30.130  10.278  49.090  1.00  0.00     0.193 C 
BRANCH  25  26
HETATM   26  O1  UNL     1      29.528  11.532  48.919  1.00  0.00    -0.394 OA
HETATM   27  C1  UNL     1      30.465  12.549  49.136  1.00  0.00     0.201 C 
ENDBRANCH  25  26
ENDBRANCH  24  25
ENDBRANCH  23  24
ENDBRANCH   1  23
TORSDOF 4
ENDMDL
