MODEL 1
REMARK VINA RESULT:      -8.0      0.000      0.000
REMARK  8 active torsions:
REMARK  status: ('A' for Active; 'I' for Inactive)
REMARK    1  A    between atoms: C2_2  and  C3_3 
REMARK    2  A    between atoms: C3_3  and  C4_4 
REMARK    3  A    between atoms: C4_4  and  N1_5 
REMARK       I    between atoms: N1_5  and  C5_6 
REMARK       I    between atoms: C5_6  and  N2_8 
REMARK    4  A    between atoms: N2_8  and  C6_9 
REMARK    5  A    between atoms: C9_12  and  O2_13 
REMARK    6  A    between atoms: O2_13  and  C10_14 
REMARK    7  A    between atoms: C13_17  and  O3_18 
REMARK    8  A    between atoms: C15_20  and  O4_21 
ROOT
HETATM    1  C6  UNL     1      24.161   4.230  50.232  1.00  0.00     0.036 A 
HETATM    2  C7  UNL     1      23.567   3.093  49.766  1.00  0.00     0.032 A 
HETATM    3  C8  UNL     1      22.730   2.319  50.551  1.00  0.00     0.039 A 
HETATM    4  C9  UNL     1      22.474   2.697  51.864  1.00  0.00     0.078 A 
HETATM    5  C20 UNL     1      23.100   3.855  52.289  1.00  0.00     0.039 A 
HETATM    6  C21 UNL     1      23.933   4.642  51.536  1.00  0.00     0.032 A 
ENDROOT
BRANCH   4   7
HETATM    7  O2  UNL     1      21.651   2.004  52.758  1.00  0.00    -0.285 OA
BRANCH   7   8
HETATM    8  C10 UNL     1      21.895   0.685  53.061  1.00  0.00     0.228 C 
HETATM    9  C11 UNL     1      23.170   0.388  53.139  1.00  0.00    -0.013 C 
HETATM   10  C12 UNL     1      24.289   0.112  53.221  1.00  0.00    -0.030 C 
HETATM   11  C13 UNL     1      25.545  -0.217  53.327  1.00  0.00     0.156 C 
HETATM   12  C15 UNL     1      25.614  -0.362  54.680  1.00  0.00     0.111 C 
HETATM   13  C17 UNL     1      24.948  -1.136  55.574  1.00  0.00     0.059 C 
HETATM   14  C18 UNL     1      23.615  -1.444  55.476  1.00  0.00     0.121 C 
HETATM   15  N3  UNL     1      22.327  -1.741  55.373  1.00  0.00    -0.254 NA
HETATM   16  C19 UNL     1      21.472  -1.109  54.549  1.00  0.00     0.236 C 
HETATM   17  N4  UNL     1      21.431  -0.529  53.335  1.00  0.00    -0.210 NA
BRANCH  11  18
HETATM   18  O3  UNL     1      26.434  -0.345  52.281  1.00  0.00    -0.345 OA
HETATM   19  C14 UNL     1      26.821   0.841  51.579  1.00  0.00     0.211 C 
ENDBRANCH  11  18
BRANCH  12  20
HETATM   20  O4  UNL     1      26.600   0.529  54.987  1.00  0.00    -0.352 OA
HETATM   21  C16 UNL     1      27.959   0.203  55.094  1.00  0.00     0.210 C 
ENDBRANCH  12  20
ENDBRANCH   7   8
ENDBRANCH   4   7
BRANCH   1  22
HETATM   22  N2  UNL     1      25.017   4.996  49.389  1.00  0.00    -0.309 N 
HETATM   23  C5  UNL     1      26.422   4.736  49.340  1.00  0.00     0.320 C 
HETATM   24  N1  UNL     1      27.232   5.525  48.487  1.00  0.00    -0.343 N 
HETATM   25  O1  UNL     1      26.925   3.822  50.041  1.00  0.00    -0.247 OA
HETATM   26  H10 UNL     1      26.753   6.281  47.913  1.00  0.00     0.164 HD
HETATM   27  H11 UNL     1      24.539   5.739  48.832  1.00  0.00     0.170 HD
BRANCH  24  28
HETATM   28  C4  UNL     1      28.668   5.395  48.322  1.00  0.00     0.124 C 
BRANCH  28  29
HETATM   29  C3  UNL     1      29.157   6.618  47.584  1.00  0.00     0.019 C 
BRANCH  29  30
HETATM   30  C2  UNL     1      30.677   6.595  47.596  1.00  0.00    -0.003 C 
HETATM   31  C1  UNL     1      31.193   6.199  48.942  1.00  0.00     0.005 C 
ENDBRANCH  29  30
ENDBRANCH  28  29
ENDBRANCH  24  28
ENDBRANCH   1  22
TORSDOF 8
ENDMDL
MODEL 2
REMARK VINA RESULT:      -7.7      3.514      9.782
REMARK  8 active torsions:
REMARK  status: ('A' for Active; 'I' for Inactive)
REMARK    1  A    between atoms: C2_2  and  C3_3 
REMARK    2  A    between atoms: C3_3  and  C4_4 
REMARK    3  A    between atoms: C4_4  and  N1_5 
REMARK       I    between atoms: N1_5  and  C5_6 
REMARK       I    between atoms: C5_6  and  N2_8 
REMARK    4  A    between atoms: N2_8  and  C6_9 
REMARK    5  A    between atoms: C9_12  and  O2_13 
REMARK    6  A    between atoms: O2_13  and  C10_14 
REMARK    7  A    between atoms: C13_17  and  O3_18 
REMARK    8  A    between atoms: C15_20  and  O4_21 
ROOT
HETATM    1  C6  UNL     1      25.919   3.727  50.200  1.00  0.00     0.036 A 
HETATM    2  C7  UNL     1      26.978   3.761  49.342  1.00  0.00     0.032 A 
HETATM    3  C8  UNL     1      27.325   4.901  48.637  1.00  0.00     0.039 A 
HETATM    4  C9  UNL     1      26.578   6.063  48.797  1.00  0.00     0.078 A 
HETATM    5  C20 UNL     1      25.515   5.977  49.678  1.00  0.00     0.039 A 
HETATM    6  C21 UNL     1      25.147   4.863  50.389  1.00  0.00     0.032 A 
ENDROOT
BRANCH   4   7
HETATM    7  O2  UNL     1      26.822   7.276  48.146  1.00  0.00    -0.285 OA
BRANCH   7   8
HETATM    8  C10 UNL     1      27.242   8.380  48.850  1.00  0.00     0.228 C 
HETATM    9  C11 UNL     1      28.547   8.486  48.936  1.00  0.00    -0.013 C 
HETATM   10  C12 UNL     1      29.693   8.599  49.013  1.00  0.00    -0.030 C 
HETATM   11  C13 UNL     1      30.984   8.749  49.103  1.00  0.00     0.156 C 
HETATM   12  C15 UNL     1      31.138   9.797  48.245  1.00  0.00     0.111 C 
HETATM   13  C17 UNL     1      30.618  11.050  48.197  1.00  0.00     0.059 C 
HETATM   14  C18 UNL     1      29.330  11.359  48.555  1.00  0.00     0.121 C 
HETATM   15  N3  UNL     1      28.086  11.651  48.906  1.00  0.00    -0.254 NA
HETATM   16  C19 UNL     1      27.120  10.733  49.088  1.00  0.00     0.236 C 
HETATM   17  N4  UNL     1      26.948   9.477  49.538  1.00  0.00    -0.210 NA
BRANCH  11  18
HETATM   18  O3  UNL     1      31.831   7.991  49.884  1.00  0.00    -0.345 OA
HETATM   19  C14 UNL     1      31.895   6.583  49.633  1.00  0.00     0.211 C 
ENDBRANCH  11  18
BRANCH  12  20
HETATM   20  O4  UNL     1      32.019   9.272  47.347  1.00  0.00    -0.352 OA
HETATM   21  C16 UNL     1      31.654   8.666  46.137  1.00  0.00     0.210 C 
ENDBRANCH  12  20
ENDBRANCH   7   8
ENDBRANCH   4   7
BRANCH   1  22
HETATM   22  N2  UNL     1      25.597   2.531  50.905  1.00  0.00    -0.309 N 
HETATM   23  C5  UNL     1      26.508   1.975  51.856  1.00  0.00     0.320 C 
HETATM   24  N1  UNL     1      26.145   0.784  52.532  1.00  0.00    -0.343 N 
HETATM   25  O1  UNL     1      27.610   2.534  52.087  1.00  0.00    -0.247 OA
HETATM   26  H10 UNL     1      25.200   0.355  52.301  1.00  0.00     0.164 HD
HETATM   27  H11 UNL     1      24.669   2.115  50.669  1.00  0.00     0.170 HD
BRANCH  24  28
HETATM   28  C4  UNL     1      26.949   0.089  53.519  1.00  0.00     0.124 C 
BRANCH  28  29
HETATM   29  C3  UNL     1      27.563  -1.115  52.847  1.00  0.00     0.019 C 
BRANCH  29  30
HETATM   30  C2  UNL     1      28.989  -1.259  53.355  1.00  0.00    -0.003 C 
HETATM   31  C1  UNL     1      29.579   0.078  53.671  1.00  0.00     0.005 C 
ENDBRANCH  29  30
ENDBRANCH  28  29
ENDBRANCH  24  28
ENDBRANCH   1  22
TORSDOF 8
ENDMDL
MODEL 3
REMARK VINA RESULT:      -7.6      3.074      5.466
REMARK  8 active torsions:
REMARK  status: ('A' for Active; 'I' for Inactive)
REMARK    1  A    between atoms: C2_2  and  C3_3 
REMARK    2  A    between atoms: C3_3  and  C4_4 
REMARK    3  A    between atoms: C4_4  and  N1_5 
REMARK       I    between atoms: N1_5  and  C5_6 
REMARK       I    between atoms: C5_6  and  N2_8 
REMARK    4  A    between atoms: N2_8  and  C6_9 
REMARK    5  A    between atoms: C9_12  and  O2_13 
REMARK    6  A    between atoms: O2_13  and  C10_14 
REMARK    7  A    between atoms: C13_17  and  O3_18 
REMARK    8  A    between atoms: C15_20  and  O4_21 
ROOT
HETATM    1  C6  UNL     1      27.659   7.175  48.085  1.00  0.00     0.036 A 
HETATM    2  C7  UNL     1      26.382   6.902  48.479  1.00  0.00     0.032 A 
HETATM    3  C8  UNL     1      25.988   5.643  48.899  1.00  0.00     0.039 A 
HETATM    4  C9  UNL     1      26.915   4.607  48.927  1.00  0.00     0.078 A 
HETATM    5  C20 UNL     1      28.195   4.934  48.519  1.00  0.00     0.039 A 
HETATM    6  C21 UNL     1      28.614   6.170  48.097  1.00  0.00     0.032 A 
ENDROOT
BRANCH   4   7
HETATM    7  O2  UNL     1      26.646   3.295  49.329  1.00  0.00    -0.285 OA
BRANCH   7   8
HETATM    8  C10 UNL     1      26.595   2.964  50.663  1.00  0.00     0.228 C 
HETATM    9  C11 UNL     1      25.378   2.934  51.153  1.00  0.00    -0.013 C 
HETATM   10  C12 UNL     1      24.314   2.893  51.597  1.00  0.00    -0.030 C 
HETATM   11  C13 UNL     1      23.120   2.833  52.115  1.00  0.00     0.156 C 
HETATM   12  C15 UNL     1      23.009   1.480  52.239  1.00  0.00     0.111 C 
HETATM   13  C17 UNL     1      23.742   0.536  52.880  1.00  0.00     0.059 C 
HETATM   14  C18 UNL     1      25.110   0.566  52.979  1.00  0.00     0.121 C 
HETATM   15  N3  UNL     1      26.432   0.603  53.074  1.00  0.00    -0.254 NA
HETATM   16  C19 UNL     1      27.217   1.407  52.336  1.00  0.00     0.236 C 
HETATM   17  N4  UNL     1      27.227   2.634  51.784  1.00  0.00    -0.210 NA
BRANCH  11  18
HETATM   18  O3  UNL     1      22.312   3.913  52.404  1.00  0.00    -0.345 OA
HETATM   19  C14 UNL     1      22.149   4.918  51.397  1.00  0.00     0.211 C 
ENDBRANCH  11  18
BRANCH  12  20
HETATM   20  O4  UNL     1      21.883   1.244  51.506  1.00  0.00    -0.352 OA
HETATM   21  C16 UNL     1      20.893   0.314  51.849  1.00  0.00     0.210 C 
ENDBRANCH  12  20
ENDBRANCH   7   8
ENDBRANCH   4   7
BRANCH   1  22
HETATM   22  N2  UNL     1      28.020   8.486  47.658  1.00  0.00    -0.309 N 
HETATM   23  C5  UNL     1      28.419   9.480  48.606  1.00  0.00     0.320 C 
HETATM   24  N1  UNL     1      28.768  10.769  48.135  1.00  0.00    -0.343 N 
HETATM   25  O1  UNL     1      28.458   9.211  49.833  1.00  0.00    -0.247 OA
HETATM   26  H10 UNL     1      28.721  10.941  47.086  1.00  0.00     0.164 HD
HETATM   27  H11 UNL     1      27.967   8.646  46.628  1.00  0.00     0.170 HD
BRANCH  24  28
HETATM   28  C4  UNL     1      29.189  11.888  48.957  1.00  0.00     0.124 C 
BRANCH  28  29
HETATM   29  C3  UNL     1      30.697  11.938  48.928  1.00  0.00     0.019 C 
BRANCH  29  30
HETATM   30  C2  UNL     1      31.141  11.825  47.478  1.00  0.00    -0.003 C 
HETATM   31  C1  UNL     1      32.377  10.991  47.363  1.00  0.00     0.005 C 
ENDBRANCH  29  30
ENDBRANCH  28  29
ENDBRANCH  24  28
ENDBRANCH   1  22
TORSDOF 8
ENDMDL
MODEL 4
REMARK VINA RESULT:      -7.3      3.482     10.203
REMARK  8 active torsions:
REMARK  status: ('A' for Active; 'I' for Inactive)
REMARK    1  A    between atoms: C2_2  and  C3_3 
REMARK    2  A    between atoms: C3_3  and  C4_4 
REMARK    3  A    between atoms: C4_4  and  N1_5 
REMARK       I    between atoms: N1_5  and  C5_6 
REMARK       I    between atoms: C5_6  and  N2_8 
REMARK    4  A    between atoms: N2_8  and  C6_9 
REMARK    5  A    between atoms: C9_12  and  O2_13 
REMARK    6  A    between atoms: O2_13  and  C10_14 
REMARK    7  A    between atoms: C13_17  and  O3_18 
REMARK    8  A    between atoms: C15_20  and  O4_21 
ROOT
HETATM    1  C6  UNL     1      25.946   4.000  49.904  1.00  0.00     0.036 A 
HETATM    2  C7  UNL     1      25.264   5.165  50.104  1.00  0.00     0.032 A 
HETATM    3  C8  UNL     1      25.646   6.358  49.516  1.00  0.00     0.039 A 
HETATM    4  C9  UNL     1      26.764   6.391  48.689  1.00  0.00     0.078 A 
HETATM    5  C20 UNL     1      27.420   5.186  48.518  1.00  0.00     0.039 A 
HETATM    6  C21 UNL     1      27.066   3.989  49.087  1.00  0.00     0.032 A 
ENDROOT
BRANCH   4   7
HETATM    7  O2  UNL     1      27.253   7.527  48.037  1.00  0.00    -0.285 OA
BRANCH   7   8
HETATM    8  C10 UNL     1      27.848   8.543  48.747  1.00  0.00     0.228 C 
HETATM    9  C11 UNL     1      29.157   8.465  48.786  1.00  0.00    -0.013 C 
HETATM   10  C12 UNL     1      30.310   8.417  48.821  1.00  0.00    -0.030 C 
HETATM   11  C13 UNL     1      31.611   8.385  48.865  1.00  0.00     0.156 C 
HETATM   12  C15 UNL     1      31.879   9.424  48.024  1.00  0.00     0.111 C 
HETATM   13  C17 UNL     1      31.537  10.737  48.022  1.00  0.00     0.059 C 
HETATM   14  C18 UNL     1      30.319  11.212  48.435  1.00  0.00     0.121 C 
HETATM   15  N3  UNL     1      29.140  11.664  48.840  1.00  0.00    -0.254 NA
HETATM   16  C19 UNL     1      28.063  10.884  49.039  1.00  0.00     0.236 C 
HETATM   17  N4  UNL     1      27.733   9.653  49.469  1.00  0.00    -0.210 NA
BRANCH  11  18
HETATM   18  O3  UNL     1      32.371   7.497  49.598  1.00  0.00    -0.345 OA
HETATM   19  C14 UNL     1      31.972   6.122  49.608  1.00  0.00     0.211 C 
ENDBRANCH  11  18
BRANCH  12  20
HETATM   20  O4  UNL     1      32.647   8.805  47.082  1.00  0.00    -0.352 OA
HETATM   21  C16 UNL     1      34.030   8.985  46.941  1.00  0.00     0.210 C 
ENDBRANCH  12  20
ENDBRANCH   7   8
ENDBRANCH   4   7
BRANCH   1  22
HETATM   22  N2  UNL     1      25.517   2.794  50.530  1.00  0.00    -0.309 N 
HETATM   23  C5  UNL     1      26.332   2.150  51.513  1.00  0.00     0.320 C 
HETATM   24  N1  UNL     1      25.863   0.953  52.108  1.00  0.00    -0.343 N 
HETATM   25  O1  UNL     1      27.442   2.640  51.842  1.00  0.00    -0.247 OA
HETATM   26  H10 UNL     1      24.916   0.585  51.796  1.00  0.00     0.164 HD
HETATM   27  H11 UNL     1      24.588   2.439  50.215  1.00  0.00     0.170 HD
BRANCH  24  28
HETATM   28  C4  UNL     1      26.563   0.174  53.113  1.00  0.00     0.124 C 
BRANCH  28  29
HETATM   29  C3  UNL     1      25.555  -0.735  53.773  1.00  0.00     0.019 C 
BRANCH  29  30
HETATM   30  C2  UNL     1      24.167  -0.284  53.346  1.00  0.00    -0.003 C 
HETATM   31  C1  UNL     1      23.128  -0.791  54.293  1.00  0.00     0.005 C 
ENDBRANCH  29  30
ENDBRANCH  28  29
ENDBRANCH  24  28
ENDBRANCH   1  22
TORSDOF 8
ENDMDL
MODEL 5
REMARK VINA RESULT:      -7.3      2.987      9.981
REMARK  8 active torsions:
REMARK  status: ('A' for Active; 'I' for Inactive)
REMARK    1  A    between atoms: C2_2  and  C3_3 
REMARK    2  A    between atoms: C3_3  and  C4_4 
REMARK    3  A    between atoms: C4_4  and  N1_5 
REMARK       I    between atoms: N1_5  and  C5_6 
REMARK       I    between atoms: C5_6  and  N2_8 
REMARK    4  A    between atoms: N2_8  and  C6_9 
REMARK    5  A    between atoms: C9_12  and  O2_13 
REMARK    6  A    between atoms: O2_13  and  C10_14 
REMARK    7  A    between atoms: C13_17  and  O3_18 
REMARK    8  A    between atoms: C15_20  and  O4_21 
ROOT
HETATM    1  C6  UNL     1      25.439   4.020  50.397  1.00  0.00     0.036 A 
HETATM    2  C7  UNL     1      25.116   5.327  50.172  1.00  0.00     0.032 A 
HETATM    3  C8  UNL     1      25.856   6.139  49.330  1.00  0.00     0.039 A 
HETATM    4  C9  UNL     1      26.972   5.622  48.681  1.00  0.00     0.078 A 
HETATM    5  C20 UNL     1      27.258   4.295  48.943  1.00  0.00     0.039 A 
HETATM    6  C21 UNL     1      26.545   3.466  49.771  1.00  0.00     0.032 A 
ENDROOT
BRANCH   4   7
HETATM    7  O2  UNL     1      27.801   6.335  47.809  1.00  0.00    -0.285 OA
BRANCH   7   8
HETATM    8  C10 UNL     1      29.004   6.844  48.240  1.00  0.00     0.228 C 
HETATM    9  C11 UNL     1      30.032   6.081  47.955  1.00  0.00    -0.013 C 
HETATM   10  C12 UNL     1      30.949   5.426  47.704  1.00  0.00    -0.030 C 
HETATM   11  C13 UNL     1      31.997   4.705  47.422  1.00  0.00     0.156 C 
HETATM   12  C15 UNL     1      32.533   5.484  46.440  1.00  0.00     0.111 C 
HETATM   13  C17 UNL     1      32.944   6.776  46.390  1.00  0.00     0.059 C 
HETATM   14  C18 UNL     1      32.317   7.804  47.047  1.00  0.00     0.121 C 
HETATM   15  N3  UNL     1      31.708   8.793  47.687  1.00  0.00    -0.254 NA
HETATM   16  C19 UNL     1      30.481   8.695  48.229  1.00  0.00     0.236 C 
HETATM   17  N4  UNL     1      29.684   7.807  48.851  1.00  0.00    -0.210 NA
BRANCH  11  18
HETATM   18  O3  UNL     1      32.342   3.514  48.026  1.00  0.00    -0.345 OA
HETATM   19  C14 UNL     1      33.626   2.957  47.727  1.00  0.00     0.211 C 
ENDBRANCH  11  18
BRANCH  12  20
HETATM   20  O4  UNL     1      32.580   4.599  45.403  1.00  0.00    -0.352 OA
HETATM   21  C16 UNL     1      33.387   4.748  44.268  1.00  0.00     0.210 C 
ENDBRANCH  12  20
ENDBRANCH   7   8
ENDBRANCH   4   7
BRANCH   1  22
HETATM   22  N2  UNL     1      24.650   3.221  51.273  1.00  0.00    -0.309 N 
HETATM   23  C5  UNL     1      23.582   2.416  50.766  1.00  0.00     0.320 C 
HETATM   24  N1  UNL     1      22.824   1.638  51.676  1.00  0.00    -0.343 N 
HETATM   25  O1  UNL     1      23.323   2.401  49.536  1.00  0.00    -0.247 OA
HETATM   26  H10 UNL     1      23.088   1.685  52.705  1.00  0.00     0.164 HD
HETATM   27  H11 UNL     1      24.914   3.276  52.282  1.00  0.00     0.170 HD
BRANCH  24  28
HETATM   28  C4  UNL     1      21.710   0.774  51.331  1.00  0.00     0.124 C 
BRANCH  28  29
HETATM   29  C3  UNL     1      21.310   0.022  52.577  1.00  0.00     0.019 C 
BRANCH  29  30
HETATM   30  C2  UNL     1      22.578  -0.483  53.246  1.00  0.00    -0.003 C 
HETATM   31  C1  UNL     1      22.303  -0.919  54.650  1.00  0.00     0.005 C 
ENDBRANCH  29  30
ENDBRANCH  28  29
ENDBRANCH  24  28
ENDBRANCH   1  22
TORSDOF 8
ENDMDL
MODEL 6
REMARK VINA RESULT:      -7.2      3.258     10.123
REMARK  8 active torsions:
REMARK  status: ('A' for Active; 'I' for Inactive)
REMARK    1  A    between atoms: C2_2  and  C3_3 
REMARK    2  A    between atoms: C3_3  and  C4_4 
REMARK    3  A    between atoms: C4_4  and  N1_5 
REMARK       I    between atoms: N1_5  and  C5_6 
REMARK       I    between atoms: C5_6  and  N2_8 
REMARK    4  A    between atoms: N2_8  and  C6_9 
REMARK    5  A    between atoms: C9_12  and  O2_13 
REMARK    6  A    between atoms: O2_13  and  C10_14 
REMARK    7  A    between atoms: C13_17  and  O3_18 
REMARK    8  A    between atoms: C15_20  and  O4_21 
ROOT
HETATM    1  C6  UNL     1      25.559   4.544  50.028  1.00  0.00     0.036 A 
HETATM    2  C7  UNL     1      26.647   3.953  49.457  1.00  0.00     0.032 A 
HETATM    3  C8  UNL     1      27.570   4.662  48.707  1.00  0.00     0.039 A 
HETATM    4  C9  UNL     1      27.396   6.029  48.517  1.00  0.00     0.078 A 
HETATM    5  C20 UNL     1      26.277   6.581  49.115  1.00  0.00     0.039 A 
HETATM    6  C21 UNL     1      25.348   5.905  49.862  1.00  0.00     0.032 A 
ENDROOT
BRANCH   4   7
HETATM    7  O2  UNL     1      28.250   6.857  47.783  1.00  0.00    -0.285 OA
BRANCH   7   8
HETATM    8  C10 UNL     1      29.516   7.142  48.239  1.00  0.00     0.228 C 
HETATM    9  C11 UNL     1      30.428   6.294  47.829  1.00  0.00    -0.013 C 
HETATM   10  C12 UNL     1      31.245   5.561  47.469  1.00  0.00    -0.030 C 
HETATM   11  C13 UNL     1      32.183   4.752  47.067  1.00  0.00     0.156 C 
HETATM   12  C15 UNL     1      32.807   5.573  46.176  1.00  0.00     0.111 C 
HETATM   13  C17 UNL     1      33.387   6.796  46.279  1.00  0.00     0.059 C 
HETATM   14  C18 UNL     1      32.913   7.804  47.079  1.00  0.00     0.121 C 
HETATM   15  N3  UNL     1      32.451   8.772  47.857  1.00  0.00    -0.254 NA
HETATM   16  C19 UNL     1      31.229   8.768  48.419  1.00  0.00     0.236 C 
HETATM   17  N4  UNL     1      30.328   7.920  48.947  1.00  0.00    -0.210 NA
BRANCH  11  18
HETATM   18  O3  UNL     1      32.372   3.457  47.504  1.00  0.00    -0.345 OA
HETATM   19  C14 UNL     1      33.711   3.030  47.778  1.00  0.00     0.211 C 
ENDBRANCH  11  18
BRANCH  12  20
HETATM   20  O4  UNL     1      32.720   4.833  45.034  1.00  0.00    -0.352 OA
HETATM   21  C16 UNL     1      33.757   4.685  44.103  1.00  0.00     0.210 C 
ENDBRANCH  12  20
ENDBRANCH   7   8
ENDBRANCH   4   7
BRANCH   1  22
HETATM   22  N2  UNL     1      24.634   3.774  50.792  1.00  0.00    -0.309 N 
HETATM   23  C5  UNL     1      23.670   2.939  50.147  1.00  0.00     0.320 C 
HETATM   24  N1  UNL     1      22.771   2.192  50.949  1.00  0.00    -0.343 N 
HETATM   25  O1  UNL     1      23.622   2.869  48.893  1.00  0.00    -0.247 OA
HETATM   26  H10 UNL     1      22.858   2.286  52.005  1.00  0.00     0.164 HD
HETATM   27  H11 UNL     1      24.725   3.875  51.827  1.00  0.00     0.170 HD
BRANCH  24  28
HETATM   28  C4  UNL     1      21.734   1.303  50.459  1.00  0.00     0.124 C 
BRANCH  28  29
HETATM   29  C3  UNL     1      21.252   0.474  51.625  1.00  0.00     0.019 C 
BRANCH  29  30
HETATM   30  C2  UNL     1      22.461   0.106  52.469  1.00  0.00    -0.003 C 
HETATM   31  C1  UNL     1      22.039  -0.428  53.800  1.00  0.00     0.005 C 
ENDBRANCH  29  30
ENDBRANCH  28  29
ENDBRANCH  24  28
ENDBRANCH   1  22
TORSDOF 8
ENDMDL
MODEL 7
REMARK VINA RESULT:      -7.2      3.728      6.790
REMARK  8 active torsions:
REMARK  status: ('A' for Active; 'I' for Inactive)
REMARK    1  A    between atoms: C2_2  and  C3_3 
REMARK    2  A    between atoms: C3_3  and  C4_4 
REMARK    3  A    between atoms: C4_4  and  N1_5 
REMARK       I    between atoms: N1_5  and  C5_6 
REMARK       I    between atoms: C5_6  and  N2_8 
REMARK    4  A    between atoms: N2_8  and  C6_9 
REMARK    5  A    between atoms: C9_12  and  O2_13 
REMARK    6  A    between atoms: O2_13  and  C10_14 
REMARK    7  A    between atoms: C13_17  and  O3_18 
REMARK    8  A    between atoms: C15_20  and  O4_21 
ROOT
HETATM    1  C6  UNL     1      22.731  -0.363  53.407  1.00  0.00     0.036 A 
HETATM    2  C7  UNL     1      21.830   0.163  54.286  1.00  0.00     0.032 A 
HETATM    3  C8  UNL     1      20.621   0.699  53.879  1.00  0.00     0.039 A 
HETATM    4  C9  UNL     1      20.295   0.712  52.526  1.00  0.00     0.078 A 
HETATM    5  C20 UNL     1      21.240   0.169  51.676  1.00  0.00     0.039 A 
HETATM    6  C21 UNL     1      22.445  -0.370  52.050  1.00  0.00     0.032 A 
ENDROOT
BRANCH   4   7
HETATM    7  O2  UNL     1      19.111   1.223  51.986  1.00  0.00    -0.285 OA
BRANCH   7   8
HETATM    8  C10 UNL     1      18.926   2.579  51.855  1.00  0.00     0.228 C 
HETATM    9  C11 UNL     1      20.041   3.253  51.706  1.00  0.00    -0.013 C 
HETATM   10  C12 UNL     1      21.013   3.860  51.563  1.00  0.00    -0.030 C 
HETATM   11  C13 UNL     1      22.097   4.561  51.392  1.00  0.00     0.156 C 
HETATM   12  C15 UNL     1      21.947   4.869  50.073  1.00  0.00     0.111 C 
HETATM   13  C17 UNL     1      20.978   5.501  49.364  1.00  0.00     0.059 C 
HETATM   14  C18 UNL     1      19.636   5.381  49.626  1.00  0.00     0.121 C 
HETATM   15  N3  UNL     1      18.342   5.263  49.887  1.00  0.00    -0.254 NA
HETATM   16  C19 UNL     1      17.818   4.316  50.685  1.00  0.00     0.236 C 
HETATM   17  N4  UNL     1      18.102   3.620  51.801  1.00  0.00    -0.210 NA
BRANCH  11  18
HETATM   18  O3  UNL     1      23.040   4.835  52.361  1.00  0.00    -0.345 OA
HETATM   19  C14 UNL     1      23.800   3.741  52.887  1.00  0.00     0.211 C 
ENDBRANCH  11  18
BRANCH  12  20
HETATM   20  O4  UNL     1      23.099   4.356  49.554  1.00  0.00    -0.352 OA
HETATM   21  C16 UNL     1      23.185   3.142  48.859  1.00  0.00     0.210 C 
ENDBRANCH  12  20
ENDBRANCH   7   8
ENDBRANCH   4   7
BRANCH   1  22
HETATM   22  N2  UNL     1      23.964  -0.904  53.871  1.00  0.00    -0.309 N 
HETATM   23  C5  UNL     1      25.212  -0.353  53.444  1.00  0.00     0.320 C 
HETATM   24  N1  UNL     1      26.413  -0.925  53.932  1.00  0.00    -0.343 N 
HETATM   25  O1  UNL     1      25.241   0.622  52.651  1.00  0.00    -0.247 OA
HETATM   26  H10 UNL     1      26.330  -1.746  54.603  1.00  0.00     0.164 HD
HETATM   27  H11 UNL     1      23.873  -1.712  54.527  1.00  0.00     0.170 HD
BRANCH  24  28
HETATM   28  C4  UNL     1      27.757  -0.492  53.599  1.00  0.00     0.124 C 
BRANCH  28  29
HETATM   29  C3  UNL     1      28.319   0.226  54.801  1.00  0.00     0.019 C 
BRANCH  29  30
HETATM   30  C2  UNL     1      29.248   1.320  54.300  1.00  0.00    -0.003 C 
HETATM   31  C1  UNL     1      28.485   2.368  53.556  1.00  0.00     0.005 C 
ENDBRANCH  29  30
ENDBRANCH  28  29
ENDBRANCH  24  28
ENDBRANCH   1  22
TORSDOF 8
ENDMDL
MODEL 8
REMARK VINA RESULT:      -7.1      2.360      4.588
REMARK  8 active torsions:
REMARK  status: ('A' for Active; 'I' for Inactive)
REMARK    1  A    between atoms: C2_2  and  C3_3 
REMARK    2  A    between atoms: C3_3  and  C4_4 
REMARK    3  A    between atoms: C4_4  and  N1_5 
REMARK       I    between atoms: N1_5  and  C5_6 
REMARK       I    between atoms: C5_6  and  N2_8 
REMARK    4  A    between atoms: N2_8  and  C6_9 
REMARK    5  A    between atoms: C9_12  and  O2_13 
REMARK    6  A    between atoms: O2_13  and  C10_14 
REMARK    7  A    between atoms: C13_17  and  O3_18 
REMARK    8  A    between atoms: C15_20  and  O4_21 
ROOT
HETATM    1  C6  UNL     1      27.619   6.109  48.499  1.00  0.00     0.036 A 
HETATM    2  C7  UNL     1      26.623   6.885  49.015  1.00  0.00     0.032 A 
HETATM    3  C8  UNL     1      25.538   6.350  49.688  1.00  0.00     0.039 A 
HETATM    4  C9  UNL     1      25.443   4.972  49.853  1.00  0.00     0.078 A 
HETATM    5  C20 UNL     1      26.477   4.229  49.312  1.00  0.00     0.039 A 
HETATM    6  C21 UNL     1      27.563   4.731  48.641  1.00  0.00     0.032 A 
ENDROOT
BRANCH   4   7
HETATM    7  O2  UNL     1      24.403   4.307  50.509  1.00  0.00    -0.285 OA
BRANCH   7   8
HETATM    8  C10 UNL     1      23.867   3.152  49.989  1.00  0.00     0.228 C 
HETATM    9  C11 UNL     1      23.703   2.200  50.876  1.00  0.00    -0.013 C 
HETATM   10  C12 UNL     1      23.542   1.355  51.647  1.00  0.00    -0.030 C 
HETATM   11  C13 UNL     1      23.345   0.393  52.502  1.00  0.00     0.156 C 
HETATM   12  C15 UNL     1      21.986   0.452  52.581  1.00  0.00     0.111 C 
HETATM   13  C17 UNL     1      20.990   0.348  51.665  1.00  0.00     0.059 C 
HETATM   14  C18 UNL     1      21.070   0.841  50.388  1.00  0.00     0.121 C 
HETATM   15  N3  UNL     1      21.156   1.317  49.154  1.00  0.00    -0.254 NA
HETATM   16  C19 UNL     1      22.101   2.182  48.744  1.00  0.00     0.236 C 
HETATM   17  N4  UNL     1      23.398   2.479  48.944  1.00  0.00    -0.210 NA
BRANCH  11  18
HETATM   18  O3  UNL     1      24.327  -0.383  53.081  1.00  0.00    -0.345 OA
HETATM   19  C14 UNL     1      25.422   0.284  53.718  1.00  0.00     0.211 C 
ENDBRANCH  11  18
BRANCH  12  20
HETATM   20  O4  UNL     1      21.812   0.660  53.918  1.00  0.00    -0.352 OA
HETATM   21  C16 UNL     1      21.335  -0.304  54.816  1.00  0.00     0.210 C 
ENDBRANCH  12  20
ENDBRANCH   7   8
ENDBRANCH   4   7
BRANCH   1  22
HETATM   22  N2  UNL     1      28.718   6.703  47.813  1.00  0.00    -0.309 N 
HETATM   23  C5  UNL     1      30.062   6.329  48.122  1.00  0.00     0.320 C 
HETATM   24  N1  UNL     1      31.122   6.948  47.414  1.00  0.00    -0.343 N 
HETATM   25  O1  UNL     1      30.297   5.467  49.006  1.00  0.00    -0.247 OA
HETATM   26  H10 UNL     1      30.867   7.668  46.675  1.00  0.00     0.164 HD
HETATM   27  H11 UNL     1      28.457   7.412  47.091  1.00  0.00     0.170 HD
BRANCH  24  28
HETATM   28  C4  UNL     1      32.537   6.688  47.606  1.00  0.00     0.124 C 
BRANCH  28  29
HETATM   29  C3  UNL     1      33.064   6.061  46.338  1.00  0.00     0.019 C 
BRANCH  29  30
HETATM   30  C2  UNL     1      34.043   4.966  46.730  1.00  0.00    -0.003 C 
HETATM   31  C1  UNL     1      33.383   3.950  47.606  1.00  0.00     0.005 C 
ENDBRANCH  29  30
ENDBRANCH  28  29
ENDBRANCH  24  28
ENDBRANCH   1  22
TORSDOF 8
ENDMDL
MODEL 9
REMARK VINA RESULT:      -6.9     20.826     23.784
REMARK  8 active torsions:
REMARK  status: ('A' for Active; 'I' for Inactive)
REMARK    1  A    between atoms: C2_2  and  C3_3 
REMARK    2  A    between atoms: C3_3  and  C4_4 
REMARK    3  A    between atoms: C4_4  and  N1_5 
REMARK       I    between atoms: N1_5  and  C5_6 
REMARK       I    between atoms: C5_6  and  N2_8 
REMARK    4  A    between atoms: N2_8  and  C6_9 
REMARK    5  A    between atoms: C9_12  and  O2_13 
REMARK    6  A    between atoms: O2_13  and  C10_14 
REMARK    7  A    between atoms: C13_17  and  O3_18 
REMARK    8  A    between atoms: C15_20  and  O4_21 
ROOT
HETATM    1  C6  UNL     1      44.914   4.495  67.359  1.00  0.00     0.036 A 
HETATM    2  C7  UNL     1      44.746   3.152  67.190  1.00  0.00     0.032 A 
HETATM    3  C8  UNL     1      43.915   2.400  68.002  1.00  0.00     0.039 A 
HETATM    4  C9  UNL     1      43.218   3.020  69.034  1.00  0.00     0.078 A 
HETATM    5  C20 UNL     1      43.422   4.381  69.164  1.00  0.00     0.039 A 
HETATM    6  C21 UNL     1      44.238   5.152  68.376  1.00  0.00     0.032 A 
ENDROOT
BRANCH   4   7
HETATM    7  O2  UNL     1      42.350   2.376  69.922  1.00  0.00    -0.285 OA
BRANCH   7   8
HETATM    8  C10 UNL     1      42.421   1.017  70.114  1.00  0.00     0.228 C 
HETATM    9  C11 UNL     1      41.321   0.380  69.789  1.00  0.00    -0.013 C 
HETATM   10  C12 UNL     1      40.364  -0.197  69.498  1.00  0.00    -0.030 C 
HETATM   11  C13 UNL     1      39.297  -0.867  69.166  1.00  0.00     0.156 C 
HETATM   12  C15 UNL     1      39.760  -1.458  68.029  1.00  0.00     0.111 C 
HETATM   13  C17 UNL     1      40.812  -2.272  67.759  1.00  0.00     0.059 C 
HETATM   14  C18 UNL     1      42.039  -2.162  68.360  1.00  0.00     0.121 C 
HETATM   15  N3  UNL     1      43.223  -2.052  68.948  1.00  0.00    -0.254 NA
HETATM   16  C19 UNL     1      43.611  -0.981  69.663  1.00  0.00     0.236 C 
HETATM   17  N4  UNL     1      43.115  -0.049  70.497  1.00  0.00    -0.210 NA
BRANCH  11  18
HETATM   18  O3  UNL     1      38.107  -0.882  69.863  1.00  0.00    -0.345 OA
HETATM   19  C14 UNL     1      37.567  -2.152  70.244  1.00  0.00     0.211 C 
ENDBRANCH  11  18
BRANCH  12  20
HETATM   20  O4  UNL     1      38.849  -1.015  67.116  1.00  0.00    -0.352 OA
HETATM   21  C16 UNL     1      37.896  -1.827  66.487  1.00  0.00     0.210 C 
ENDBRANCH  12  20
ENDBRANCH   7   8
ENDBRANCH   4   7
BRANCH   1  22
HETATM   22  N2  UNL     1      45.781   5.230  66.499  1.00  0.00    -0.309 N 
HETATM   23  C5  UNL     1      45.302   5.769  65.265  1.00  0.00     0.320 C 
HETATM   24  N1  UNL     1      46.202   6.492  64.443  1.00  0.00    -0.343 N 
HETATM   25  O1  UNL     1      44.105   5.604  64.918  1.00  0.00    -0.247 OA
HETATM   26  H10 UNL     1      47.202   6.605  64.786  1.00  0.00     0.164 HD
HETATM   27  H11 UNL     1      46.762   5.332  66.843  1.00  0.00     0.170 HD
BRANCH  24  28
HETATM   28  C4  UNL     1      45.882   7.099  63.164  1.00  0.00     0.124 C 
BRANCH  28  29
HETATM   29  C3  UNL     1      45.949   6.018  62.113  1.00  0.00     0.019 C 
BRANCH  29  30
HETATM   30  C2  UNL     1      45.907   6.688  60.749  1.00  0.00    -0.003 C 
HETATM   31  C1  UNL     1      45.444   5.729  59.699  1.00  0.00     0.005 C 
ENDBRANCH  29  30
ENDBRANCH  28  29
ENDBRANCH  24  28
ENDBRANCH   1  22
TORSDOF 8
ENDMDL
