MODEL 1
REMARK VINA RESULT:     -11.2      0.000      0.000
REMARK  3 active torsions:
REMARK  status: ('A' for Active; 'I' for Inactive)
REMARK    1  A    between atoms: C10_13  and  C11_14 
REMARK    2  A    between atoms: C17_20  and  C18_21 
REMARK    3  A    between atoms: N5_30  and  N6_31 
ROOT
HETATM    1  C1  UNL     1      27.848   2.322  52.952  1.00  0.00     0.049 C 
HETATM    2  C2  UNL     1      26.704   1.352  52.827  1.00  0.00     0.091 C 
HETATM    3  C3  UNL     1      27.127  -0.096  52.680  1.00  0.00     0.067 C 
HETATM    4  C4  UNL     1      25.983  -0.446  53.602  1.00  0.00     0.107 C 
HETATM    5  C5  UNL     1      26.063   0.963  54.139  1.00  0.00     0.067 C 
HETATM    6  N1  UNL     1      24.720  -0.635  52.873  1.00  0.00    -0.308 N 
HETATM    7  N2  UNL     1      23.778  -0.761  53.932  1.00  0.00    -0.175 NA
HETATM    8  C6  UNL     1      22.634  -0.227  53.849  1.00  0.00     0.125 C 
HETATM    9  C7  UNL     1      22.233  -0.028  52.602  1.00  0.00     0.152 C 
HETATM   10  N3  UNL     1      23.146   0.994  52.141  1.00  0.00    -0.271 NA
HETATM   11  C8  UNL     1      22.870   1.465  50.950  1.00  0.00     0.118 C 
HETATM   12  C9  UNL     1      23.642   2.495  50.277  1.00  0.00     0.053 C 
HETATM   13  C10 UNL     1      24.713   3.186  50.608  1.00  0.00     0.087 C 
HETATM   14  N5  UNL     1      25.123   2.757  51.909  1.00  0.00    -0.185 N 
HETATM   15  O1  UNL     1      25.770   1.599  51.876  1.00  0.00    -0.251 OA
HETATM   16  H9  UNL     1      24.821  -0.634  51.813  1.00  0.00     0.182 HD
ENDROOT
BRANCH  13  17
HETATM   17  C11 UNL     1      25.433   4.214  49.868  1.00  0.00    -0.003 A 
HETATM   18  C12 UNL     1      24.814   5.371  49.473  1.00  0.00     0.015 A 
HETATM   19  C13 UNL     1      25.462   6.383  48.772  1.00  0.00     0.014 A 
HETATM   20  C14 UNL     1      26.801   6.146  48.493  1.00  0.00    -0.007 A 
HETATM   21  C15 UNL     1      27.503   7.112  47.802  1.00  0.00     0.016 A 
HETATM   22  C24 UNL     1      27.422   4.973  48.897  1.00  0.00     0.068 A 
HETATM   23  C16 UNL     1      28.835   6.952  47.488  1.00  0.00     0.033 A 
HETATM   24  C17 UNL     1      29.426   5.778  47.900  1.00  0.00     0.067 A 
HETATM   25  N4  UNL     1      28.722   4.852  48.572  1.00  0.00    -0.248 NA
HETATM   26  C25 UNL     1      26.754   3.988  49.589  1.00  0.00     0.046 A 
BRANCH  24  27
HETATM   27  C18 UNL     1      30.829   5.524  47.613  1.00  0.00    -0.007 A 
HETATM   28  C19 UNL     1      31.797   6.496  47.531  1.00  0.00     0.014 A 
HETATM   29  C20 UNL     1      33.120   6.219  47.256  1.00  0.00     0.001 A 
HETATM   30  C21 UNL     1      33.499   4.900  47.051  1.00  0.00     0.000 A 
HETATM   31  C22 UNL     1      32.590   3.856  47.115  1.00  0.00     0.001 A 
HETATM   32  C23 UNL     1      31.293   4.252  47.397  1.00  0.00     0.014 A 
ENDBRANCH  24  27
ENDBRANCH  13  17
BRANCH  14  33
HETATM   33  N6  UNL     1      24.588   3.865  52.588  1.00  0.00    -0.222 NA
HETATM   34  H23 UNL     1      23.961   3.446  53.340  1.00  0.00     0.145 HD
HETATM   35  H24 UNL     1      25.319   4.373  53.143  1.00  0.00     0.145 HD
ENDBRANCH  14  33
TORSDOF 3
ENDMDL
MODEL 2
REMARK VINA RESULT:     -10.5      3.480      7.736
REMARK  3 active torsions:
REMARK  status: ('A' for Active; 'I' for Inactive)
REMARK    1  A    between atoms: C10_13  and  C11_14 
REMARK    2  A    between atoms: C17_20  and  C18_21 
REMARK    3  A    between atoms: N5_30  and  N6_31 
ROOT
HETATM    1  C1  UNL     1      26.274   4.930  49.208  1.00  0.00     0.049 C 
HETATM    2  C2  UNL     1      25.483   6.201  49.367  1.00  0.00     0.091 C 
HETATM    3  C3  UNL     1      26.304   7.393  49.815  1.00  0.00     0.067 C 
HETATM    4  C4  UNL     1      25.498   8.220  48.841  1.00  0.00     0.107 C 
HETATM    5  C5  UNL     1      25.226   6.947  48.077  1.00  0.00     0.067 C 
HETATM    6  N1  UNL     1      24.252   8.724  49.438  1.00  0.00    -0.308 N 
HETATM    7  N2  UNL     1      23.589   9.291  48.315  1.00  0.00    -0.175 NA
HETATM    8  C6  UNL     1      22.338   9.162  48.167  1.00  0.00     0.125 C 
HETATM    9  C7  UNL     1      21.691   8.950  49.303  1.00  0.00     0.152 C 
HETATM   10  N3  UNL     1      22.151   7.632  49.681  1.00  0.00    -0.271 NA
HETATM   11  C8  UNL     1      21.545   7.131  50.730  1.00  0.00     0.118 C 
HETATM   12  C9  UNL     1      21.834   5.825  51.296  1.00  0.00     0.053 C 
HETATM   13  C10 UNL     1      22.677   4.865  50.977  1.00  0.00     0.087 C 
HETATM   14  N5  UNL     1      23.414   5.296  49.830  1.00  0.00    -0.185 N 
HETATM   15  O1  UNL     1      24.373   6.159  50.142  1.00  0.00    -0.251 OA
HETATM   16  H9  UNL     1      24.168   8.553  50.486  1.00  0.00     0.182 HD
ENDROOT
BRANCH  13  17
HETATM   17  C11 UNL     1      22.908   3.570  51.604  1.00  0.00    -0.003 A 
HETATM   18  C12 UNL     1      21.864   2.793  52.031  1.00  0.00     0.015 A 
HETATM   19  C13 UNL     1      22.034   1.546  52.628  1.00  0.00     0.014 A 
HETATM   20  C14 UNL     1      23.352   1.131  52.765  1.00  0.00    -0.007 A 
HETATM   21  C15 UNL     1      23.590  -0.097  53.346  1.00  0.00     0.016 A 
HETATM   22  C24 UNL     1      24.404   1.924  52.329  1.00  0.00     0.068 A 
HETATM   23  C16 UNL     1      24.869  -0.580  53.517  1.00  0.00     0.033 A 
HETATM   24  C17 UNL     1      25.894   0.228  53.076  1.00  0.00     0.067 A 
HETATM   25  N4  UNL     1      25.637   1.419  52.512  1.00  0.00    -0.248 NA
HETATM   26  C25 UNL     1      24.204   3.153  51.742  1.00  0.00     0.046 A 
BRANCH  24  27
HETATM   27  C18 UNL     1      27.276  -0.203  53.214  1.00  0.00    -0.007 A 
HETATM   28  C19 UNL     1      27.720  -1.486  52.999  1.00  0.00     0.014 A 
HETATM   29  C20 UNL     1      29.040  -1.859  53.141  1.00  0.00     0.001 A 
HETATM   30  C21 UNL     1      29.970  -0.901  53.518  1.00  0.00     0.000 A 
HETATM   31  C22 UNL     1      29.612   0.417  53.754  1.00  0.00     0.001 A 
HETATM   32  C23 UNL     1      28.262   0.676  53.583  1.00  0.00     0.014 A 
ENDBRANCH  24  27
ENDBRANCH  13  17
BRANCH  14  33
HETATM   33  N6  UNL     1      22.684   4.527  48.908  1.00  0.00    -0.222 NA
HETATM   34  H23 UNL     1      21.762   4.316  49.400  1.00  0.00     0.145 HD
HETATM   35  H24 UNL     1      22.387   5.092  48.077  1.00  0.00     0.145 HD
ENDBRANCH  14  33
TORSDOF 3
ENDMDL
MODEL 3
REMARK VINA RESULT:     -10.0      2.695      9.252
REMARK  3 active torsions:
REMARK  status: ('A' for Active; 'I' for Inactive)
REMARK    1  A    between atoms: C10_13  and  C11_14 
REMARK    2  A    between atoms: C17_20  and  C18_21 
REMARK    3  A    between atoms: N5_30  and  N6_31 
ROOT
HETATM    1  C1  UNL     1      23.528   8.604  48.624  1.00  0.00     0.049 C 
HETATM    2  C2  UNL     1      24.931   8.672  48.082  1.00  0.00     0.091 C 
HETATM    3  C3  UNL     1      25.034   9.262  46.690  1.00  0.00     0.067 C 
HETATM    4  C4  UNL     1      26.276   9.977  47.166  1.00  0.00     0.107 C 
HETATM    5  C5  UNL     1      25.737   9.853  48.571  1.00  0.00     0.067 C 
HETATM    6  N1  UNL     1      27.484   9.152  47.017  1.00  0.00    -0.308 N 
HETATM    7  N2  UNL     1      28.466   9.934  47.688  1.00  0.00    -0.175 NA
HETATM    8  C6  UNL     1      29.345   9.385  48.415  1.00  0.00     0.125 C 
HETATM    9  C7  UNL     1      29.583   8.122  48.095  1.00  0.00     0.152 C 
HETATM   10  N3  UNL     1      28.346   7.470  48.463  1.00  0.00    -0.271 NA
HETATM   11  C8  UNL     1      28.375   6.163  48.360  1.00  0.00     0.118 C 
HETATM   12  C9  UNL     1      27.256   5.292  48.674  1.00  0.00     0.053 C 
HETATM   13  C10 UNL     1      26.031   5.509  49.103  1.00  0.00     0.087 C 
HETATM   14  N5  UNL     1      25.867   6.922  49.256  1.00  0.00    -0.185 N 
HETATM   15  O1  UNL     1      25.666   7.534  48.096  1.00  0.00    -0.251 OA
HETATM   16  H9  UNL     1      27.332   8.246  46.480  1.00  0.00     0.182 HD
ENDROOT
BRANCH  13  17
HETATM   17  C11 UNL     1      24.957   4.569  49.397  1.00  0.00    -0.003 A 
HETATM   18  C12 UNL     1      23.833   4.509  48.616  1.00  0.00     0.015 A 
HETATM   19  C13 UNL     1      22.786   3.623  48.852  1.00  0.00     0.014 A 
HETATM   20  C14 UNL     1      22.953   2.788  49.949  1.00  0.00    -0.007 A 
HETATM   21  C15 UNL     1      21.952   1.885  50.238  1.00  0.00     0.016 A 
HETATM   22  C24 UNL     1      24.094   2.855  50.735  1.00  0.00     0.068 A 
HETATM   23  C16 UNL     1      22.043   1.022  51.308  1.00  0.00     0.033 A 
HETATM   24  C17 UNL     1      23.186   1.110  52.071  1.00  0.00     0.067 A 
HETATM   25  N4  UNL     1      24.148   1.997  51.770  1.00  0.00    -0.248 NA
HETATM   26  C25 UNL     1      25.115   3.743  50.476  1.00  0.00     0.046 A 
BRANCH  24  27
HETATM   27  C18 UNL     1      23.368   0.237  53.219  1.00  0.00    -0.007 A 
HETATM   28  C19 UNL     1      22.347  -0.384  53.900  1.00  0.00     0.014 A 
HETATM   29  C20 UNL     1      22.557  -1.205  54.986  1.00  0.00     0.001 A 
HETATM   30  C21 UNL     1      23.857  -1.423  55.421  1.00  0.00     0.000 A 
HETATM   31  C22 UNL     1      24.947  -0.839  54.796  1.00  0.00     0.001 A 
HETATM   32  C23 UNL     1      24.617  -0.033  53.718  1.00  0.00     0.014 A 
ENDBRANCH  24  27
ENDBRANCH  13  17
BRANCH  14  33
HETATM   33  N6  UNL     1      26.016   6.922  50.653  1.00  0.00    -0.222 NA
HETATM   34  H23 UNL     1      26.736   7.683  50.850  1.00  0.00     0.145 HD
HETATM   35  H24 UNL     1      25.156   7.276  51.137  1.00  0.00     0.145 HD
ENDBRANCH  14  33
TORSDOF 3
ENDMDL
MODEL 4
REMARK VINA RESULT:      -9.9      3.278     10.270
REMARK  3 active torsions:
REMARK  status: ('A' for Active; 'I' for Inactive)
REMARK    1  A    between atoms: C10_13  and  C11_14 
REMARK    2  A    between atoms: C17_20  and  C18_21 
REMARK    3  A    between atoms: N5_30  and  N6_31 
ROOT
HETATM    1  C1  UNL     1      20.965   4.655  50.842  1.00  0.00     0.049 C 
HETATM    2  C2  UNL     1      22.130   4.984  49.947  1.00  0.00     0.091 C 
HETATM    3  C3  UNL     1      21.777   5.082  48.477  1.00  0.00     0.067 C 
HETATM    4  C4  UNL     1      22.707   6.271  48.410  1.00  0.00     0.107 C 
HETATM    5  C5  UNL     1      22.486   6.453  49.893  1.00  0.00     0.067 C 
HETATM    6  N1  UNL     1      24.100   5.874  48.155  1.00  0.00    -0.308 N 
HETATM    7  N2  UNL     1      24.798   7.102  48.322  1.00  0.00    -0.175 NA
HETATM    8  C6  UNL     1      25.923   7.135  48.902  1.00  0.00     0.125 C 
HETATM    9  C7  UNL     1      26.575   5.983  48.857  1.00  0.00     0.152 C 
HETATM   10  N3  UNL     1      25.758   5.130  49.692  1.00  0.00    -0.271 NA
HETATM   11  C8  UNL     1      26.271   3.945  49.914  1.00  0.00     0.118 C 
HETATM   12  C9  UNL     1      25.638   2.917  50.723  1.00  0.00     0.053 C 
HETATM   13  C10 UNL     1      24.508   2.861  51.394  1.00  0.00     0.087 C 
HETATM   14  N5  UNL     1      23.839   4.115  51.227  1.00  0.00    -0.185 N 
HETATM   15  O1  UNL     1      23.238   4.212  50.048  1.00  0.00    -0.251 OA
HETATM   16  H9  UNL     1      24.226   4.843  47.922  1.00  0.00     0.182 HD
ENDROOT
BRANCH  13  17
HETATM   17  C11 UNL     1      23.939   1.781  52.189  1.00  0.00    -0.003 A 
HETATM   18  C12 UNL     1      24.691   1.111  53.118  1.00  0.00     0.015 A 
HETATM   19  C13 UNL     1      24.190   0.078  53.906  1.00  0.00     0.014 A 
HETATM   20  C14 UNL     1      22.856  -0.237  53.688  1.00  0.00    -0.007 A 
HETATM   21  C15 UNL     1      22.296  -1.251  54.438  1.00  0.00     0.016 A 
HETATM   22  C24 UNL     1      22.100   0.445  52.746  1.00  0.00     0.068 A 
HETATM   23  C16 UNL     1      20.979  -1.624  54.282  1.00  0.00     0.033 A 
HETATM   24  C17 UNL     1      20.253  -0.930  53.339  1.00  0.00     0.067 A 
HETATM   25  N4  UNL     1      20.819   0.054  52.622  1.00  0.00    -0.248 NA
HETATM   26  C25 UNL     1      22.624   1.463  51.981  1.00  0.00     0.046 A 
BRANCH  24  27
HETATM   27  C18 UNL     1      18.854  -1.254  53.109  1.00  0.00    -0.007 A 
HETATM   28  C19 UNL     1      18.231  -2.392  53.563  1.00  0.00     0.014 A 
HETATM   29  C20 UNL     1      16.901  -2.668  53.324  1.00  0.00     0.001 A 
HETATM   30  C21 UNL     1      16.150  -1.760  52.592  1.00  0.00     0.000 A 
HETATM   31  C22 UNL     1      16.696  -0.587  52.094  1.00  0.00     0.001 A 
HETATM   32  C23 UNL     1      18.037  -0.416  52.394  1.00  0.00     0.014 A 
ENDBRANCH  24  27
ENDBRANCH  13  17
BRANCH  14  33
HETATM   33  N6  UNL     1      24.194   4.623  52.488  1.00  0.00    -0.222 NA
HETATM   34  H23 UNL     1      23.307   4.544  53.073  1.00  0.00     0.145 HD
HETATM   35  H24 UNL     1      24.865   3.991  52.989  1.00  0.00     0.145 HD
ENDBRANCH  14  33
TORSDOF 3
ENDMDL
MODEL 5
REMARK VINA RESULT:      -9.9      6.162      8.969
REMARK  3 active torsions:
REMARK  status: ('A' for Active; 'I' for Inactive)
REMARK    1  A    between atoms: C10_13  and  C11_14 
REMARK    2  A    between atoms: C17_20  and  C18_21 
REMARK    3  A    between atoms: N5_30  and  N6_31 
ROOT
HETATM    1  C1  UNL     1      16.698  -0.167  52.344  1.00  0.00     0.049 C 
HETATM    2  C2  UNL     1      16.848   0.342  50.935  1.00  0.00     0.091 C 
HETATM    3  C3  UNL     1      16.188  -0.529  49.885  1.00  0.00     0.067 C 
HETATM    4  C4  UNL     1      15.747   0.749  49.211  1.00  0.00     0.107 C 
HETATM    5  C5  UNL     1      15.871   1.430  50.553  1.00  0.00     0.067 C 
HETATM    6  N1  UNL     1      16.765   1.270  48.287  1.00  0.00    -0.308 N 
HETATM    7  N2  UNL     1      16.226   2.537  47.929  1.00  0.00    -0.175 NA
HETATM    8  C6  UNL     1      16.976   3.550  47.806  1.00  0.00     0.125 C 
HETATM    9  C7  UNL     1      18.235   3.245  47.531  1.00  0.00     0.152 C 
HETATM   10  N3  UNL     1      18.675   2.611  48.754  1.00  0.00    -0.271 NA
HETATM   11  C8  UNL     1      19.955   2.326  48.781  1.00  0.00     0.118 C 
HETATM   12  C9  UNL     1      20.628   1.690  49.900  1.00  0.00     0.053 C 
HETATM   13  C10 UNL     1      20.223   1.261  51.076  1.00  0.00     0.087 C 
HETATM   14  N5  UNL     1      18.818   1.515  51.172  1.00  0.00    -0.185 N 
HETATM   15  O1  UNL     1      18.099   0.626  50.499  1.00  0.00    -0.251 OA
HETATM   16  H9  UNL     1      17.589   0.615  48.126  1.00  0.00     0.182 HD
ENDROOT
BRANCH  13  17
HETATM   17  C11 UNL     1      20.970   0.628  52.155  1.00  0.00    -0.003 A 
HETATM   18  C12 UNL     1      20.328   0.020  53.202  1.00  0.00     0.015 A 
HETATM   19  C13 UNL     1      20.999  -0.604  54.250  1.00  0.00     0.014 A 
HETATM   20  C14 UNL     1      22.384  -0.574  54.167  1.00  0.00    -0.007 A 
HETATM   21  C15 UNL     1      23.109  -1.177  55.174  1.00  0.00     0.016 A 
HETATM   22  C24 UNL     1      23.027   0.042  53.104  1.00  0.00     0.068 A 
HETATM   23  C16 UNL     1      24.487  -1.191  55.164  1.00  0.00     0.033 A 
HETATM   24  C17 UNL     1      25.099  -0.572  54.096  1.00  0.00     0.067 A 
HETATM   25  N4  UNL     1      24.372   0.008  53.128  1.00  0.00    -0.248 NA
HETATM   26  C25 UNL     1      22.336   0.653  52.080  1.00  0.00     0.046 A 
BRANCH  24  27
HETATM   27  C18 UNL     1      26.550  -0.539  54.003  1.00  0.00    -0.007 A 
HETATM   28  C19 UNL     1      27.293  -1.285  53.119  1.00  0.00     0.014 A 
HETATM   29  C20 UNL     1      28.669  -1.230  53.059  1.00  0.00     0.001 A 
HETATM   30  C21 UNL     1      29.344  -0.384  53.928  1.00  0.00     0.000 A 
HETATM   31  C22 UNL     1      28.676   0.404  54.852  1.00  0.00     0.001 A 
HETATM   32  C23 UNL     1      27.298   0.266  54.822  1.00  0.00     0.014 A 
ENDBRANCH  24  27
ENDBRANCH  13  17
BRANCH  14  33
HETATM   33  N6  UNL     1      18.946   2.653  51.986  1.00  0.00    -0.222 NA
HETATM   34  H23 UNL     1      18.404   3.416  51.474  1.00  0.00     0.145 HD
HETATM   35  H24 UNL     1      18.418   2.551  52.886  1.00  0.00     0.145 HD
ENDBRANCH  14  33
TORSDOF 3
ENDMDL
MODEL 6
REMARK VINA RESULT:      -9.8      4.721      8.143
REMARK  3 active torsions:
REMARK  status: ('A' for Active; 'I' for Inactive)
REMARK    1  A    between atoms: C10_13  and  C11_14 
REMARK    2  A    between atoms: C17_20  and  C18_21 
REMARK    3  A    between atoms: N5_30  and  N6_31 
ROOT
HETATM    1  C1  UNL     1      24.067   3.331  49.219  1.00  0.00     0.049 C 
HETATM    2  C2  UNL     1      22.931   4.311  49.097  1.00  0.00     0.091 C 
HETATM    3  C3  UNL     1      23.355   5.765  49.143  1.00  0.00     0.067 C 
HETATM    4  C4  UNL     1      22.340   6.018  48.053  1.00  0.00     0.107 C 
HETATM    5  C5  UNL     1      22.465   4.560  47.680  1.00  0.00     0.067 C 
HETATM    6  N1  UNL     1      20.999   6.286  48.593  1.00  0.00    -0.308 N 
HETATM    7  N2  UNL     1      20.198   6.301  47.417  1.00  0.00    -0.175 NA
HETATM    8  C6  UNL     1      19.045   5.780  47.411  1.00  0.00     0.125 C 
HETATM    9  C7  UNL     1      18.488   5.715  48.611  1.00  0.00     0.152 C 
HETATM   10  N3  UNL     1      19.322   4.746  49.288  1.00  0.00    -0.271 NA
HETATM   11  C8  UNL     1      18.891   4.405  50.478  1.00  0.00     0.118 C 
HETATM   12  C9  UNL     1      19.558   3.449  51.347  1.00  0.00     0.053 C 
HETATM   13  C10 UNL     1      20.650   2.726  51.228  1.00  0.00     0.087 C 
HETATM   14  N5  UNL     1      21.227   3.013  49.951  1.00  0.00    -0.185 N 
HETATM   15  O1  UNL     1      21.882   4.167  49.943  1.00  0.00    -0.251 OA
HETATM   16  H9  UNL     1      20.967   6.396  49.652  1.00  0.00     0.182 HD
ENDROOT
BRANCH  13  17
HETATM   17  C11 UNL     1      21.257   1.780  52.156  1.00  0.00    -0.003 A 
HETATM   18  C12 UNL     1      20.491   1.039  53.016  1.00  0.00     0.015 A 
HETATM   19  C13 UNL     1      21.025   0.119  53.914  1.00  0.00     0.014 A 
HETATM   20  C14 UNL     1      22.407  -0.004  53.884  1.00  0.00    -0.007 A 
HETATM   21  C15 UNL     1      23.000  -0.901  54.748  1.00  0.00     0.016 A 
HETATM   22  C24 UNL     1      23.177   0.750  53.010  1.00  0.00     0.068 A 
HETATM   23  C16 UNL     1      24.365  -1.082  54.779  1.00  0.00     0.033 A 
HETATM   24  C17 UNL     1      25.104  -0.320  53.901  1.00  0.00     0.067 A 
HETATM   25  N4  UNL     1      24.505   0.546  53.068  1.00  0.00    -0.248 NA
HETATM   26  C25 UNL     1      22.620   1.653  52.132  1.00  0.00     0.046 A 
BRANCH  24  27
HETATM   27  C18 UNL     1      26.552  -0.446  53.863  1.00  0.00    -0.007 A 
HETATM   28  C19 UNL     1      27.240  -1.330  53.066  1.00  0.00     0.014 A 
HETATM   29  C20 UNL     1      28.615  -1.423  53.057  1.00  0.00     0.001 A 
HETATM   30  C21 UNL     1      29.348  -0.588  53.888  1.00  0.00     0.000 A 
HETATM   31  C22 UNL     1      28.740   0.334  54.724  1.00  0.00     0.001 A 
HETATM   32  C23 UNL     1      27.356   0.338  54.651  1.00  0.00     0.014 A 
ENDBRANCH  24  27
ENDBRANCH  13  17
BRANCH  14  33
HETATM   33  N6  UNL     1      20.764   1.841  49.330  1.00  0.00    -0.222 NA
HETATM   34  H23 UNL     1      20.949   1.067  50.038  1.00  0.00     0.145 HD
HETATM   35  H24 UNL     1      19.720   1.834  49.237  1.00  0.00     0.145 HD
ENDBRANCH  14  33
TORSDOF 3
ENDMDL
MODEL 7
REMARK VINA RESULT:      -9.8      5.357      8.212
REMARK  3 active torsions:
REMARK  status: ('A' for Active; 'I' for Inactive)
REMARK    1  A    between atoms: C10_13  and  C11_14 
REMARK    2  A    between atoms: C17_20  and  C18_21 
REMARK    3  A    between atoms: N5_30  and  N6_31 
ROOT
HETATM    1  C1  UNL     1      18.370   4.344  50.550  1.00  0.00     0.049 C 
HETATM    2  C2  UNL     1      17.433   3.271  51.039  1.00  0.00     0.091 C 
HETATM    3  C3  UNL     1      16.306   3.780  51.914  1.00  0.00     0.067 C 
HETATM    4  C4  UNL     1      15.405   2.806  51.190  1.00  0.00     0.107 C 
HETATM    5  C5  UNL     1      16.380   2.852  50.038  1.00  0.00     0.067 C 
HETATM    6  N1  UNL     1      15.420   1.472  51.808  1.00  0.00    -0.308 N 
HETATM    7  N2  UNL     1      14.675   0.700  50.872  1.00  0.00    -0.175 NA
HETATM    8  C6  UNL     1      15.024  -0.482  50.585  1.00  0.00     0.125 C 
HETATM    9  C7  UNL     1      15.740  -1.068  51.532  1.00  0.00     0.152 C 
HETATM   10  N3  UNL     1      16.970  -0.309  51.506  1.00  0.00    -0.271 NA
HETATM   11  C8  UNL     1      17.912  -0.785  52.284  1.00  0.00     0.118 C 
HETATM   12  C9  UNL     1      19.233  -0.196  52.425  1.00  0.00     0.053 C 
HETATM   13  C10 UNL     1      19.818   0.854  51.889  1.00  0.00     0.087 C 
HETATM   14  N5  UNL     1      18.878   1.475  51.008  1.00  0.00    -0.185 N 
HETATM   15  O1  UNL     1      17.977   2.198  51.661  1.00  0.00    -0.251 OA
HETATM   16  H9  UNL     1      15.942   1.423  52.734  1.00  0.00     0.182 HD
ENDROOT
BRANCH  13  17
HETATM   17  C11 UNL     1      21.162   1.383  52.085  1.00  0.00    -0.003 A 
HETATM   18  C12 UNL     1      21.391   2.732  52.145  1.00  0.00     0.015 A 
HETATM   19  C13 UNL     1      22.655   3.284  52.338  1.00  0.00     0.014 A 
HETATM   20  C14 UNL     1      23.687   2.366  52.470  1.00  0.00    -0.007 A 
HETATM   21  C15 UNL     1      24.965   2.847  52.666  1.00  0.00     0.016 A 
HETATM   22  C24 UNL     1      23.447   1.001  52.409  1.00  0.00     0.068 A 
HETATM   23  C16 UNL     1      26.043   2.001  52.807  1.00  0.00     0.033 A 
HETATM   24  C17 UNL     1      25.776   0.651  52.741  1.00  0.00     0.067 A 
HETATM   25  N4  UNL     1      24.523   0.206  52.551  1.00  0.00    -0.248 NA
HETATM   26  C25 UNL     1      22.185   0.484  52.216  1.00  0.00     0.046 A 
BRANCH  24  27
HETATM   27  C18 UNL     1      26.853  -0.316  52.881  1.00  0.00    -0.007 A 
HETATM   28  C19 UNL     1      26.746  -1.654  52.583  1.00  0.00     0.014 A 
HETATM   29  C20 UNL     1      27.790  -2.543  52.729  1.00  0.00     0.001 A 
HETATM   30  C21 UNL     1      29.008  -2.074  53.198  1.00  0.00     0.000 A 
HETATM   31  C22 UNL     1      29.207  -0.741  53.523  1.00  0.00     0.001 A 
HETATM   32  C23 UNL     1      28.090   0.058  53.338  1.00  0.00     0.014 A 
ENDBRANCH  24  27
ENDBRANCH  13  17
BRANCH  14  33
HETATM   33  N6  UNL     1      19.441   0.957  49.829  1.00  0.00    -0.222 NA
HETATM   34  H23 UNL     1      19.489   1.788  49.163  1.00  0.00     0.145 HD
HETATM   35  H24 UNL     1      20.449   0.698  49.959  1.00  0.00     0.145 HD
ENDBRANCH  14  33
TORSDOF 3
ENDMDL
MODEL 8
REMARK VINA RESULT:      -9.7      3.043      9.708
REMARK  3 active torsions:
REMARK  status: ('A' for Active; 'I' for Inactive)
REMARK    1  A    between atoms: C10_13  and  C11_14 
REMARK    2  A    between atoms: C17_20  and  C18_21 
REMARK    3  A    between atoms: N5_30  and  N6_31 
ROOT
HETATM    1  C1  UNL     1      21.719   5.541  49.550  1.00  0.00     0.049 C 
HETATM    2  C2  UNL     1      22.816   6.047  48.652  1.00  0.00     0.091 C 
HETATM    3  C3  UNL     1      22.442   6.106  47.184  1.00  0.00     0.067 C 
HETATM    4  C4  UNL     1      23.185   7.420  47.124  1.00  0.00     0.107 C 
HETATM    5  C5  UNL     1      22.950   7.552  48.610  1.00  0.00     0.067 C 
HETATM    6  N1  UNL     1      24.619   7.235  46.857  1.00  0.00    -0.308 N 
HETATM    7  N2  UNL     1      25.129   8.552  47.033  1.00  0.00    -0.175 NA
HETATM    8  C6  UNL     1      26.241   8.746  47.606  1.00  0.00     0.125 C 
HETATM    9  C7  UNL     1      27.056   7.703  47.545  1.00  0.00     0.152 C 
HETATM   10  N3  UNL     1      26.381   6.732  48.376  1.00  0.00    -0.271 NA
HETATM   11  C8  UNL     1      27.065   5.633  48.583  1.00  0.00     0.118 C 
HETATM   12  C9  UNL     1      26.597   4.515  49.384  1.00  0.00     0.053 C 
HETATM   13  C10 UNL     1      25.493   4.286  50.062  1.00  0.00     0.087 C 
HETATM   14  N5  UNL     1      24.645   5.428  49.912  1.00  0.00    -0.185 N 
HETATM   15  O1  UNL     1      24.027   5.447  48.738  1.00  0.00    -0.251 OA
HETATM   16  H9  UNL     1      24.895   6.237  46.613  1.00  0.00     0.182 HD
ENDROOT
BRANCH  13  17
HETATM   17  C11 UNL     1      25.096   3.126  50.849  1.00  0.00    -0.003 A 
HETATM   18  C12 UNL     1      26.016   2.406  51.565  1.00  0.00     0.015 A 
HETATM   19  C13 UNL     1      25.684   1.296  52.336  1.00  0.00     0.014 A 
HETATM   20  C14 UNL     1      24.338   0.957  52.337  1.00  0.00    -0.007 A 
HETATM   21  C15 UNL     1      23.941  -0.133  53.083  1.00  0.00     0.016 A 
HETATM   22  C24 UNL     1      23.412   1.691  51.609  1.00  0.00     0.068 A 
HETATM   23  C16 UNL     1      22.623  -0.533  53.136  1.00  0.00     0.033 A 
HETATM   24  C17 UNL     1      21.726   0.214  52.404  1.00  0.00     0.067 A 
HETATM   25  N4  UNL     1      22.136   1.271  51.685  1.00  0.00    -0.248 NA
HETATM   26  C25 UNL     1      23.770   2.785  50.854  1.00  0.00     0.046 A 
BRANCH  24  27
HETATM   27  C18 UNL     1      20.315  -0.135  52.403  1.00  0.00    -0.007 A 
HETATM   28  C19 UNL     1      19.687  -0.858  53.389  1.00  0.00     0.014 A 
HETATM   29  C20 UNL     1      18.344  -1.171  53.354  1.00  0.00     0.001 A 
HETATM   30  C21 UNL     1      17.584  -0.741  52.276  1.00  0.00     0.000 A 
HETATM   31  C22 UNL     1      18.134  -0.007  51.236  1.00  0.00     0.001 A 
HETATM   32  C23 UNL     1      19.488   0.247  51.377  1.00  0.00     0.014 A 
ENDBRANCH  24  27
ENDBRANCH  13  17
BRANCH  14  33
HETATM   33  N6  UNL     1      24.930   5.971  51.176  1.00  0.00    -0.222 NA
HETATM   34  H23 UNL     1      24.370   5.377  51.861  1.00  0.00     0.145 HD
HETATM   35  H24 UNL     1      25.923   5.793  51.463  1.00  0.00     0.145 HD
ENDBRANCH  14  33
TORSDOF 3
ENDMDL
MODEL 9
REMARK VINA RESULT:      -9.5      3.152      9.642
REMARK  3 active torsions:
REMARK  status: ('A' for Active; 'I' for Inactive)
REMARK    1  A    between atoms: C10_13  and  C11_14 
REMARK    2  A    between atoms: C17_20  and  C18_21 
REMARK    3  A    between atoms: N5_30  and  N6_31 
ROOT
HETATM    1  C1  UNL     1      30.018  10.181  47.288  1.00  0.00     0.049 C 
HETATM    2  C2  UNL     1      31.180   9.287  46.944  1.00  0.00     0.091 C 
HETATM    3  C3  UNL     1      31.804   9.568  45.593  1.00  0.00     0.067 C 
HETATM    4  C4  UNL     1      33.145   9.343  46.249  1.00  0.00     0.107 C 
HETATM    5  C5  UNL     1      32.495   9.699  47.565  1.00  0.00     0.067 C 
HETATM    6  N1  UNL     1      33.534   7.925  46.248  1.00  0.00    -0.308 N 
HETATM    7  N2  UNL     1      34.701   7.933  47.064  1.00  0.00    -0.175 NA
HETATM    8  C6  UNL     1      34.918   7.001  47.892  1.00  0.00     0.125 C 
HETATM    9  C7  UNL     1      34.314   5.864  47.580  1.00  0.00     0.152 C 
HETATM   10  N3  UNL     1      32.918   6.195  47.762  1.00  0.00    -0.271 NA
HETATM   11  C8  UNL     1      32.103   5.176  47.635  1.00  0.00     0.118 C 
HETATM   12  C9  UNL     1      30.660   5.259  47.774  1.00  0.00     0.053 C 
HETATM   13  C10 UNL     1      29.831   6.247  48.037  1.00  0.00     0.087 C 
HETATM   14  N5  UNL     1      30.607   7.437  48.196  1.00  0.00    -0.185 N 
HETATM   15  O1  UNL     1      30.990   7.948  47.033  1.00  0.00    -0.251 OA
HETATM   16  H9  UNL     1      32.894   7.296  45.676  1.00  0.00     0.182 HD
ENDROOT
BRANCH  13  17
HETATM   17  C11 UNL     1      28.379   6.247  48.161  1.00  0.00    -0.003 A 
HETATM   18  C12 UNL     1      27.625   7.283  47.675  1.00  0.00     0.015 A 
HETATM   19  C13 UNL     1      26.237   7.325  47.763  1.00  0.00     0.014 A 
HETATM   20  C14 UNL     1      25.651   6.231  48.385  1.00  0.00    -0.007 A 
HETATM   21  C15 UNL     1      24.277   6.208  48.503  1.00  0.00     0.016 A 
HETATM   22  C24 UNL     1      26.420   5.185  48.875  1.00  0.00     0.068 A 
HETATM   23  C16 UNL     1      23.619   5.158  49.107  1.00  0.00     0.033 A 
HETATM   24  C17 UNL     1      24.408   4.135  49.584  1.00  0.00     0.067 A 
HETATM   25  N4  UNL     1      25.744   4.178  49.456  1.00  0.00    -0.248 NA
HETATM   26  C25 UNL     1      27.793   5.172  48.773  1.00  0.00     0.046 A 
BRANCH  24  27
HETATM   27  C18 UNL     1      23.800   2.985  50.234  1.00  0.00    -0.007 A 
HETATM   28  C19 UNL     1      24.272   2.396  51.383  1.00  0.00     0.014 A 
HETATM   29  C20 UNL     1      23.669   1.305  51.972  1.00  0.00     0.001 A 
HETATM   30  C21 UNL     1      22.532   0.770  51.384  1.00  0.00     0.000 A 
HETATM   31  C22 UNL     1      21.986   1.299  50.225  1.00  0.00     0.001 A 
HETATM   32  C23 UNL     1      22.675   2.391  49.723  1.00  0.00     0.014 A 
ENDBRANCH  24  27
ENDBRANCH  13  17
BRANCH  14  33
HETATM   33  N6  UNL     1      30.554   7.442  49.600  1.00  0.00    -0.222 NA
HETATM   34  H23 UNL     1      31.105   8.307  49.890  1.00  0.00     0.145 HD
HETATM   35  H24 UNL     1      29.588   7.645  49.954  1.00  0.00     0.145 HD
ENDBRANCH  14  33
TORSDOF 3
ENDMDL
