MODEL 1
REMARK VINA RESULT:      -8.8      0.000      0.000
REMARK  9 active torsions:
REMARK  status: ('A' for Active; 'I' for Inactive)
REMARK    1  A    between atoms: N1_2  and  C3_4 
REMARK    2  A    between atoms: C3_4  and  C4_5 
REMARK    3  A    between atoms: C5_6  and  C6_7 
REMARK    4  A    between atoms: C6_7  and  C7_9 
REMARK    5  A    between atoms: C10_12  and  N2_13 
REMARK    6  A    between atoms: C10_12  and  N3_14 
REMARK    7  A    between atoms: N3_14  and  C11_15 
REMARK    8  A    between atoms: C20_27  and  O2_28 
REMARK    9  A    between atoms: O2_28  and  C21_29 
ROOT
HETATM    1  C7  UNL     1      23.221   0.597  52.870  1.00  0.00     0.048 C 
HETATM    2  C8  UNL     1      21.912   0.379  52.932  1.00  0.00     0.034 C 
HETATM    3  C9  UNL     1      21.041  -0.582  53.629  1.00  0.00     0.020 C 
HETATM    4  C10 UNL     1      19.787  -0.283  53.344  1.00  0.00     0.090 C 
HETATM    5  C17 UNL     1      21.238  -1.717  54.508  1.00  0.00     0.125 C 
HETATM    6  N4  UNL     1      22.237  -1.946  55.291  1.00  0.00    -0.297 NA
HETATM    7  C18 UNL     1      23.479  -1.396  55.710  1.00  0.00     0.178 C 
HETATM    8  C19 UNL     1      24.366  -0.896  54.658  1.00  0.00     0.032 C 
HETATM    9  C20 UNL     1      24.318  -0.133  53.552  1.00  0.00     0.081 C 
ENDROOT
BRANCH   4  10
HETATM   10  N2  UNL     1      19.464   0.808  52.493  1.00  0.00    -0.288 NA
HETATM   11  H12 UNL     1      18.787   1.598  52.629  1.00  0.00     0.125 HD
HETATM   12  H13 UNL     1      18.782   1.604  52.629  1.00  0.00     0.125 HD
ENDBRANCH   4  10
BRANCH   4  13
HETATM   13  N3  UNL     1      18.514  -0.804  53.686  1.00  0.00    -0.346 N 
HETATM   14  H14 UNL     1      17.912  -0.244  54.351  1.00  0.00     0.167 HD
BRANCH  13  15
HETATM   15  C11 UNL     1      17.689  -1.929  53.416  1.00  0.00     0.035 A 
HETATM   16  C12 UNL     1      17.851  -3.233  53.805  1.00  0.00     0.032 A 
HETATM   17  C13 UNL     1      16.931  -4.192  53.438  1.00  0.00     0.046 A 
HETATM   18  C14 UNL     1      15.828  -3.815  52.665  1.00  0.00     0.138 A 
HETATM   19  F1  UNL     1      14.943  -4.800  52.325  1.00  0.00    -0.204 F 
HETATM   20  C15 UNL     1      15.642  -2.501  52.259  1.00  0.00     0.074 A 
HETATM   21 CL1  UNL     1      14.233  -2.120  51.290  1.00  0.00    -0.081 Cl
HETATM   22  C16 UNL     1      16.598  -1.555  52.650  1.00  0.00     0.056 A 
ENDBRANCH  13  15
ENDBRANCH   4  13
BRANCH   1  23
HETATM   23  C6  UNL     1      23.698   1.666  52.051  1.00  0.00     0.184 C 
HETATM   24  O1  UNL     1      23.538   1.572  50.810  1.00  0.00    -0.287 OA
BRANCH  23  25
HETATM   25  C5  UNL     1      24.360   2.900  52.333  1.00  0.00     0.053 C 
HETATM   26  C4  UNL     1      23.806   4.075  52.517  1.00  0.00     0.007 C 
BRANCH  26  27
HETATM   27  C3  UNL     1      22.501   4.770  52.555  1.00  0.00     0.299 C 
BRANCH  27  28
HETATM   28  N1  UNL     1      21.826   4.801  51.269  1.00  0.00     0.083 N 
HETATM   29  C1  UNL     1      21.593   6.133  50.801  1.00  0.00     0.309 C 
HETATM   30  C2  UNL     1      20.648   3.993  51.240  1.00  0.00     0.309 C 
ENDBRANCH  27  28
ENDBRANCH  26  27
ENDBRANCH  23  25
ENDBRANCH   1  23
BRANCH   9  31
HETATM   31  O2  UNL     1      25.549   0.021  52.886  1.00  0.00    -0.343 OA
BRANCH  31  32
HETATM   32  C21 UNL     1      26.795   0.039  53.488  1.00  0.00     0.154 C 
HETATM   33  C22 UNL     1      27.679  -1.132  53.058  1.00  0.00     0.061 C 
HETATM   34  C23 UNL     1      29.044  -0.561  53.257  1.00  0.00     0.170 C 
HETATM   35  O3  UNL     1      28.941   0.803  53.467  1.00  0.00    -0.389 OA
HETATM   36  C24 UNL     1      27.678   1.195  53.054  1.00  0.00     0.200 C 
ENDBRANCH  31  32
ENDBRANCH   9  31
TORSDOF 9
ENDMDL
MODEL 2
REMARK VINA RESULT:      -8.4      2.258      4.959
REMARK  9 active torsions:
REMARK  status: ('A' for Active; 'I' for Inactive)
REMARK    1  A    between atoms: N1_2  and  C3_4 
REMARK    2  A    between atoms: C3_4  and  C4_5 
REMARK    3  A    between atoms: C5_6  and  C6_7 
REMARK    4  A    between atoms: C6_7  and  C7_9 
REMARK    5  A    between atoms: C10_12  and  N2_13 
REMARK    6  A    between atoms: C10_12  and  N3_14 
REMARK    7  A    between atoms: N3_14  and  C11_15 
REMARK    8  A    between atoms: C20_27  and  O2_28 
REMARK    9  A    between atoms: O2_28  and  C21_29 
ROOT
HETATM    1  C7  UNL     1      23.236   1.014  52.087  1.00  0.00     0.048 C 
HETATM    2  C8  UNL     1      22.257   0.432  52.771  1.00  0.00     0.034 C 
HETATM    3  C9  UNL     1      20.806   0.263  52.588  1.00  0.00     0.020 C 
HETATM    4  C10 UNL     1      20.346  -0.464  53.590  1.00  0.00     0.090 C 
HETATM    5  C17 UNL     1      19.825   0.688  51.611  1.00  0.00     0.125 C 
HETATM    6  N4  UNL     1      20.019   0.978  50.369  1.00  0.00    -0.297 NA
HETATM    7  C18 UNL     1      21.043   1.056  49.386  1.00  0.00     0.178 C 
HETATM    8  C19 UNL     1      22.284   1.726  49.779  1.00  0.00     0.032 C 
HETATM    9  C20 UNL     1      23.161   1.746  50.799  1.00  0.00     0.081 C 
ENDROOT
BRANCH   4  10
HETATM   10  N2  UNL     1      21.210  -0.942  54.612  1.00  0.00    -0.288 NA
HETATM   11  H12 UNL     1      22.123  -0.564  54.961  1.00  0.00     0.125 HD
HETATM   12  H13 UNL     1      22.131  -0.561  54.964  1.00  0.00     0.125 HD
ENDBRANCH   4  10
BRANCH   4  13
HETATM   13  N3  UNL     1      19.081  -0.965  53.986  1.00  0.00    -0.346 N 
HETATM   14  H14 UNL     1      18.842  -0.949  55.017  1.00  0.00     0.167 HD
BRANCH  13  15
HETATM   15  C11 UNL     1      17.909  -1.537  53.420  1.00  0.00     0.035 A 
HETATM   16  C12 UNL     1      16.974  -0.958  52.603  1.00  0.00     0.032 A 
HETATM   17  C13 UNL     1      15.893  -1.686  52.152  1.00  0.00     0.046 A 
HETATM   18  C14 UNL     1      15.766  -3.024  52.540  1.00  0.00     0.138 A 
HETATM   19  F1  UNL     1      14.678  -3.705  52.068  1.00  0.00    -0.204 F 
HETATM   20  C15 UNL     1      16.700  -3.632  53.367  1.00  0.00     0.074 A 
HETATM   21 CL1  UNL     1      16.459  -5.312  53.803  1.00  0.00    -0.081 Cl
HETATM   22  C16 UNL     1      17.783  -2.861  53.805  1.00  0.00     0.056 A 
ENDBRANCH  13  15
ENDBRANCH   4  13
BRANCH   1  23
HETATM   23  C6  UNL     1      24.563   0.962  52.614  1.00  0.00     0.184 C 
HETATM   24  O1  UNL     1      24.892   1.824  53.464  1.00  0.00    -0.287 OA
BRANCH  23  25
HETATM   25  C5  UNL     1      25.678   0.099  52.382  1.00  0.00     0.053 C 
HETATM   26  C4  UNL     1      26.695  -0.117  53.182  1.00  0.00     0.007 C 
BRANCH  26  27
HETATM   27  C3  UNL     1      27.259   0.255  54.498  1.00  0.00     0.299 C 
BRANCH  27  28
HETATM   28  N1  UNL     1      28.612   0.777  54.419  1.00  0.00     0.083 N 
HETATM   29  C1  UNL     1      28.673   2.059  53.788  1.00  0.00     0.309 C 
HETATM   30  C2  UNL     1      29.537  -0.157  53.858  1.00  0.00     0.309 C 
ENDBRANCH  27  28
ENDBRANCH  26  27
ENDBRANCH  23  25
ENDBRANCH   1  23
BRANCH   9  31
HETATM   31  O2  UNL     1      24.238   2.637  50.635  1.00  0.00    -0.343 OA
BRANCH  31  32
HETATM   32  C21 UNL     1      24.132   3.982  50.325  1.00  0.00     0.154 C 
HETATM   33  C22 UNL     1      23.627   4.823  51.498  1.00  0.00     0.061 C 
HETATM   34  C23 UNL     1      24.216   6.158  51.179  1.00  0.00     0.170 C 
HETATM   35  O3  UNL     1      25.147   6.016  50.166  1.00  0.00    -0.389 OA
HETATM   36  C24 UNL     1      25.462   4.669  50.075  1.00  0.00     0.200 C 
ENDBRANCH  31  32
ENDBRANCH   9  31
TORSDOF 9
ENDMDL
MODEL 3
REMARK VINA RESULT:      -8.1      1.652      1.941
REMARK  9 active torsions:
REMARK  status: ('A' for Active; 'I' for Inactive)
REMARK    1  A    between atoms: N1_2  and  C3_4 
REMARK    2  A    between atoms: C3_4  and  C4_5 
REMARK    3  A    between atoms: C5_6  and  C6_7 
REMARK    4  A    between atoms: C6_7  and  C7_9 
REMARK    5  A    between atoms: C10_12  and  N2_13 
REMARK    6  A    between atoms: C10_12  and  N3_14 
REMARK    7  A    between atoms: N3_14  and  C11_15 
REMARK    8  A    between atoms: C20_27  and  O2_28 
REMARK    9  A    between atoms: O2_28  and  C21_29 
ROOT
HETATM    1  C7  UNL     1      22.527   0.771  52.363  1.00  0.00     0.048 C 
HETATM    2  C8  UNL     1      21.246   0.434  52.470  1.00  0.00     0.034 C 
HETATM    3  C9  UNL     1      20.484  -0.559  53.244  1.00  0.00     0.020 C 
HETATM    4  C10 UNL     1      19.202  -0.399  52.971  1.00  0.00     0.090 C 
HETATM    5  C17 UNL     1      20.804  -1.611  54.187  1.00  0.00     0.125 C 
HETATM    6  N4  UNL     1      21.834  -1.694  54.960  1.00  0.00    -0.297 NA
HETATM    7  C18 UNL     1      23.024  -1.003  55.315  1.00  0.00     0.178 C 
HETATM    8  C19 UNL     1      23.841  -0.489  54.214  1.00  0.00     0.032 C 
HETATM    9  C20 UNL     1      23.701   0.195  53.064  1.00  0.00     0.081 C 
ENDROOT
BRANCH   4  10
HETATM   10  N2  UNL     1      18.760   0.599  52.062  1.00  0.00    -0.288 NA
HETATM   11  H12 UNL     1      17.965   1.279  52.133  1.00  0.00     0.125 HD
HETATM   12  H13 UNL     1      17.959   1.285  52.134  1.00  0.00     0.125 HD
ENDBRANCH   4  10
BRANCH   4  13
HETATM   13  N3  UNL     1      17.991  -1.016  53.374  1.00  0.00    -0.346 N 
HETATM   14  H14 UNL     1      17.326  -0.456  53.976  1.00  0.00     0.167 HD
BRANCH  13  15
HETATM   15  C11 UNL     1      17.296  -2.248  53.234  1.00  0.00     0.035 A 
HETATM   16  C12 UNL     1      17.647  -3.493  53.686  1.00  0.00     0.032 A 
HETATM   17  C13 UNL     1      16.831  -4.579  53.446  1.00  0.00     0.046 A 
HETATM   18  C14 UNL     1      15.640  -4.391  52.736  1.00  0.00     0.138 A 
HETATM   19  F1  UNL     1      14.863  -5.496  52.523  1.00  0.00    -0.204 F 
HETATM   20  C15 UNL     1      15.265  -3.139  52.269  1.00  0.00     0.074 A 
HETATM   21 CL1  UNL     1      13.756  -2.997  51.387  1.00  0.00    -0.081 Cl
HETATM   22  C16 UNL     1      16.118  -2.061  52.530  1.00  0.00     0.056 A 
ENDBRANCH  13  15
ENDBRANCH   4  13
BRANCH   1  23
HETATM   23  C6  UNL     1      22.884   1.826  51.469  1.00  0.00     0.184 C 
HETATM   24  O1  UNL     1      22.850   1.590  50.238  1.00  0.00    -0.287 OA
BRANCH  23  25
HETATM   25  C5  UNL     1      23.300   3.180  51.662  1.00  0.00     0.053 C 
HETATM   26  C4  UNL     1      24.138   3.866  50.924  1.00  0.00     0.007 C 
BRANCH  26  27
HETATM   27  C3  UNL     1      25.000   3.776  49.726  1.00  0.00     0.299 C 
BRANCH  27  28
HETATM   28  N1  UNL     1      25.950   4.869  49.614  1.00  0.00     0.083 N 
HETATM   29  C1  UNL     1      25.375   6.042  49.032  1.00  0.00     0.309 C 
HETATM   30  C2  UNL     1      27.172   4.483  48.982  1.00  0.00     0.309 C 
ENDBRANCH  27  28
ENDBRANCH  26  27
ENDBRANCH  23  25
ENDBRANCH   1  23
BRANCH   9  31
HETATM   31  O2  UNL     1      24.899   0.422  52.361  1.00  0.00    -0.343 OA
BRANCH  31  32
HETATM   32  C21 UNL     1      26.111   0.776  52.927  1.00  0.00     0.154 C 
HETATM   33  C22 UNL     1      27.115  -0.377  52.951  1.00  0.00     0.061 C 
HETATM   34  C23 UNL     1      28.413   0.362  52.944  1.00  0.00     0.170 C 
HETATM   35  O3  UNL     1      28.178   1.694  52.654  1.00  0.00    -0.389 OA
HETATM   36  C24 UNL     1      26.903   1.786  52.118  1.00  0.00     0.200 C 
ENDBRANCH  31  32
ENDBRANCH   9  31
TORSDOF 9
ENDMDL
MODEL 4
REMARK VINA RESULT:      -8.0      5.141      8.562
REMARK  9 active torsions:
REMARK  status: ('A' for Active; 'I' for Inactive)
REMARK    1  A    between atoms: N1_2  and  C3_4 
REMARK    2  A    between atoms: C3_4  and  C4_5 
REMARK    3  A    between atoms: C5_6  and  C6_7 
REMARK    4  A    between atoms: C6_7  and  C7_9 
REMARK    5  A    between atoms: C10_12  and  N2_13 
REMARK    6  A    between atoms: C10_12  and  N3_14 
REMARK    7  A    between atoms: N3_14  and  C11_15 
REMARK    8  A    between atoms: C20_27  and  O2_28 
REMARK    9  A    between atoms: O2_28  and  C21_29 
ROOT
HETATM    1  C7  UNL     1      22.336   2.149  49.845  1.00  0.00     0.048 C 
HETATM    2  C8  UNL     1      23.517   2.374  50.409  1.00  0.00     0.034 C 
HETATM    3  C9  UNL     1      24.139   2.052  51.704  1.00  0.00     0.020 C 
HETATM    4  C10 UNL     1      25.381   2.501  51.687  1.00  0.00     0.090 C 
HETATM    5  C17 UNL     1      23.721   1.390  52.923  1.00  0.00     0.125 C 
HETATM    6  N4  UNL     1      22.803   0.495  53.062  1.00  0.00    -0.297 NA
HETATM    7  C18 UNL     1      21.842  -0.246  52.320  1.00  0.00     0.178 C 
HETATM    8  C19 UNL     1      21.024   0.505  51.367  1.00  0.00     0.032 C 
HETATM    9  C20 UNL     1      21.162   1.430  50.400  1.00  0.00     0.081 C 
ENDROOT
BRANCH   4  10
HETATM   10  N2  UNL     1      25.909   3.167  50.549  1.00  0.00    -0.288 NA
HETATM   11  H12 UNL     1      26.393   2.784  49.701  1.00  0.00     0.125 HD
HETATM   12  H13 UNL     1      26.397   2.781  49.694  1.00  0.00     0.125 HD
ENDBRANCH   4  10
BRANCH   4  13
HETATM   13  N3  UNL     1      26.472   2.509  52.592  1.00  0.00    -0.346 N 
HETATM   14  H14 UNL     1      26.646   3.389  53.151  1.00  0.00     0.167 HD
BRANCH  13  15
HETATM   15  C11 UNL     1      27.513   1.657  53.051  1.00  0.00     0.035 A 
HETATM   16  C12 UNL     1      28.675   1.985  53.698  1.00  0.00     0.032 A 
HETATM   17  C13 UNL     1      29.572   1.004  54.067  1.00  0.00     0.046 A 
HETATM   18  C14 UNL     1      29.277  -0.331  53.772  1.00  0.00     0.138 A 
HETATM   19  F1  UNL     1      30.196  -1.268  54.157  1.00  0.00    -0.204 F 
HETATM   20  C15 UNL     1      28.107  -0.688  53.117  1.00  0.00     0.074 A 
HETATM   21 CL1  UNL     1      27.821  -2.385  52.786  1.00  0.00    -0.081 Cl
HETATM   22  C16 UNL     1      27.221   0.335  52.758  1.00  0.00     0.056 A 
ENDBRANCH  13  15
ENDBRANCH   4  13
BRANCH   1  23
HETATM   23  C6  UNL     1      22.104   2.640  48.524  1.00  0.00     0.184 C 
HETATM   24  O1  UNL     1      22.326   1.867  47.562  1.00  0.00    -0.287 OA
BRANCH  23  25
HETATM   25  C5  UNL     1      21.648   3.892  48.007  1.00  0.00     0.053 C 
HETATM   26  C4  UNL     1      22.099   5.086  48.305  1.00  0.00     0.007 C 
BRANCH  26  27
HETATM   27  C3  UNL     1      23.097   5.797  49.135  1.00  0.00     0.299 C 
BRANCH  27  28
HETATM   28  N1  UNL     1      22.506   6.565  50.217  1.00  0.00     0.083 N 
HETATM   29  C1  UNL     1      23.387   7.573  50.721  1.00  0.00     0.309 C 
HETATM   30  C2  UNL     1      21.960   5.744  51.250  1.00  0.00     0.309 C 
ENDBRANCH  27  28
ENDBRANCH  26  27
ENDBRANCH  23  25
ENDBRANCH   1  23
BRANCH   9  31
HETATM   31  O2  UNL     1      19.963   1.814  49.772  1.00  0.00    -0.343 OA
BRANCH  31  32
HETATM   32  C21 UNL     1      18.802   2.202  50.419  1.00  0.00     0.154 C 
HETATM   33  C22 UNL     1      18.930   3.565  51.101  1.00  0.00     0.061 C 
HETATM   34  C23 UNL     1      17.510   4.026  51.108  1.00  0.00     0.170 C 
HETATM   35  O3  UNL     1      16.758   3.200  50.290  1.00  0.00    -0.389 OA
HETATM   36  C24 UNL     1      17.639   2.493  49.488  1.00  0.00     0.200 C 
ENDBRANCH  31  32
ENDBRANCH   9  31
TORSDOF 9
ENDMDL
MODEL 5
REMARK VINA RESULT:      -8.0      6.290     10.509
REMARK  9 active torsions:
REMARK  status: ('A' for Active; 'I' for Inactive)
REMARK    1  A    between atoms: N1_2  and  C3_4 
REMARK    2  A    between atoms: C3_4  and  C4_5 
REMARK    3  A    between atoms: C5_6  and  C6_7 
REMARK    4  A    between atoms: C6_7  and  C7_9 
REMARK    5  A    between atoms: C10_12  and  N2_13 
REMARK    6  A    between atoms: C10_12  and  N3_14 
REMARK    7  A    between atoms: N3_14  and  C11_15 
REMARK    8  A    between atoms: C20_27  and  O2_28 
REMARK    9  A    between atoms: O2_28  and  C21_29 
ROOT
HETATM    1  C7  UNL     1      24.320   1.744  51.678  1.00  0.00     0.048 C 
HETATM    2  C8  UNL     1      25.069   2.600  50.993  1.00  0.00     0.034 C 
HETATM    3  C9  UNL     1      24.828   3.582  49.924  1.00  0.00     0.020 C 
HETATM    4  C10 UNL     1      25.968   4.195  49.661  1.00  0.00     0.090 C 
HETATM    5  C17 UNL     1      23.686   4.007  49.139  1.00  0.00     0.125 C 
HETATM    6  N4  UNL     1      22.439   3.946  49.462  1.00  0.00    -0.297 NA
HETATM    7  C18 UNL     1      21.575   3.536  50.513  1.00  0.00     0.178 C 
HETATM    8  C19 UNL     1      21.834   2.222  51.104  1.00  0.00     0.032 C 
HETATM    9  C20 UNL     1      22.862   1.489  51.567  1.00  0.00     0.081 C 
ENDROOT
BRANCH   4  10
HETATM   10  N2  UNL     1      27.159   3.868  50.363  1.00  0.00    -0.288 NA
HETATM   11  H12 UNL     1      27.424   2.996  50.883  1.00  0.00     0.125 HD
HETATM   12  H13 UNL     1      27.426   2.990  50.887  1.00  0.00     0.125 HD
ENDBRANCH   4  10
BRANCH   4  13
HETATM   13  N3  UNL     1      26.396   5.209  48.769  1.00  0.00    -0.346 N 
HETATM   14  H14 UNL     1      25.824   5.375  47.895  1.00  0.00     0.167 HD
BRANCH  13  15
HETATM   15  C11 UNL     1      27.431   6.175  48.632  1.00  0.00     0.035 A 
HETATM   16  C12 UNL     1      27.387   7.525  48.862  1.00  0.00     0.032 A 
HETATM   17  C13 UNL     1      28.509   8.303  48.670  1.00  0.00     0.046 A 
HETATM   18  C14 UNL     1      29.693   7.694  48.237  1.00  0.00     0.138 A 
HETATM   19  F1  UNL     1      30.779   8.507  48.060  1.00  0.00    -0.204 F 
HETATM   20  C15 UNL     1      29.760   6.329  47.998  1.00  0.00     0.074 A 
HETATM   21 CL1  UNL     1      31.284   5.653  47.456  1.00  0.00    -0.081 Cl
HETATM   22  C16 UNL     1      28.601   5.572  48.203  1.00  0.00     0.056 A 
ENDBRANCH  13  15
ENDBRANCH   4  13
BRANCH   1  23
HETATM   23  C6  UNL     1      24.946   0.930  52.671  1.00  0.00     0.184 C 
HETATM   24  O1  UNL     1      24.830   1.275  53.872  1.00  0.00    -0.287 OA
BRANCH  23  25
HETATM   25  C5  UNL     1      25.726  -0.265  52.613  1.00  0.00     0.053 C 
HETATM   26  C4  UNL     1      27.033  -0.362  52.627  1.00  0.00     0.007 C 
BRANCH  26  27
HETATM   27  C3  UNL     1      28.274   0.440  52.692  1.00  0.00     0.299 C 
BRANCH  27  28
HETATM   28  N1  UNL     1      29.149   0.063  53.788  1.00  0.00     0.083 N 
HETATM   29  C1  UNL     1      29.754  -1.219  53.595  1.00  0.00     0.309 C 
HETATM   30  C2  UNL     1      28.525   0.191  55.067  1.00  0.00     0.309 C 
ENDBRANCH  27  28
ENDBRANCH  26  27
ENDBRANCH  23  25
ENDBRANCH   1  23
BRANCH   9  31
HETATM   31  O2  UNL     1      22.511   0.214  52.049  1.00  0.00    -0.343 OA
BRANCH  31  32
HETATM   32  C21 UNL     1      21.748  -0.040  53.175  1.00  0.00     0.154 C 
HETATM   33  C22 UNL     1      20.340  -0.534  52.839  1.00  0.00     0.061 C 
HETATM   34  C23 UNL     1      20.006  -1.326  54.061  1.00  0.00     0.170 C 
HETATM   35  O3  UNL     1      21.151  -1.502  54.818  1.00  0.00    -0.389 OA
HETATM   36  C24 UNL     1      22.237  -1.212  54.006  1.00  0.00     0.200 C 
ENDBRANCH  31  32
ENDBRANCH   9  31
TORSDOF 9
ENDMDL
MODEL 6
REMARK VINA RESULT:      -7.9      7.599     10.712
REMARK  9 active torsions:
REMARK  status: ('A' for Active; 'I' for Inactive)
REMARK    1  A    between atoms: N1_2  and  C3_4 
REMARK    2  A    between atoms: C3_4  and  C4_5 
REMARK    3  A    between atoms: C5_6  and  C6_7 
REMARK    4  A    between atoms: C6_7  and  C7_9 
REMARK    5  A    between atoms: C10_12  and  N2_13 
REMARK    6  A    between atoms: C10_12  and  N3_14 
REMARK    7  A    between atoms: N3_14  and  C11_15 
REMARK    8  A    between atoms: C20_27  and  O2_28 
REMARK    9  A    between atoms: O2_28  and  C21_29 
ROOT
HETATM    1  C7  UNL     1      29.375   6.005  47.981  1.00  0.00     0.048 C 
HETATM    2  C8  UNL     1      28.314   5.447  48.554  1.00  0.00     0.034 C 
HETATM    3  C9  UNL     1      26.893   5.802  48.702  1.00  0.00     0.020 C 
HETATM    4  C10 UNL     1      26.287   4.819  49.343  1.00  0.00     0.090 C 
HETATM    5  C17 UNL     1      26.056   6.922  48.324  1.00  0.00     0.125 C 
HETATM    6  N4  UNL     1      26.234   7.749  47.349  1.00  0.00    -0.297 NA
HETATM    7  C18 UNL     1      27.124   8.042  46.280  1.00  0.00     0.178 C 
HETATM    8  C19 UNL     1      28.554   8.041  46.594  1.00  0.00     0.032 C 
HETATM    9  C20 UNL     1      29.463   7.288  47.239  1.00  0.00     0.081 C 
ENDROOT
BRANCH   4  10
HETATM   10  N2  UNL     1      26.999   3.665  49.766  1.00  0.00    -0.288 NA
HETATM   11  H12 UNL     1      27.520   2.946  49.209  1.00  0.00     0.125 HD
HETATM   12  H13 UNL     1      27.524   2.940  49.205  1.00  0.00     0.125 HD
ENDBRANCH   4  10
BRANCH   4  13
HETATM   13  N3  UNL     1      24.966   4.554  49.784  1.00  0.00    -0.346 N 
HETATM   14  H14 UNL     1      24.254   5.332  49.709  1.00  0.00     0.167 HD
BRANCH  13  15
HETATM   15  C11 UNL     1      24.196   3.500  50.346  1.00  0.00     0.035 A 
HETATM   16  C12 UNL     1      24.175   3.039  51.636  1.00  0.00     0.032 A 
HETATM   17  C13 UNL     1      23.349   1.993  51.991  1.00  0.00     0.046 A 
HETATM   18  C14 UNL     1      22.533   1.410  51.015  1.00  0.00     0.138 A 
HETATM   19  F1  UNL     1      21.732   0.376  51.414  1.00  0.00    -0.204 F 
HETATM   20  C15 UNL     1      22.538   1.860  49.702  1.00  0.00     0.074 A 
HETATM   21 CL1  UNL     1      21.484   1.069  48.547  1.00  0.00    -0.081 Cl
HETATM   22  C16 UNL     1      23.389   2.923  49.379  1.00  0.00     0.056 A 
ENDBRANCH  13  15
ENDBRANCH   4  13
BRANCH   1  23
HETATM   23  C6  UNL     1      30.629   5.327  48.056  1.00  0.00     0.184 C 
HETATM   24  O1  UNL     1      31.297   5.441  49.112  1.00  0.00    -0.287 OA
BRANCH  23  25
HETATM   25  C5  UNL     1      31.350   4.492  47.148  1.00  0.00     0.053 C 
HETATM   26  C4  UNL     1      32.556   4.690  46.673  1.00  0.00     0.007 C 
BRANCH  26  27
HETATM   27  C3  UNL     1      33.699   5.627  46.713  1.00  0.00     0.299 C 
BRANCH  27  28
HETATM   28  N1  UNL     1      34.795   5.166  47.548  1.00  0.00     0.083 N 
HETATM   29  C1  UNL     1      34.827   3.742  47.678  1.00  0.00     0.309 C 
HETATM   30  C2  UNL     1      34.855   5.836  48.808  1.00  0.00     0.309 C 
ENDBRANCH  27  28
ENDBRANCH  26  27
ENDBRANCH  23  25
ENDBRANCH   1  23
BRANCH   9  31
HETATM   31  O2  UNL     1      30.773   7.799  47.224  1.00  0.00    -0.343 OA
BRANCH  31  32
HETATM   32  C21 UNL     1      31.239   8.848  47.997  1.00  0.00     0.154 C 
HETATM   33  C22 UNL     1      31.108  10.203  47.301  1.00  0.00     0.061 C 
HETATM   34  C23 UNL     1      31.016  11.128  48.470  1.00  0.00     0.170 C 
HETATM   35  O3  UNL     1      30.817  10.389  49.622  1.00  0.00    -0.389 OA
HETATM   36  C24 UNL     1      30.410   9.120  49.239  1.00  0.00     0.200 C 
ENDBRANCH  31  32
ENDBRANCH   9  31
TORSDOF 9
ENDMDL
MODEL 7
REMARK VINA RESULT:      -7.6      5.298      8.964
REMARK  9 active torsions:
REMARK  status: ('A' for Active; 'I' for Inactive)
REMARK    1  A    between atoms: N1_2  and  C3_4 
REMARK    2  A    between atoms: C3_4  and  C4_5 
REMARK    3  A    between atoms: C5_6  and  C6_7 
REMARK    4  A    between atoms: C6_7  and  C7_9 
REMARK    5  A    between atoms: C10_12  and  N2_13 
REMARK    6  A    between atoms: C10_12  and  N3_14 
REMARK    7  A    between atoms: N3_14  and  C11_15 
REMARK    8  A    between atoms: C20_27  and  O2_28 
REMARK    9  A    between atoms: O2_28  and  C21_29 
ROOT
HETATM    1  C7  UNL     1      22.488   2.230  49.599  1.00  0.00     0.048 C 
HETATM    2  C8  UNL     1      23.643   2.418  50.227  1.00  0.00     0.034 C 
HETATM    3  C9  UNL     1      24.165   2.129  51.572  1.00  0.00     0.020 C 
HETATM    4  C10 UNL     1      25.430   2.506  51.614  1.00  0.00     0.090 C 
HETATM    5  C17 UNL     1      23.635   1.554  52.792  1.00  0.00     0.125 C 
HETATM    6  N4  UNL     1      22.659   0.719  52.914  1.00  0.00    -0.297 NA
HETATM    7  C18 UNL     1      21.705  -0.004  52.149  1.00  0.00     0.178 C 
HETATM    8  C19 UNL     1      20.991   0.741  51.110  1.00  0.00     0.032 C 
HETATM    9  C20 UNL     1      21.242   1.607  50.112  1.00  0.00     0.081 C 
ENDROOT
BRANCH   4  10
HETATM   10  N2  UNL     1      26.065   3.084  50.482  1.00  0.00    -0.288 NA
HETATM   11  H12 UNL     1      26.317   4.081  50.280  1.00  0.00     0.125 HD
HETATM   12  H13 UNL     1      26.319   4.089  50.278  1.00  0.00     0.125 HD
ENDBRANCH   4  10
BRANCH   4  13
HETATM   13  N3  UNL     1      26.462   2.500  52.586  1.00  0.00    -0.346 N 
HETATM   14  H14 UNL     1      26.569   3.354  53.200  1.00  0.00     0.167 HD
BRANCH  13  15
HETATM   15  C11 UNL     1      27.502   1.658  53.065  1.00  0.00     0.035 A 
HETATM   16  C12 UNL     1      28.646   1.998  53.739  1.00  0.00     0.032 A 
HETATM   17  C13 UNL     1      29.545   1.026  54.124  1.00  0.00     0.046 A 
HETATM   18  C14 UNL     1      29.272  -0.312  53.817  1.00  0.00     0.138 A 
HETATM   19  F1  UNL     1      30.193  -1.240  54.219  1.00  0.00    -0.204 F 
HETATM   20  C15 UNL     1      28.121  -0.680  53.136  1.00  0.00     0.074 A 
HETATM   21 CL1  UNL     1      27.862  -2.379  52.794  1.00  0.00    -0.081 Cl
HETATM   22  C16 UNL     1      27.232   0.335  52.761  1.00  0.00     0.056 A 
ENDBRANCH  13  15
ENDBRANCH   4  13
BRANCH   1  23
HETATM   23  C6  UNL     1      22.366   2.666  48.245  1.00  0.00     0.184 C 
HETATM   24  O1  UNL     1      22.548   1.820  47.337  1.00  0.00    -0.287 OA
BRANCH  23  25
HETATM   25  C5  UNL     1      22.067   3.926  47.640  1.00  0.00     0.053 C 
HETATM   26  C4  UNL     1      21.033   4.222  46.891  1.00  0.00     0.007 C 
BRANCH  26  27
HETATM   27  C3  UNL     1      19.801   3.651  46.302  1.00  0.00     0.299 C 
BRANCH  27  28
HETATM   28  N1  UNL     1      19.589   4.039  44.919  1.00  0.00     0.083 N 
HETATM   29  C1  UNL     1      20.779   3.947  44.131  1.00  0.00     0.309 C 
HETATM   30  C2  UNL     1      18.940   5.306  44.791  1.00  0.00     0.309 C 
ENDBRANCH  27  28
ENDBRANCH  26  27
ENDBRANCH  23  25
ENDBRANCH   1  23
BRANCH   9  31
HETATM   31  O2  UNL     1      20.108   2.023  49.391  1.00  0.00    -0.343 OA
BRANCH  31  32
HETATM   32  C21 UNL     1      18.935   2.509  49.943  1.00  0.00     0.154 C 
HETATM   33  C22 UNL     1      18.879   4.038  49.967  1.00  0.00     0.061 C 
HETATM   34  C23 UNL     1      17.405   4.279  49.942  1.00  0.00     0.170 C 
HETATM   35  O3  UNL     1      16.754   3.095  49.642  1.00  0.00    -0.389 OA
HETATM   36  C24 UNL     1      17.695   2.223  49.117  1.00  0.00     0.200 C 
ENDBRANCH  31  32
ENDBRANCH   9  31
TORSDOF 9
ENDMDL
MODEL 8
REMARK VINA RESULT:      -7.5      6.811     11.303
REMARK  9 active torsions:
REMARK  status: ('A' for Active; 'I' for Inactive)
REMARK    1  A    between atoms: N1_2  and  C3_4 
REMARK    2  A    between atoms: C3_4  and  C4_5 
REMARK    3  A    between atoms: C5_6  and  C6_7 
REMARK    4  A    between atoms: C6_7  and  C7_9 
REMARK    5  A    between atoms: C10_12  and  N2_13 
REMARK    6  A    between atoms: C10_12  and  N3_14 
REMARK    7  A    between atoms: N3_14  and  C11_15 
REMARK    8  A    between atoms: C20_27  and  O2_28 
REMARK    9  A    between atoms: O2_28  and  C21_29 
ROOT
HETATM    1  C7  UNL     1      24.245   3.626  51.321  1.00  0.00     0.048 C 
HETATM    2  C8  UNL     1      25.219   4.080  50.541  1.00  0.00     0.034 C 
HETATM    3  C9  UNL     1      25.371   5.196  49.594  1.00  0.00     0.020 C 
HETATM    4  C10 UNL     1      26.609   5.182  49.134  1.00  0.00     0.090 C 
HETATM    5  C17 UNL     1      24.517   6.249  49.081  1.00  0.00     0.125 C 
HETATM    6  N4  UNL     1      23.486   6.777  49.649  1.00  0.00    -0.297 NA
HETATM    7  C18 UNL     1      22.703   6.707  50.832  1.00  0.00     0.178 C 
HETATM    8  C19 UNL     1      22.322   5.370  51.292  1.00  0.00     0.032 C 
HETATM    9  C20 UNL     1      22.871   4.160  51.498  1.00  0.00     0.081 C 
ENDROOT
BRANCH   4  10
HETATM   10  N2  UNL     1      27.543   4.200  49.561  1.00  0.00    -0.288 NA
HETATM   11  H12 UNL     1      27.573   3.627  50.439  1.00  0.00     0.125 HD
HETATM   12  H13 UNL     1      27.573   3.622  50.446  1.00  0.00     0.125 HD
ENDBRANCH   4  10
BRANCH   4  13
HETATM   13  N3  UNL     1      27.366   5.963  48.225  1.00  0.00    -0.346 N 
HETATM   14  H14 UNL     1      26.979   6.102  47.250  1.00  0.00     0.167 HD
BRANCH  13  15
HETATM   15  C11 UNL     1      28.583   6.695  48.168  1.00  0.00     0.035 A 
HETATM   16  C12 UNL     1      29.838   6.259  47.832  1.00  0.00     0.032 A 
HETATM   17  C13 UNL     1      30.905   7.131  47.836  1.00  0.00     0.046 A 
HETATM   18  C14 UNL     1      30.689   8.468  48.186  1.00  0.00     0.138 A 
HETATM   19  F1  UNL     1      31.778   9.296  48.176  1.00  0.00    -0.204 F 
HETATM   20  C15 UNL     1      29.428   8.933  48.530  1.00  0.00     0.074 A 
HETATM   21 CL1  UNL     1      29.250  10.623  48.957  1.00  0.00    -0.081 Cl
HETATM   22  C16 UNL     1      28.368   8.018  48.516  1.00  0.00     0.056 A 
ENDBRANCH  13  15
ENDBRANCH   4  13
BRANCH   1  23
HETATM   23  C6  UNL     1      24.493   2.471  52.124  1.00  0.00     0.184 C 
HETATM   24  O1  UNL     1      24.263   1.345  51.621  1.00  0.00    -0.287 OA
BRANCH  23  25
HETATM   25  C5  UNL     1      24.974   2.285  53.456  1.00  0.00     0.053 C 
HETATM   26  C4  UNL     1      26.211   2.071  53.832  1.00  0.00     0.007 C 
BRANCH  26  27
HETATM   27  C3  UNL     1      27.589   1.913  53.317  1.00  0.00     0.299 C 
BRANCH  27  28
HETATM   28  N1  UNL     1      28.116   0.570  53.479  1.00  0.00     0.083 N 
HETATM   29  C1  UNL     1      27.328  -0.417  52.806  1.00  0.00     0.309 C 
HETATM   30  C2  UNL     1      28.371   0.233  54.844  1.00  0.00     0.309 C 
ENDBRANCH  27  28
ENDBRANCH  26  27
ENDBRANCH  23  25
ENDBRANCH   1  23
BRANCH   9  31
HETATM   31  O2  UNL     1      21.982   3.180  51.977  1.00  0.00    -0.343 OA
BRANCH  31  32
HETATM   32  C21 UNL     1      20.808   2.785  51.360  1.00  0.00     0.154 C 
HETATM   33  C22 UNL     1      21.021   1.663  50.343  1.00  0.00     0.061 C 
HETATM   34  C23 UNL     1      19.681   1.003  50.346  1.00  0.00     0.170 C 
HETATM   35  O3  UNL     1      18.939   1.482  51.411  1.00  0.00    -0.389 OA
HETATM   36  C24 UNL     1      19.818   2.103  52.286  1.00  0.00     0.200 C 
ENDBRANCH  31  32
ENDBRANCH   9  31
TORSDOF 9
ENDMDL
MODEL 9
REMARK VINA RESULT:      -7.5      4.937      9.158
REMARK  9 active torsions:
REMARK  status: ('A' for Active; 'I' for Inactive)
REMARK    1  A    between atoms: N1_2  and  C3_4 
REMARK    2  A    between atoms: C3_4  and  C4_5 
REMARK    3  A    between atoms: C5_6  and  C6_7 
REMARK    4  A    between atoms: C6_7  and  C7_9 
REMARK    5  A    between atoms: C10_12  and  N2_13 
REMARK    6  A    between atoms: C10_12  and  N3_14 
REMARK    7  A    between atoms: N3_14  and  C11_15 
REMARK    8  A    between atoms: C20_27  and  O2_28 
REMARK    9  A    between atoms: O2_28  and  C21_29 
ROOT
HETATM    1  C7  UNL     1      22.386   3.405  50.105  1.00  0.00     0.048 C 
HETATM    2  C8  UNL     1      23.321   3.034  50.972  1.00  0.00     0.034 C 
HETATM    3  C9  UNL     1      24.774   3.236  51.098  1.00  0.00     0.020 C 
HETATM    4  C10 UNL     1      25.175   2.660  52.218  1.00  0.00     0.090 C 
HETATM    5  C17 UNL     1      25.805   3.887  50.317  1.00  0.00     0.125 C 
HETATM    6  N4  UNL     1      25.670   4.867  49.489  1.00  0.00    -0.297 NA
HETATM    7  C18 UNL     1      24.690   5.735  48.934  1.00  0.00     0.178 C 
HETATM    8  C19 UNL     1      23.450   5.114  48.465  1.00  0.00     0.032 C 
HETATM    9  C20 UNL     1      22.532   4.220  48.873  1.00  0.00     0.081 C 
ENDROOT
BRANCH   4  10
HETATM   10  N2  UNL     1      24.258   1.989  53.071  1.00  0.00    -0.288 NA
HETATM   11  H12 UNL     1      23.298   1.615  52.876  1.00  0.00     0.125 HD
HETATM   12  H13 UNL     1      23.290   1.612  52.875  1.00  0.00     0.125 HD
ENDBRANCH   4  10
BRANCH   4  13
HETATM   13  N3  UNL     1      26.410   2.500  52.894  1.00  0.00    -0.346 N 
HETATM   14  H14 UNL     1      26.803   3.335  53.411  1.00  0.00     0.167 HD
BRANCH  13  15
HETATM   15  C11 UNL     1      27.397   1.508  53.139  1.00  0.00     0.035 A 
HETATM   16  C12 UNL     1      28.659   1.653  53.655  1.00  0.00     0.032 A 
HETATM   17  C13 UNL     1      29.477   0.556  53.819  1.00  0.00     0.046 A 
HETATM   18  C14 UNL     1      29.002  -0.708  53.453  1.00  0.00     0.138 A 
HETATM   19  F1  UNL     1      29.849  -1.766  53.635  1.00  0.00    -0.204 F 
HETATM   20  C15 UNL     1      27.728  -0.880  52.929  1.00  0.00     0.074 A 
HETATM   21 CL1  UNL     1      27.217  -2.499  52.497  1.00  0.00    -0.081 Cl
HETATM   22  C16 UNL     1      26.926   0.257  52.776  1.00  0.00     0.056 A 
ENDBRANCH  13  15
ENDBRANCH   4  13
BRANCH   1  23
HETATM   23  C6  UNL     1      21.038   2.995  50.337  1.00  0.00     0.184 C 
HETATM   24  O1  UNL     1      20.277   3.790  50.939  1.00  0.00    -0.287 OA
BRANCH  23  25
HETATM   25  C5  UNL     1      20.303   1.811  50.022  1.00  0.00     0.053 C 
HETATM   26  C4  UNL     1      19.810   0.934  50.863  1.00  0.00     0.007 C 
BRANCH  26  27
HETATM   27  C3  UNL     1      19.689   0.622  52.304  1.00  0.00     0.299 C 
BRANCH  27  28
HETATM   28  N1  UNL     1      20.968   0.552  52.989  1.00  0.00     0.083 N 
HETATM   29  C1  UNL     1      21.832  -0.450  52.444  1.00  0.00     0.309 C 
HETATM   30  C2  UNL     1      20.834   0.451  54.408  1.00  0.00     0.309 C 
ENDBRANCH  27  28
ENDBRANCH  26  27
ENDBRANCH  23  25
ENDBRANCH   1  23
BRANCH   9  31
HETATM   31  O2  UNL     1      21.484   3.991  47.962  1.00  0.00    -0.343 OA
BRANCH  31  32
HETATM   32  C21 UNL     1      21.367   4.563  46.708  1.00  0.00     0.154 C 
HETATM   33  C22 UNL     1      21.814   3.627  45.584  1.00  0.00     0.061 C 
HETATM   34  C23 UNL     1      21.012   4.143  44.434  1.00  0.00     0.170 C 
HETATM   35  O3  UNL     1      20.049   5.018  44.905  1.00  0.00    -0.389 OA
HETATM   36  C24 UNL     1      19.935   4.816  46.272  1.00  0.00     0.200 C 
ENDBRANCH  31  32
ENDBRANCH   9  31
TORSDOF 9
ENDMDL
