MODEL 1
REMARK VINA RESULT:      -8.6      0.000      0.000
REMARK  5 active torsions:
REMARK  status: ('A' for Active; 'I' for Inactive)
REMARK    1  A    between atoms: C3_3  and  C4_5 
REMARK    2  A    between atoms: C4_5  and  C5_6 
REMARK    3  A    between atoms: C15_21  and  O2_22 
REMARK    4  A    between atoms: O2_22  and  C16_23 
REMARK    5  A    between atoms: C16_23  and  C17_24 
ROOT
HETATM    1  C4  UNL     1      23.633   3.031  50.370  1.00  0.00     0.084 C 
HETATM    2  N1  UNL     1      23.266   4.311  50.907  1.00  0.00    -0.376 N 
HETATM    3  C7  UNL     1      23.073   5.710  51.055  1.00  0.00     0.003 C 
HETATM    4  C8  UNL     1      24.238   6.531  51.473  1.00  0.00     0.068 C 
HETATM    5  C9  UNL     1      21.922   6.321  50.859  1.00  0.00     0.045 C 
HETATM    6  C10 UNL     1      20.583   5.958  50.484  1.00  0.00     0.143 C 
HETATM    7  N2  UNL     1      20.735   4.684  50.370  1.00  0.00    -0.162 NA
HETATM    8  N3  UNL     1      19.680   3.834  50.008  1.00  0.00    -0.146 NA
HETATM    9  C11 UNL     1      19.942   2.575  50.062  1.00  0.00     0.232 C 
HETATM   10  N4  UNL     1      20.963   1.652  50.369  1.00  0.00    -0.349 N 
HETATM   11  C12 UNL     1      22.033   1.304  51.229  1.00  0.00     0.044 A 
HETATM   12  C13 UNL     1      21.689   0.254  52.067  1.00  0.00     0.057 A 
HETATM   13  C14 UNL     1      22.597  -0.266  53.005  1.00  0.00     0.069 A 
HETATM   14 CL1  UNL     1      22.115  -1.592  54.043  1.00  0.00    -0.081 Cl
HETATM   15  C15 UNL     1      23.836   0.338  53.025  1.00  0.00     0.091 A 
HETATM   16  C21 UNL     1      24.172   1.381  52.191  1.00  0.00     0.050 A 
HETATM   17  C22 UNL     1      23.280   1.889  51.274  1.00  0.00     0.004 A 
HETATM   18  H9  UNL     1      22.836   4.208  51.881  1.00  0.00     0.161 HD
HETATM   19  H16 UNL     1      20.966   0.842  49.672  1.00  0.00     0.167 HD
ENDROOT
BRANCH  15  20
HETATM   20  O2  UNL     1      24.672  -0.231  53.966  1.00  0.00    -0.345 OA
BRANCH  20  21
HETATM   21  C16 UNL     1      25.816   0.371  54.492  1.00  0.00     0.214 C 
BRANCH  21  22
HETATM   22  C17 UNL     1      27.056  -0.191  53.891  1.00  0.00    -0.028 A 
HETATM   23  C18 UNL     1      27.601  -0.948  52.943  1.00  0.00     0.051 A 
HETATM   24  C19 UNL     1      28.919  -0.672  53.472  1.00  0.00     0.117 A 
HETATM   25  F1  UNL     1      30.102  -1.154  52.968  1.00  0.00    -0.206 F 
HETATM   26  C20 UNL     1      28.407   0.082  54.418  1.00  0.00     0.051 A 
ENDBRANCH  21  22
ENDBRANCH  20  21
ENDBRANCH  15  20
BRANCH   1  27
HETATM   27  C3  UNL     1      23.078   2.695  49.061  1.00  0.00    -0.037 A 
HETATM   28  C2  UNL     1      22.602   2.123  47.842  1.00  0.00     0.026 A 
HETATM   29  C1  UNL     1      22.088   2.998  47.004  1.00  0.00     0.010 A 
HETATM   30  O1  UNL     1      22.589   3.590  48.293  1.00  0.00     0.000 OA
ENDBRANCH   1  27
BRANCH   1  31
HETATM   31  C5  UNL     1      25.157   3.087  50.169  1.00  0.00     0.037 C 
HETATM   32  C6  UNL     1      25.507   4.181  49.165  1.00  0.00     0.008 C 
ENDBRANCH   1  31
TORSDOF 5
ENDMDL
MODEL 2
REMARK VINA RESULT:      -7.5      5.672      7.750
REMARK  5 active torsions:
REMARK  status: ('A' for Active; 'I' for Inactive)
REMARK    1  A    between atoms: C3_3  and  C4_5 
REMARK    2  A    between atoms: C4_5  and  C5_6 
REMARK    3  A    between atoms: C15_21  and  O2_22 
REMARK    4  A    between atoms: O2_22  and  C16_23 
REMARK    5  A    between atoms: C16_23  and  C17_24 
ROOT
HETATM    1  C4  UNL     1      29.209   7.046  47.669  1.00  0.00     0.084 C 
HETATM    2  N1  UNL     1      29.852   7.823  48.691  1.00  0.00    -0.376 N 
HETATM    3  C7  UNL     1      30.781   8.648  49.378  1.00  0.00     0.003 C 
HETATM    4  C8  UNL     1      32.007   8.010  49.922  1.00  0.00     0.068 C 
HETATM    5  C9  UNL     1      30.615   9.940  49.575  1.00  0.00     0.045 C 
HETATM    6  C10 UNL     1      29.628  10.938  49.267  1.00  0.00     0.143 C 
HETATM    7  N2  UNL     1      28.763  10.199  48.662  1.00  0.00    -0.162 NA
HETATM    8  N3  UNL     1      27.567  10.716  48.145  1.00  0.00    -0.146 NA
HETATM    9  C11 UNL     1      26.739   9.843  47.688  1.00  0.00     0.232 C 
HETATM   10  N4  UNL     1      26.563   8.458  47.490  1.00  0.00    -0.349 N 
HETATM   11  C12 UNL     1      26.729   7.152  48.012  1.00  0.00     0.044 A 
HETATM   12  C13 UNL     1      25.520   6.614  48.430  1.00  0.00     0.057 A 
HETATM   13  C14 UNL     1      25.439   5.324  48.978  1.00  0.00     0.069 A 
HETATM   14 CL1  UNL     1      23.890   4.690  49.493  1.00  0.00    -0.081 Cl
HETATM   15  C15 UNL     1      26.635   4.644  49.065  1.00  0.00     0.091 A 
HETATM   16  C21 UNL     1      27.832   5.181  48.649  1.00  0.00     0.050 A 
HETATM   17  C22 UNL     1      27.908   6.447  48.114  1.00  0.00     0.004 A 
HETATM   18  H9  UNL     1      29.291   7.798  49.601  1.00  0.00     0.161 HD
HETATM   19  H16 UNL     1      26.103   8.264  46.546  1.00  0.00     0.167 HD
ENDROOT
BRANCH  15  20
HETATM   20  O2  UNL     1      26.473   3.384  49.607  1.00  0.00    -0.345 OA
BRANCH  20  21
HETATM   21  C16 UNL     1      26.796   3.026  50.918  1.00  0.00     0.214 C 
BRANCH  21  22
HETATM   22  C17 UNL     1      25.793   2.087  51.492  1.00  0.00    -0.028 A 
HETATM   23  C18 UNL     1      24.511   1.768  51.641  1.00  0.00     0.051 A 
HETATM   24  C19 UNL     1      24.884   0.612  52.427  1.00  0.00     0.117 A 
HETATM   25  F1  UNL     1      24.015  -0.293  52.983  1.00  0.00    -0.206 F 
HETATM   26  C20 UNL     1      26.158   0.905  52.294  1.00  0.00     0.051 A 
ENDBRANCH  21  22
ENDBRANCH  20  21
ENDBRANCH  15  20
BRANCH   1  27
HETATM   27  C3  UNL     1      28.927   7.735  46.413  1.00  0.00    -0.037 A 
HETATM   28  C2  UNL     1      28.486   8.213  45.141  1.00  0.00     0.026 A 
HETATM   29  C1  UNL     1      29.058   9.337  44.763  1.00  0.00     0.010 A 
HETATM   30  O1  UNL     1      29.512   8.827  46.103  1.00  0.00     0.000 OA
ENDBRANCH   1  27
BRANCH   1  31
HETATM   31  C5  UNL     1      30.203   5.928  47.310  1.00  0.00     0.037 C 
HETATM   32  C6  UNL     1      31.458   6.531  46.687  1.00  0.00     0.008 C 
ENDBRANCH   1  31
TORSDOF 5
ENDMDL
MODEL 3
REMARK VINA RESULT:      -7.5      8.208     10.625
REMARK  5 active torsions:
REMARK  status: ('A' for Active; 'I' for Inactive)
REMARK    1  A    between atoms: C3_3  and  C4_5 
REMARK    2  A    between atoms: C4_5  and  C5_6 
REMARK    3  A    between atoms: C15_21  and  O2_22 
REMARK    4  A    between atoms: O2_22  and  C16_23 
REMARK    5  A    between atoms: C16_23  and  C17_24 
ROOT
HETATM    1  C4  UNL     1      30.556   6.906  47.955  1.00  0.00     0.084 C 
HETATM    2  N1  UNL     1      29.187   6.491  47.842  1.00  0.00    -0.376 N 
HETATM    3  C7  UNL     1      27.834   6.190  48.156  1.00  0.00     0.003 C 
HETATM    4  C8  UNL     1      27.550   4.902  48.839  1.00  0.00     0.068 C 
HETATM    5  C9  UNL     1      26.817   6.977  47.866  1.00  0.00     0.045 C 
HETATM    6  C10 UNL     1      26.613   8.247  47.226  1.00  0.00     0.143 C 
HETATM    7  N2  UNL     1      27.831   8.523  46.912  1.00  0.00    -0.162 NA
HETATM    8  N3  UNL     1      28.182   9.703  46.241  1.00  0.00    -0.146 NA
HETATM    9  C11 UNL     1      29.413   9.785  45.874  1.00  0.00     0.232 C 
HETATM   10  N4  UNL     1      30.639   9.088  45.891  1.00  0.00    -0.349 N 
HETATM   11  C12 UNL     1      31.301   7.844  45.754  1.00  0.00     0.044 A 
HETATM   12  C13 UNL     1      31.986   7.763  44.550  1.00  0.00     0.057 A 
HETATM   13  C14 UNL     1      32.723   6.620  44.199  1.00  0.00     0.069 A 
HETATM   14 CL1  UNL     1      33.569   6.565  42.666  1.00  0.00    -0.081 Cl
HETATM   15  C15 UNL     1      32.714   5.603  45.129  1.00  0.00     0.091 A 
HETATM   16  C21 UNL     1      32.033   5.688  46.322  1.00  0.00     0.050 A 
HETATM   17  C22 UNL     1      31.311   6.808  46.663  1.00  0.00     0.004 A 
HETATM   18  H9  UNL     1      28.970   6.151  46.851  1.00  0.00     0.161 HD
HETATM   19  H16 UNL     1      31.452   9.753  46.088  1.00  0.00     0.167 HD
ENDROOT
BRANCH  15  20
HETATM   20  O2  UNL     1      33.464   4.519  44.714  1.00  0.00    -0.345 OA
BRANCH  20  21
HETATM   21  C16 UNL     1      34.614   4.048  45.350  1.00  0.00     0.214 C 
BRANCH  21  22
HETATM   22  C17 UNL     1      34.285   3.287  46.586  1.00  0.00    -0.028 A 
HETATM   23  C18 UNL     1      34.562   3.048  47.864  1.00  0.00     0.051 A 
HETATM   24  C19 UNL     1      33.491   2.077  47.921  1.00  0.00     0.117 A 
HETATM   25  F1  UNL     1      33.133   1.344  49.025  1.00  0.00    -0.206 F 
HETATM   26  C20 UNL     1      33.196   2.295  46.659  1.00  0.00     0.051 A 
ENDBRANCH  21  22
ENDBRANCH  20  21
ENDBRANCH  15  20
BRANCH   1  27
HETATM   27  C3  UNL     1      30.783   8.260  48.453  1.00  0.00    -0.037 A 
HETATM   28  C2  UNL     1      31.230   9.568  48.811  1.00  0.00     0.026 A 
HETATM   29  C1  UNL     1      30.390  10.230  49.580  1.00  0.00     0.010 A 
HETATM   30  O1  UNL     1      29.928   8.852  49.194  1.00  0.00     0.000 OA
ENDBRANCH   1  27
BRANCH   1  31
HETATM   31  C5  UNL     1      31.188   5.971  49.001  1.00  0.00     0.037 C 
HETATM   32  C6  UNL     1      32.621   6.409  49.288  1.00  0.00     0.008 C 
ENDBRANCH   1  31
TORSDOF 5
ENDMDL
MODEL 4
REMARK VINA RESULT:      -7.3      7.718      9.954
REMARK  5 active torsions:
REMARK  status: ('A' for Active; 'I' for Inactive)
REMARK    1  A    between atoms: C3_3  and  C4_5 
REMARK    2  A    between atoms: C4_5  and  C5_6 
REMARK    3  A    between atoms: C15_21  and  O2_22 
REMARK    4  A    between atoms: O2_22  and  C16_23 
REMARK    5  A    between atoms: C16_23  and  C17_24 
ROOT
HETATM    1  C4  UNL     1      28.529   8.751  46.283  1.00  0.00     0.084 C 
HETATM    2  N1  UNL     1      28.688  10.173  46.160  1.00  0.00    -0.376 N 
HETATM    3  C7  UNL     1      28.447  11.539  45.857  1.00  0.00     0.003 C 
HETATM    4  C8  UNL     1      28.667  11.990  44.459  1.00  0.00     0.068 C 
HETATM    5  C9  UNL     1      28.053  12.433  46.742  1.00  0.00     0.045 C 
HETATM    6  C10 UNL     1      27.745  12.466  48.146  1.00  0.00     0.143 C 
HETATM    7  N2  UNL     1      27.984  11.235  48.442  1.00  0.00    -0.162 NA
HETATM    8  N3  UNL     1      27.829  10.735  49.743  1.00  0.00    -0.146 NA
HETATM    9  C11 UNL     1      28.230   9.525  49.921  1.00  0.00     0.232 C 
HETATM   10  N4  UNL     1      28.809   8.424  49.257  1.00  0.00    -0.349 N 
HETATM   11  C12 UNL     1      29.768   7.972  48.318  1.00  0.00     0.044 A 
HETATM   12  C13 UNL     1      30.846   7.365  48.945  1.00  0.00     0.057 A 
HETATM   13  C14 UNL     1      31.919   6.834  48.211  1.00  0.00     0.069 A 
HETATM   14 CL1  UNL     1      33.260   6.080  49.049  1.00  0.00    -0.081 Cl
HETATM   15  C15 UNL     1      31.818   6.958  46.842  1.00  0.00     0.091 A 
HETATM   16  C21 UNL     1      30.746   7.562  46.224  1.00  0.00     0.050 A 
HETATM   17  C22 UNL     1      29.696   8.082  46.946  1.00  0.00     0.004 A 
HETATM   18  H9  UNL     1      29.639  10.486  46.538  1.00  0.00     0.161 HD
HETATM   19  H16 UNL     1      28.357   7.509  49.572  1.00  0.00     0.167 HD
ENDROOT
BRANCH  15  20
HETATM   20  O2  UNL     1      32.906   6.408  46.193  1.00  0.00    -0.345 OA
BRANCH  20  21
HETATM   21  C16 UNL     1      32.857   5.310  45.332  1.00  0.00     0.214 C 
BRANCH  21  22
HETATM   22  C17 UNL     1      33.032   4.029  46.069  1.00  0.00    -0.028 A 
HETATM   23  C18 UNL     1      33.871   3.125  46.566  1.00  0.00     0.051 A 
HETATM   24  C19 UNL     1      32.754   2.345  47.052  1.00  0.00     0.117 A 
HETATM   25  F1  UNL     1      32.842   1.160  47.739  1.00  0.00    -0.206 F 
HETATM   26  C20 UNL     1      31.902   3.223  46.571  1.00  0.00     0.051 A 
ENDBRANCH  21  22
ENDBRANCH  20  21
ENDBRANCH  15  20
BRANCH   1  27
HETATM   27  C3  UNL     1      27.342   8.292  46.998  1.00  0.00    -0.037 A 
HETATM   28  C2  UNL     1      26.102   8.090  47.677  1.00  0.00     0.026 A 
HETATM   29  C1  UNL     1      25.910   6.854  48.087  1.00  0.00     0.010 A 
HETATM   30  O1  UNL     1      27.212   7.077  47.367  1.00  0.00     0.000 OA
ENDBRANCH   1  27
BRANCH   1  31
HETATM   31  C5  UNL     1      28.373   8.225  44.846  1.00  0.00     0.037 C 
HETATM   32  C6  UNL     1      27.023   8.656  44.280  1.00  0.00     0.008 C 
ENDBRANCH   1  31
TORSDOF 5
ENDMDL
MODEL 5
REMARK VINA RESULT:      -7.2      8.817     11.958
REMARK  5 active torsions:
REMARK  status: ('A' for Active; 'I' for Inactive)
REMARK    1  A    between atoms: C3_3  and  C4_5 
REMARK    2  A    between atoms: C4_5  and  C5_6 
REMARK    3  A    between atoms: C15_21  and  O2_22 
REMARK    4  A    between atoms: O2_22  and  C16_23 
REMARK    5  A    between atoms: C16_23  and  C17_24 
ROOT
HETATM    1  C4  UNL     1      32.334   7.453  47.032  1.00  0.00     0.084 C 
HETATM    2  N1  UNL     1      32.512   7.330  45.613  1.00  0.00    -0.376 N 
HETATM    3  C7  UNL     1      33.101   7.316  44.321  1.00  0.00     0.003 C 
HETATM    4  C8  UNL     1      33.301   8.618  43.635  1.00  0.00     0.068 C 
HETATM    5  C9  UNL     1      33.465   6.219  43.688  1.00  0.00     0.045 C 
HETATM    6  C10 UNL     1      33.449   4.803  43.932  1.00  0.00     0.143 C 
HETATM    7  N2  UNL     1      32.894   4.796  45.095  1.00  0.00    -0.162 NA
HETATM    8  N3  UNL     1      32.642   3.609  45.797  1.00  0.00    -0.146 NA
HETATM    9  C11 UNL     1      31.963   3.743  46.883  1.00  0.00     0.232 C 
HETATM   10  N4  UNL     1      31.329   4.702  47.699  1.00  0.00    -0.349 N 
HETATM   11  C12 UNL     1      30.532   5.871  47.762  1.00  0.00     0.044 A 
HETATM   12  C13 UNL     1      29.237   5.583  48.165  1.00  0.00     0.057 A 
HETATM   13  C14 UNL     1      28.268   6.590  48.304  1.00  0.00     0.069 A 
HETATM   14 CL1  UNL     1      26.645   6.175  48.814  1.00  0.00    -0.081 Cl
HETATM   15  C15 UNL     1      28.699   7.867  48.015  1.00  0.00     0.091 A 
HETATM   16  C21 UNL     1      29.986   8.149  47.615  1.00  0.00     0.050 A 
HETATM   17  C22 UNL     1      30.933   7.159  47.478  1.00  0.00     0.004 A 
HETATM   18  H9  UNL     1      31.590   7.082  45.131  1.00  0.00     0.161 HD
HETATM   19  H16 UNL     1      31.493   4.488  48.734  1.00  0.00     0.167 HD
ENDROOT
BRANCH  15  20
HETATM   20  O2  UNL     1      27.694   8.800  48.180  1.00  0.00    -0.345 OA
BRANCH  20  21
HETATM   21  C16 UNL     1      27.622   9.727  49.222  1.00  0.00     0.214 C 
BRANCH  21  22
HETATM   22  C17 UNL     1      27.962  11.100  48.757  1.00  0.00    -0.028 A 
HETATM   23  C18 UNL     1      27.532  12.254  48.256  1.00  0.00     0.051 A 
HETATM   24  C19 UNL     1      28.883  12.772  48.272  1.00  0.00     0.117 A 
HETATM   25  F1  UNL     1      29.266  14.025  47.862  1.00  0.00    -0.206 F 
HETATM   26  C20 UNL     1      29.334  11.642  48.768  1.00  0.00     0.051 A 
ENDBRANCH  21  22
ENDBRANCH  20  21
ENDBRANCH  15  20
BRANCH   1  27
HETATM   27  C3  UNL     1      33.204   6.632  47.868  1.00  0.00    -0.037 A 
HETATM   28  C2  UNL     1      33.883   5.878  48.874  1.00  0.00     0.026 A 
HETATM   29  C1  UNL     1      34.996   5.309  48.458  1.00  0.00     0.010 A 
HETATM   30  O1  UNL     1      34.270   6.102  47.406  1.00  0.00     0.000 OA
ENDBRANCH   1  27
BRANCH   1  31
HETATM   31  C5  UNL     1      32.694   8.910  47.371  1.00  0.00     0.037 C 
HETATM   32  C6  UNL     1      34.194   9.127  47.197  1.00  0.00     0.008 C 
ENDBRANCH   1  31
TORSDOF 5
ENDMDL
MODEL 6
REMARK VINA RESULT:      -7.1      8.523     11.340
REMARK  5 active torsions:
REMARK  status: ('A' for Active; 'I' for Inactive)
REMARK    1  A    between atoms: C3_3  and  C4_5 
REMARK    2  A    between atoms: C4_5  and  C5_6 
REMARK    3  A    between atoms: C15_21  and  O2_22 
REMARK    4  A    between atoms: O2_22  and  C16_23 
REMARK    5  A    between atoms: C16_23  and  C17_24 
ROOT
HETATM    1  C4  UNL     1      32.604   6.172  46.711  1.00  0.00     0.084 C 
HETATM    2  N1  UNL     1      33.601   6.136  47.743  1.00  0.00    -0.376 N 
HETATM    3  C7  UNL     1      34.815   5.903  48.443  1.00  0.00     0.003 C 
HETATM    4  C8  UNL     1      35.051   4.542  48.989  1.00  0.00     0.068 C 
HETATM    5  C9  UNL     1      35.736   6.822  48.649  1.00  0.00     0.045 C 
HETATM    6  C10 UNL     1      35.929   8.213  48.342  1.00  0.00     0.143 C 
HETATM    7  N2  UNL     1      34.822   8.447  47.726  1.00  0.00    -0.162 NA
HETATM    8  N3  UNL     1      34.508   9.711  47.205  1.00  0.00    -0.146 NA
HETATM    9  C11 UNL     1      33.317   9.835  46.736  1.00  0.00     0.232 C 
HETATM   10  N4  UNL     1      32.113   9.130  46.527  1.00  0.00    -0.349 N 
HETATM   11  C12 UNL     1      31.173   8.203  47.039  1.00  0.00     0.044 A 
HETATM   12  C13 UNL     1      30.006   8.834  47.444  1.00  0.00     0.057 A 
HETATM   13  C14 UNL     1      28.929   8.111  47.982  1.00  0.00     0.069 A 
HETATM   14 CL1  UNL     1      27.477   8.954  48.482  1.00  0.00    -0.081 Cl
HETATM   15  C15 UNL     1      29.117   6.749  48.072  1.00  0.00     0.091 A 
HETATM   16  C21 UNL     1      30.277   6.127  47.668  1.00  0.00     0.050 A 
HETATM   17  C22 UNL     1      31.332   6.838  47.143  1.00  0.00     0.004 A 
HETATM   18  H9  UNL     1      33.230   6.566  48.650  1.00  0.00     0.161 HD
HETATM   19  H16 UNL     1      31.689   9.376  45.577  1.00  0.00     0.167 HD
ENDROOT
BRANCH  15  20
HETATM   20  O2  UNL     1      28.014   6.110  48.603  1.00  0.00    -0.345 OA
BRANCH  20  21
HETATM   21  C16 UNL     1      27.793   4.731  48.575  1.00  0.00     0.214 C 
BRANCH  21  22
HETATM   22  C17 UNL     1      26.564   4.358  49.326  1.00  0.00    -0.028 A 
HETATM   23  C18 UNL     1      25.969   3.500  50.150  1.00  0.00     0.051 A 
HETATM   24  C19 UNL     1      24.757   4.289  50.105  1.00  0.00     0.117 A 
HETATM   25  F1  UNL     1      23.591   4.005  50.773  1.00  0.00    -0.206 F 
HETATM   26  C20 UNL     1      25.322   5.152  49.291  1.00  0.00     0.051 A 
ENDBRANCH  21  22
ENDBRANCH  20  21
ENDBRANCH  15  20
BRANCH   1  27
HETATM   27  C3  UNL     1      32.991   6.815  45.459  1.00  0.00    -0.037 A 
HETATM   28  C2  UNL     1      33.598   7.484  44.352  1.00  0.00     0.026 A 
HETATM   29  C1  UNL     1      32.811   7.609  43.304  1.00  0.00     0.010 A 
HETATM   30  O1  UNL     1      32.183   6.903  44.474  1.00  0.00     0.000 OA
ENDBRANCH   1  27
BRANCH   1  31
HETATM   31  C5  UNL     1      32.327   4.702  46.350  1.00  0.00     0.037 C 
HETATM   32  C6  UNL     1      33.548   4.099  45.663  1.00  0.00     0.008 C 
ENDBRANCH   1  31
TORSDOF 5
ENDMDL
MODEL 7
REMARK VINA RESULT:      -7.1     10.500     13.414
REMARK  5 active torsions:
REMARK  status: ('A' for Active; 'I' for Inactive)
REMARK    1  A    between atoms: C3_3  and  C4_5 
REMARK    2  A    between atoms: C4_5  and  C5_6 
REMARK    3  A    between atoms: C15_21  and  O2_22 
REMARK    4  A    between atoms: O2_22  and  C16_23 
REMARK    5  A    between atoms: C16_23  and  C17_24 
ROOT
HETATM    1  C4  UNL     1      32.777   5.273  46.608  1.00  0.00     0.084 C 
HETATM    2  N1  UNL     1      31.606   5.930  47.116  1.00  0.00    -0.376 N 
HETATM    3  C7  UNL     1      30.532   6.316  47.962  1.00  0.00     0.003 C 
HETATM    4  C8  UNL     1      29.336   5.437  48.011  1.00  0.00     0.068 C 
HETATM    5  C9  UNL     1      30.526   7.413  48.693  1.00  0.00     0.045 C 
HETATM    6  C10 UNL     1      31.405   8.522  48.941  1.00  0.00     0.143 C 
HETATM    7  N2  UNL     1      32.378   8.199  48.161  1.00  0.00    -0.162 NA
HETATM    8  N3  UNL     1      33.530   8.988  48.033  1.00  0.00    -0.146 NA
HETATM    9  C11 UNL     1      34.357   8.615  47.121  1.00  0.00     0.232 C 
HETATM   10  N4  UNL     1      34.565   7.639  46.125  1.00  0.00    -0.349 N 
HETATM   11  C12 UNL     1      33.997   6.853  45.093  1.00  0.00     0.044 A 
HETATM   12  C13 UNL     1      34.368   7.316  43.839  1.00  0.00     0.057 A 
HETATM   13  C14 UNL     1      33.927   6.687  42.663  1.00  0.00     0.069 A 
HETATM   14 CL1  UNL     1      34.421   7.311  41.103  1.00  0.00    -0.081 Cl
HETATM   15  C15 UNL     1      33.112   5.591  42.849  1.00  0.00     0.091 A 
HETATM   16  C21 UNL     1      32.747   5.135  44.096  1.00  0.00     0.050 A 
HETATM   17  C22 UNL     1      33.179   5.754  45.246  1.00  0.00     0.004 A 
HETATM   18  H9  UNL     1      31.215   6.623  46.402  1.00  0.00     0.161 HD
HETATM   19  H16 UNL     1      35.588   7.331  46.102  1.00  0.00     0.167 HD
ENDROOT
BRANCH  15  20
HETATM   20  O2  UNL     1      32.726   5.026  41.649  1.00  0.00    -0.345 OA
BRANCH  20  21
HETATM   21  C16 UNL     1      33.280   3.873  41.090  1.00  0.00     0.214 C 
BRANCH  21  22
HETATM   22  C17 UNL     1      32.265   3.086  40.338  1.00  0.00    -0.028 A 
HETATM   23  C18 UNL     1      31.842   1.891  39.936  1.00  0.00     0.051 A 
HETATM   24  C19 UNL     1      30.722   2.508  39.260  1.00  0.00     0.117 A 
HETATM   25  F1  UNL     1      29.750   1.845  38.552  1.00  0.00    -0.206 F 
HETATM   26  C20 UNL     1      31.117   3.701  39.644  1.00  0.00     0.051 A 
ENDBRANCH  21  22
ENDBRANCH  20  21
ENDBRANCH  15  20
BRANCH   1  27
HETATM   27  C3  UNL     1      33.977   5.357  47.436  1.00  0.00    -0.037 A 
HETATM   28  C2  UNL     1      35.278   5.389  48.024  1.00  0.00     0.026 A 
HETATM   29  C1  UNL     1      35.276   5.631  49.319  1.00  0.00     0.010 A 
HETATM   30  O1  UNL     1      33.911   5.599  48.688  1.00  0.00     0.000 OA
ENDBRANCH   1  27
BRANCH   1  31
HETATM   31  C5  UNL     1      32.422   3.777  46.550  1.00  0.00     0.037 C 
HETATM   32  C6  UNL     1      33.697   2.940  46.589  1.00  0.00     0.008 C 
ENDBRANCH   1  31
TORSDOF 5
ENDMDL
MODEL 8
REMARK VINA RESULT:      -7.1      4.699      7.211
REMARK  5 active torsions:
REMARK  status: ('A' for Active; 'I' for Inactive)
REMARK    1  A    between atoms: C3_3  and  C4_5 
REMARK    2  A    between atoms: C4_5  and  C5_6 
REMARK    3  A    between atoms: C15_21  and  O2_22 
REMARK    4  A    between atoms: O2_22  and  C16_23 
REMARK    5  A    between atoms: C16_23  and  C17_24 
ROOT
HETATM    1  C4  UNL     1      25.501   7.780  48.160  1.00  0.00     0.084 C 
HETATM    2  N1  UNL     1      25.545   7.894  46.729  1.00  0.00    -0.376 N 
HETATM    3  C7  UNL     1      25.521   8.429  45.414  1.00  0.00     0.003 C 
HETATM    4  C8  UNL     1      24.196   8.710  44.802  1.00  0.00     0.068 C 
HETATM    5  C9  UNL     1      26.599   8.677  44.699  1.00  0.00     0.045 C 
HETATM    6  C10 UNL     1      28.023   8.554  44.855  1.00  0.00     0.143 C 
HETATM    7  N2  UNL     1      28.061   8.045  46.038  1.00  0.00    -0.162 NA
HETATM    8  N3  UNL     1      29.268   7.724  46.675  1.00  0.00    -0.146 NA
HETATM    9  C11 UNL     1      29.152   7.100  47.795  1.00  0.00     0.232 C 
HETATM   10  N4  UNL     1      28.201   6.579  48.697  1.00  0.00    -0.349 N 
HETATM   11  C12 UNL     1      26.979   5.884  48.867  1.00  0.00     0.044 A 
HETATM   12  C13 UNL     1      27.189   4.586  49.307  1.00  0.00     0.057 A 
HETATM   13  C14 UNL     1      26.118   3.710  49.551  1.00  0.00     0.069 A 
HETATM   14 CL1  UNL     1      26.435   2.078  50.104  1.00  0.00    -0.081 Cl
HETATM   15  C15 UNL     1      24.864   4.233  49.323  1.00  0.00     0.091 A 
HETATM   16  C21 UNL     1      24.660   5.522  48.886  1.00  0.00     0.050 A 
HETATM   17  C22 UNL     1      25.711   6.378  48.647  1.00  0.00     0.004 A 
HETATM   18  H9  UNL     1      25.686   6.936  46.273  1.00  0.00     0.161 HD
HETATM   19  H16 UNL     1      28.494   6.764  49.708  1.00  0.00     0.167 HD
ENDROOT
BRANCH  15  20
HETATM   20  O2  UNL     1      23.866   3.315  49.589  1.00  0.00    -0.345 OA
BRANCH  20  21
HETATM   21  C16 UNL     1      22.964   3.396  50.652  1.00  0.00     0.214 C 
BRANCH  21  22
HETATM   22  C17 UNL     1      23.342   2.480  51.762  1.00  0.00    -0.028 A 
HETATM   23  C18 UNL     1      23.994   2.316  52.910  1.00  0.00     0.051 A 
HETATM   24  C19 UNL     1      23.566   0.936  52.963  1.00  0.00     0.117 A 
HETATM   25  F1  UNL     1      23.875   0.039  53.956  1.00  0.00    -0.206 F 
HETATM   26  C20 UNL     1      22.913   1.070  51.831  1.00  0.00     0.051 A 
ENDBRANCH  21  22
ENDBRANCH  20  21
ENDBRANCH  15  20
BRANCH   1  27
HETATM   27  C3  UNL     1      26.442   8.612  48.904  1.00  0.00    -0.037 A 
HETATM   28  C2  UNL     1      27.306   9.269  49.832  1.00  0.00     0.026 A 
HETATM   29  C1  UNL     1      27.956  10.295  49.326  1.00  0.00     0.010 A 
HETATM   30  O1  UNL     1      27.046   9.593  48.355  1.00  0.00     0.000 OA
ENDBRANCH   1  27
BRANCH   1  31
HETATM   31  C5  UNL     1      24.102   8.272  48.572  1.00  0.00     0.037 C 
HETATM   32  C6  UNL     1      23.954   9.753  48.236  1.00  0.00     0.008 C 
ENDBRANCH   1  31
TORSDOF 5
ENDMDL
MODEL 9
REMARK VINA RESULT:      -7.1      2.959      3.806
REMARK  5 active torsions:
REMARK  status: ('A' for Active; 'I' for Inactive)
REMARK    1  A    between atoms: C3_3  and  C4_5 
REMARK    2  A    between atoms: C4_5  and  C5_6 
REMARK    3  A    between atoms: C15_21  and  O2_22 
REMARK    4  A    between atoms: O2_22  and  C16_23 
REMARK    5  A    between atoms: C16_23  and  C17_24 
ROOT
HETATM    1  C4  UNL     1      22.091   3.663  49.481  1.00  0.00     0.084 C 
HETATM    2  N1  UNL     1      22.146   4.796  50.360  1.00  0.00    -0.376 N 
HETATM    3  C7  UNL     1      22.553   6.007  50.981  1.00  0.00     0.003 C 
HETATM    4  C8  UNL     1      23.676   5.946  51.952  1.00  0.00     0.068 C 
HETATM    5  C9  UNL     1      21.986   7.176  50.760  1.00  0.00     0.045 C 
HETATM    6  C10 UNL     1      20.910   7.694  49.962  1.00  0.00     0.143 C 
HETATM    7  N2  UNL     1      20.513   6.601  49.409  1.00  0.00    -0.162 NA
HETATM    8  N3  UNL     1      19.442   6.566  48.504  1.00  0.00    -0.146 NA
HETATM    9  C11 UNL     1      19.069   5.390  48.135  1.00  0.00     0.232 C 
HETATM   10  N4  UNL     1      19.350   4.019  48.303  1.00  0.00    -0.349 N 
HETATM   11  C12 UNL     1      19.697   2.977  49.196  1.00  0.00     0.044 A 
HETATM   12  C13 UNL     1      18.614   2.149  49.458  1.00  0.00     0.057 A 
HETATM   13  C14 UNL     1      18.725   1.042  50.315  1.00  0.00     0.069 A 
HETATM   14 CL1  UNL     1      17.328   0.029  50.615  1.00  0.00    -0.081 Cl
HETATM   15  C15 UNL     1      19.973   0.844  50.865  1.00  0.00     0.091 A 
HETATM   16  C21 UNL     1      21.045   1.668  50.603  1.00  0.00     0.050 A 
HETATM   17  C22 UNL     1      20.933   2.753  49.764  1.00  0.00     0.004 A 
HETATM   18  H9  UNL     1      21.360   4.758  51.085  1.00  0.00     0.161 HD
HETATM   19  H16 UNL     1      19.276   3.499  47.372  1.00  0.00     0.167 HD
ENDROOT
BRANCH  15  20
HETATM   20  O2  UNL     1      20.003  -0.264  51.689  1.00  0.00    -0.345 OA
BRANCH  20  21
HETATM   21  C16 UNL     1      20.115  -0.227  53.081  1.00  0.00     0.214 C 
BRANCH  21  22
HETATM   22  C17 UNL     1      21.517  -0.459  53.523  1.00  0.00    -0.028 A 
HETATM   23  C18 UNL     1      22.812  -0.405  53.225  1.00  0.00     0.051 A 
HETATM   24  C19 UNL     1      23.142  -0.916  54.538  1.00  0.00     0.117 A 
HETATM   25  F1  UNL     1      24.409  -1.150  55.011  1.00  0.00    -0.206 F 
HETATM   26  C20 UNL     1      21.869  -0.978  54.858  1.00  0.00     0.051 A 
ENDBRANCH  21  22
ENDBRANCH  20  21
ENDBRANCH  15  20
BRANCH   1  27
HETATM   27  C3  UNL     1      22.034   3.955  48.051  1.00  0.00    -0.037 A 
HETATM   28  C2  UNL     1      21.974   4.490  46.728  1.00  0.00     0.026 A 
HETATM   29  C1  UNL     1      21.958   3.576  45.781  1.00  0.00     0.010 A 
HETATM   30  O1  UNL     1      22.025   3.023  47.178  1.00  0.00     0.000 OA
ENDBRANCH   1  27
BRANCH   1  31
HETATM   31  C5  UNL     1      23.413   2.906  49.694  1.00  0.00     0.037 C 
HETATM   32  C6  UNL     1      24.585   3.777  49.251  1.00  0.00     0.008 C 
ENDBRANCH   1  31
TORSDOF 5
ENDMDL
