MODEL 1
REMARK VINA RESULT:      -9.4      0.000      0.000
REMARK  4 active torsions:
REMARK  status: ('A' for Active; 'I' for Inactive)
REMARK    1  A    between atoms: C2_2  and  N1_3 
REMARK    2  A    between atoms: C8_9  and  O1_10 
REMARK    3  A    between atoms: C12_15  and  C13_16 
REMARK    4  A    between atoms: C20_24  and  O4_25 
ROOT
HETATM    1  N1  UNL     1      24.958   3.684  50.946  1.00  0.00    -0.388 N 
HETATM    2  C3  UNL     1      23.635   3.213  51.295  1.00  0.00     0.127 C 
HETATM    3  C4  UNL     1      23.430   1.738  50.966  1.00  0.00     0.062 C 
HETATM    4  C5  UNL     1      24.034   0.929  52.050  1.00  0.00    -0.015 A 
HETATM    5  C6  UNL     1      25.330   0.624  52.416  1.00  0.00    -0.044 A 
HETATM    6  C7  UNL     1      25.627  -0.187  53.517  1.00  0.00     0.045 A 
HETATM    7  C8  UNL     1      24.575  -0.691  54.252  1.00  0.00     0.083 A 
HETATM    8  C9  UNL     1      23.268  -0.408  53.917  1.00  0.00     0.082 A 
HETATM    9  C10 UNL     1      22.228  -0.923  54.665  1.00  0.00     0.190 A 
HETATM   10  O2  UNL     1      22.418  -1.659  55.666  1.00  0.00    -0.287 OA
HETATM   11  C11 UNL     1      20.953  -0.574  54.236  1.00  0.00     0.089 A 
HETATM   12  C12 UNL     1      20.740   0.233  53.140  1.00  0.00     0.069 A 
HETATM   13  O3  UNL     1      21.757   0.705  52.451  1.00  0.00    -0.312 OA
HETATM   14  C18 UNL     1      22.998   0.399  52.820  1.00  0.00     0.099 A 
HETATM   15  C19 UNL     1      26.656   1.006  51.839  1.00  0.00     0.072 C 
HETATM   16  C20 UNL     1      26.828   2.498  52.048  1.00  0.00     0.140 C 
HETATM   17  C21 UNL     1      26.313   3.203  50.835  1.00  0.00     0.154 C 
ENDROOT
BRANCH  12  18
HETATM   18  C13 UNL     1      19.338   0.565  52.741  1.00  0.00     0.088 A 
HETATM   19  C14 UNL     1      18.410  -0.555  53.024  1.00  0.00    -0.012 A 
HETATM   20  C15 UNL     1      17.805  -0.943  51.895  1.00  0.00    -0.003 A 
HETATM   21  C16 UNL     1      18.300  -0.098  50.789  1.00  0.00    -0.003 A 
HETATM   22  C17 UNL     1      19.175   0.757  51.292  1.00  0.00    -0.012 A 
ENDBRANCH  12  18
BRANCH   7  23
HETATM   23  O1  UNL     1      24.855  -1.497  55.344  1.00  0.00    -0.360 OA
HETATM   24  H9  UNL     1      25.066  -2.481  55.147  1.00  0.00     0.217 HD
ENDBRANCH   7  23
BRANCH   1  25
HETATM   25  C2  UNL     1      24.816   5.080  50.609  1.00  0.00     0.075 C 
HETATM   26  C1  UNL     1      25.608   5.407  49.592  1.00  0.00     0.029 C 
ENDBRANCH   1  25
BRANCH  16  27
HETATM   27  O4  UNL     1      28.188   2.794  52.228  1.00  0.00    -0.394 OA
HETATM   28  H19 UNL     1      28.522   2.323  53.038  1.00  0.00     0.210 HD
ENDBRANCH  16  27
TORSDOF 4
ENDMDL
MODEL 2
REMARK VINA RESULT:      -9.2      2.062      6.061
REMARK  4 active torsions:
REMARK  status: ('A' for Active; 'I' for Inactive)
REMARK    1  A    between atoms: C2_2  and  N1_3 
REMARK    2  A    between atoms: C8_9  and  O1_10 
REMARK    3  A    between atoms: C12_15  and  C13_16 
REMARK    4  A    between atoms: C20_24  and  O4_25 
ROOT
HETATM    1  N1  UNL     1      21.435   1.669  49.754  1.00  0.00    -0.388 N 
HETATM    2  C3  UNL     1      22.814   1.531  50.171  1.00  0.00     0.127 C 
HETATM    3  C4  UNL     1      23.075   2.132  51.548  1.00  0.00     0.062 C 
HETATM    4  C5  UNL     1      22.640   1.157  52.573  1.00  0.00    -0.015 A 
HETATM    5  C6  UNL     1      21.411   0.731  53.038  1.00  0.00    -0.044 A 
HETATM    6  C7  UNL     1      21.283  -0.232  54.044  1.00  0.00     0.045 A 
HETATM    7  C8  UNL     1      22.435  -0.766  54.580  1.00  0.00     0.083 A 
HETATM    8  C9  UNL     1      23.680  -0.367  54.142  1.00  0.00     0.082 A 
HETATM    9  C10 UNL     1      24.823  -0.913  54.691  1.00  0.00     0.190 A 
HETATM   10  O2  UNL     1      24.785  -1.782  55.598  1.00  0.00    -0.287 OA
HETATM   11  C11 UNL     1      26.022  -0.436  54.174  1.00  0.00     0.089 A 
HETATM   12  C12 UNL     1      26.068   0.516  53.179  1.00  0.00     0.069 A 
HETATM   13  O3  UNL     1      24.956   1.014  52.680  1.00  0.00    -0.312 OA
HETATM   14  C18 UNL     1      23.783   0.591  53.141  1.00  0.00     0.099 A 
HETATM   15  C19 UNL     1      20.011   1.107  52.671  1.00  0.00     0.072 C 
HETATM   16  C20 UNL     1      19.769   0.624  51.254  1.00  0.00     0.140 C 
HETATM   17  C21 UNL     1      20.108   1.736  50.316  1.00  0.00     0.154 C 
ENDROOT
BRANCH  12  18
HETATM   18  C13 UNL     1      27.396   0.979  52.674  1.00  0.00     0.088 A 
HETATM   19  C14 UNL     1      28.508   0.198  53.267  1.00  0.00    -0.012 A 
HETATM   20  C15 UNL     1      29.348   1.018  53.911  1.00  0.00    -0.003 A 
HETATM   21  C16 UNL     1      28.839   2.398  53.782  1.00  0.00    -0.003 A 
HETATM   22  C17 UNL     1      27.724   2.355  53.072  1.00  0.00    -0.012 A 
ENDBRANCH  12  18
BRANCH   7  23
HETATM   23  O1  UNL     1      22.322  -1.721  55.579  1.00  0.00    -0.360 OA
HETATM   24  H9  UNL     1      22.564  -2.684  55.322  1.00  0.00     0.217 HD
ENDBRANCH   7  23
BRANCH   1  25
HETATM   25  C2  UNL     1      21.453   1.766  48.315  1.00  0.00     0.075 C 
HETATM   26  C1  UNL     1      22.567   2.359  47.892  1.00  0.00     0.029 C 
ENDBRANCH   1  25
BRANCH  16  27
HETATM   27  O4  UNL     1      18.419   0.270  51.103  1.00  0.00    -0.394 OA
HETATM   28  H19 UNL     1      17.904   0.596  51.889  1.00  0.00     0.210 HD
ENDBRANCH  16  27
TORSDOF 4
ENDMDL
MODEL 3
REMARK VINA RESULT:      -9.1      1.836      6.377
REMARK  4 active torsions:
REMARK  status: ('A' for Active; 'I' for Inactive)
REMARK    1  A    between atoms: C2_2  and  N1_3 
REMARK    2  A    between atoms: C8_9  and  O1_10 
REMARK    3  A    between atoms: C12_15  and  C13_16 
REMARK    4  A    between atoms: C20_24  and  O4_25 
ROOT
HETATM    1  N1  UNL     1      19.936   0.320  52.062  1.00  0.00    -0.388 N 
HETATM    2  C3  UNL     1      20.977   1.003  51.324  1.00  0.00     0.127 C 
HETATM    3  C4  UNL     1      21.848   1.884  52.213  1.00  0.00     0.062 C 
HETATM    4  C5  UNL     1      22.850   1.025  52.884  1.00  0.00    -0.015 A 
HETATM    5  C6  UNL     1      22.797   0.108  53.916  1.00  0.00    -0.044 A 
HETATM    6  C7  UNL     1      23.928  -0.584  54.363  1.00  0.00     0.045 A 
HETATM    7  C8  UNL     1      25.131  -0.329  53.739  1.00  0.00     0.083 A 
HETATM    8  C9  UNL     1      25.223   0.579  52.706  1.00  0.00     0.082 A 
HETATM    9  C10 UNL     1      26.437   0.821  52.094  1.00  0.00     0.190 A 
HETATM   10  O2  UNL     1      27.495   0.238  52.443  1.00  0.00    -0.287 OA
HETATM   11  C11 UNL     1      26.413   1.756  51.066  1.00  0.00     0.089 A 
HETATM   12  C12 UNL     1      25.256   2.397  50.681  1.00  0.00     0.069 A 
HETATM   13  O3  UNL     1      24.117   2.140  51.288  1.00  0.00    -0.312 OA
HETATM   14  C18 UNL     1      24.087   1.254  52.279  1.00  0.00     0.099 A 
HETATM   15  C19 UNL     1      21.672  -0.378  54.773  1.00  0.00     0.072 C 
HETATM   16  C20 UNL     1      20.727  -1.159  53.880  1.00  0.00     0.140 C 
HETATM   17  C21 UNL     1      19.680  -0.220  53.375  1.00  0.00     0.154 C 
ENDROOT
BRANCH  12  18
HETATM   18  C13 UNL     1      25.310   3.389  49.565  1.00  0.00     0.088 A 
HETATM   19  C14 UNL     1      26.706   3.748  49.220  1.00  0.00    -0.012 A 
HETATM   20  C15 UNL     1      26.885   5.068  49.355  1.00  0.00    -0.003 A 
HETATM   21  C16 UNL     1      25.609   5.666  49.800  1.00  0.00    -0.003 A 
HETATM   22  C17 UNL     1      24.722   4.691  49.914  1.00  0.00    -0.012 A 
ENDBRANCH  12  18
BRANCH   7  23
HETATM   23  O1  UNL     1      26.260  -1.007  54.173  1.00  0.00    -0.360 OA
HETATM   24  H9  UNL     1      26.917  -0.478  54.756  1.00  0.00     0.217 HD
ENDBRANCH   7  23
BRANCH   1  25
HETATM   25  C2  UNL     1      18.831   0.156  51.149  1.00  0.00     0.075 C 
HETATM   26  C1  UNL     1      17.808  -0.452  51.744  1.00  0.00     0.029 C 
ENDBRANCH   1  25
BRANCH  16  27
HETATM   27  O4  UNL     1      20.125  -2.188  54.620  1.00  0.00    -0.394 OA
HETATM   28  H19 UNL     1      19.182  -1.940  54.821  1.00  0.00     0.210 HD
ENDBRANCH  16  27
TORSDOF 4
ENDMDL
MODEL 4
REMARK VINA RESULT:      -9.0      1.589      2.826
REMARK  4 active torsions:
REMARK  status: ('A' for Active; 'I' for Inactive)
REMARK    1  A    between atoms: C2_2  and  N1_3 
REMARK    2  A    between atoms: C8_9  and  O1_10 
REMARK    3  A    between atoms: C12_15  and  C13_16 
REMARK    4  A    between atoms: C20_24  and  O4_25 
ROOT
HETATM    1  N1  UNL     1      23.537   5.039  50.643  1.00  0.00    -0.388 N 
HETATM    2  C3  UNL     1      22.926   4.079  51.538  1.00  0.00     0.127 C 
HETATM    3  C4  UNL     1      22.986   2.654  51.000  1.00  0.00     0.062 C 
HETATM    4  C5  UNL     1      24.331   2.103  51.284  1.00  0.00    -0.015 A 
HETATM    5  C6  UNL     1      25.589   2.311  50.754  1.00  0.00    -0.044 A 
HETATM    6  C7  UNL     1      26.722   1.639  51.225  1.00  0.00     0.045 A 
HETATM    7  C8  UNL     1      26.558   0.739  52.257  1.00  0.00     0.083 A 
HETATM    8  C9  UNL     1      25.318   0.505  52.812  1.00  0.00     0.082 A 
HETATM    9  C10 UNL     1      25.174  -0.400  53.845  1.00  0.00     0.190 A 
HETATM   10  O2  UNL     1      26.146  -1.041  54.319  1.00  0.00    -0.287 OA
HETATM   11  C11 UNL     1      23.880  -0.557  54.326  1.00  0.00     0.089 A 
HETATM   12  C12 UNL     1      22.812   0.144  53.810  1.00  0.00     0.069 A 
HETATM   13  O3  UNL     1      22.989   0.999  52.825  1.00  0.00    -0.312 OA
HETATM   14  C18 UNL     1      24.208   1.185  52.328  1.00  0.00     0.099 A 
HETATM   15  C19 UNL     1      26.085   3.198  49.657  1.00  0.00     0.072 C 
HETATM   16  C20 UNL     1      25.921   4.631  50.125  1.00  0.00     0.140 C 
HETATM   17  C21 UNL     1      24.590   5.126  49.661  1.00  0.00     0.154 C 
ENDROOT
BRANCH  12  18
HETATM   18  C13 UNL     1      21.449  -0.079  54.382  1.00  0.00     0.088 A 
HETATM   19  C14 UNL     1      21.094  -1.518  54.402  1.00  0.00    -0.012 A 
HETATM   20  C15 UNL     1      19.974  -1.721  53.698  1.00  0.00    -0.003 A 
HETATM   21  C16 UNL     1      19.518  -0.421  53.166  1.00  0.00    -0.003 A 
HETATM   22  C17 UNL     1      20.374   0.504  53.567  1.00  0.00    -0.012 A 
ENDBRANCH  12  18
BRANCH   7  23
HETATM   23  O1  UNL     1      27.673   0.065  52.733  1.00  0.00    -0.360 OA
HETATM   24  H9  UNL     1      27.762  -0.920  52.465  1.00  0.00     0.217 HD
ENDBRANCH   7  23
BRANCH   1  25
HETATM   25  C2  UNL     1      22.831   6.282  50.838  1.00  0.00     0.075 C 
HETATM   26  C1  UNL     1      21.559   6.061  51.161  1.00  0.00     0.029 C 
ENDBRANCH   1  25
BRANCH  16  27
HETATM   27  O4  UNL     1      26.940   5.424  49.574  1.00  0.00    -0.394 OA
HETATM   28  H19 UNL     1      26.756   6.382  49.775  1.00  0.00     0.210 HD
ENDBRANCH  16  27
TORSDOF 4
ENDMDL
MODEL 5
REMARK VINA RESULT:      -8.8      2.173      5.150
REMARK  4 active torsions:
REMARK  status: ('A' for Active; 'I' for Inactive)
REMARK    1  A    between atoms: C2_2  and  N1_3 
REMARK    2  A    between atoms: C8_9  and  O1_10 
REMARK    3  A    between atoms: C12_15  and  C13_16 
REMARK    4  A    between atoms: C20_24  and  O4_25 
ROOT
HETATM    1  N1  UNL     1      24.667   4.624  50.278  1.00  0.00    -0.388 N 
HETATM    2  C3  UNL     1      25.051   3.416  50.978  1.00  0.00     0.127 C 
HETATM    3  C4  UNL     1      24.547   3.387  52.417  1.00  0.00     0.062 C 
HETATM    4  C5  UNL     1      23.128   2.963  52.407  1.00  0.00    -0.015 A 
HETATM    5  C6  UNL     1      21.943   3.574  52.050  1.00  0.00    -0.044 A 
HETATM    6  C7  UNL     1      20.707   2.924  52.141  1.00  0.00     0.045 A 
HETATM    7  C8  UNL     1      20.691   1.627  52.607  1.00  0.00     0.083 A 
HETATM    8  C9  UNL     1      21.853   0.984  52.974  1.00  0.00     0.082 A 
HETATM    9  C10 UNL     1      21.817  -0.316  53.439  1.00  0.00     0.190 A 
HETATM   10  O2  UNL     1      20.744  -0.962  53.548  1.00  0.00    -0.287 OA
HETATM   11  C11 UNL     1      23.048  -0.864  53.779  1.00  0.00     0.089 A 
HETATM   12  C12 UNL     1      24.226  -0.160  53.660  1.00  0.00     0.069 A 
HETATM   13  O3  UNL     1      24.221   1.078  53.213  1.00  0.00    -0.312 OA
HETATM   14  C18 UNL     1      23.069   1.648  52.874  1.00  0.00     0.099 A 
HETATM   15  C19 UNL     1      21.633   4.938  51.522  1.00  0.00     0.072 C 
HETATM   16  C20 UNL     1      22.232   5.032  50.132  1.00  0.00     0.140 C 
HETATM   17  C21 UNL     1      23.608   5.603  50.253  1.00  0.00     0.154 C 
ENDROOT
BRANCH  12  18
HETATM   18  C13 UNL     1      25.511  -0.819  54.046  1.00  0.00     0.088 A 
HETATM   19  C14 UNL     1      26.376   0.091  54.834  1.00  0.00    -0.012 A 
HETATM   20  C15 UNL     1      27.552   0.250  54.217  1.00  0.00    -0.003 A 
HETATM   21  C16 UNL     1      27.537  -0.550  52.975  1.00  0.00    -0.003 A 
HETATM   22  C17 UNL     1      26.363  -1.153  52.896  1.00  0.00    -0.012 A 
ENDBRANCH  12  18
BRANCH   7  23
HETATM   23  O1  UNL     1      19.473   0.972  52.704  1.00  0.00    -0.360 OA
HETATM   24  H9  UNL     1      19.506  -0.027  52.934  1.00  0.00     0.217 HD
ENDBRANCH   7  23
BRANCH   1  25
HETATM   25  C2  UNL     1      25.710   4.882  49.315  1.00  0.00     0.075 C 
HETATM   26  C1  UNL     1      26.661   3.955  49.382  1.00  0.00     0.029 C 
ENDBRANCH   1  25
BRANCH  16  27
HETATM   27  O4  UNL     1      21.439   5.872  49.334  1.00  0.00    -0.394 OA
HETATM   28  H19 UNL     1      21.467   5.552  48.392  1.00  0.00     0.210 HD
ENDBRANCH  16  27
TORSDOF 4
ENDMDL
MODEL 6
REMARK VINA RESULT:      -8.7      2.369      5.858
REMARK  4 active torsions:
REMARK  status: ('A' for Active; 'I' for Inactive)
REMARK    1  A    between atoms: C2_2  and  N1_3 
REMARK    2  A    between atoms: C8_9  and  O1_10 
REMARK    3  A    between atoms: C12_15  and  C13_16 
REMARK    4  A    between atoms: C20_24  and  O4_25 
ROOT
HETATM    1  N1  UNL     1      20.738   2.278  48.974  1.00  0.00    -0.388 N 
HETATM    2  C3  UNL     1      21.872   1.915  49.797  1.00  0.00     0.127 C 
HETATM    3  C4  UNL     1      21.692   2.319  51.257  1.00  0.00     0.062 C 
HETATM    4  C5  UNL     1      20.848   1.300  51.922  1.00  0.00    -0.015 A 
HETATM    5  C6  UNL     1      19.503   0.990  51.886  1.00  0.00    -0.044 A 
HETATM    6  C7  UNL     1      18.954  -0.054  52.637  1.00  0.00     0.045 A 
HETATM    7  C8  UNL     1      19.801  -0.792  53.437  1.00  0.00     0.083 A 
HETATM    8  C9  UNL     1      21.149  -0.512  53.499  1.00  0.00     0.082 A 
HETATM    9  C10 UNL     1      21.982  -1.261  54.307  1.00  0.00     0.190 A 
HETATM   10  O2  UNL     1      21.559  -2.214  55.009  1.00  0.00    -0.287 OA
HETATM   11  C11 UNL     1      23.321  -0.891  54.292  1.00  0.00     0.089 A 
HETATM   12  C12 UNL     1      23.788   0.152  53.523  1.00  0.00     0.069 A 
HETATM   13  O3  UNL     1      22.964   0.844  52.766  1.00  0.00    -0.312 OA
HETATM   14  C18 UNL     1      21.672   0.530  52.745  1.00  0.00     0.099 A 
HETATM   15  C19 UNL     1      18.353   1.586  51.138  1.00  0.00     0.072 C 
HETATM   16  C20 UNL     1      18.574   1.299  49.666  1.00  0.00     0.140 C 
HETATM   17  C21 UNL     1      19.309   2.456  49.070  1.00  0.00     0.154 C 
ENDROOT
BRANCH  12  18
HETATM   18  C13 UNL     1      25.244   0.490  53.560  1.00  0.00     0.088 A 
HETATM   19  C14 UNL     1      25.688   1.131  52.299  1.00  0.00    -0.012 A 
HETATM   20  C15 UNL     1      26.672   0.413  51.744  1.00  0.00    -0.003 A 
HETATM   21  C16 UNL     1      26.940  -0.754  52.610  1.00  0.00    -0.003 A 
HETATM   22  C17 UNL     1      26.114  -0.692  53.641  1.00  0.00    -0.012 A 
ENDBRANCH  12  18
BRANCH   7  23
HETATM   23  O1  UNL     1      19.269  -1.829  54.187  1.00  0.00    -0.360 OA
HETATM   24  H9  UNL     1      18.836  -1.574  55.081  1.00  0.00     0.217 HD
ENDBRANCH   7  23
BRANCH   1  25
HETATM   25  C2  UNL     1      21.260   2.533  47.653  1.00  0.00     0.075 C 
HETATM   26  C1  UNL     1      22.537   2.169  47.568  1.00  0.00     0.029 C 
ENDBRANCH   1  25
BRANCH  16  27
HETATM   27  O4  UNL     1      17.335   1.145  49.025  1.00  0.00    -0.394 OA
HETATM   28  H19 UNL     1      17.136   1.961  48.492  1.00  0.00     0.210 HD
ENDBRANCH  16  27
TORSDOF 4
ENDMDL
MODEL 7
REMARK VINA RESULT:      -8.3      2.185      4.292
REMARK  4 active torsions:
REMARK  status: ('A' for Active; 'I' for Inactive)
REMARK    1  A    between atoms: C2_2  and  N1_3 
REMARK    2  A    between atoms: C8_9  and  O1_10 
REMARK    3  A    between atoms: C12_15  and  C13_16 
REMARK    4  A    between atoms: C20_24  and  O4_25 
ROOT
HETATM    1  N1  UNL     1      21.847   4.580  49.715  1.00  0.00    -0.388 N 
HETATM    2  C3  UNL     1      21.830   3.425  50.586  1.00  0.00     0.127 C 
HETATM    3  C4  UNL     1      22.708   2.288  50.073  1.00  0.00     0.062 C 
HETATM    4  C5  UNL     1      24.112   2.579  50.440  1.00  0.00    -0.015 A 
HETATM    5  C6  UNL     1      25.065   3.467  49.980  1.00  0.00    -0.044 A 
HETATM    6  C7  UNL     1      26.352   3.534  50.523  1.00  0.00     0.045 A 
HETATM    7  C8  UNL     1      26.664   2.677  51.557  1.00  0.00     0.083 A 
HETATM    8  C9  UNL     1      25.740   1.778  52.044  1.00  0.00     0.082 A 
HETATM    9  C10 UNL     1      26.071   0.926  53.080  1.00  0.00     0.190 A 
HETATM   10  O2  UNL     1      27.207   0.930  53.617  1.00  0.00    -0.287 OA
HETATM   11  C11 UNL     1      25.062   0.062  53.489  1.00  0.00     0.089 A 
HETATM   12  C12 UNL     1      23.816   0.055  52.904  1.00  0.00     0.069 A 
HETATM   13  O3  UNL     1      23.537   0.882  51.918  1.00  0.00    -0.312 OA
HETATM   14  C18 UNL     1      24.468   1.729  51.489  1.00  0.00     0.099 A 
HETATM   15  C19 UNL     1      25.038   4.501  48.900  1.00  0.00     0.072 C 
HETATM   16  C20 UNL     1      24.074   5.587  49.338  1.00  0.00     0.140 C 
HETATM   17  C21 UNL     1      22.722   5.261  48.792  1.00  0.00     0.154 C 
ENDROOT
BRANCH  12  18
HETATM   18  C13 UNL     1      22.783  -0.904  53.400  1.00  0.00     0.088 A 
HETATM   19  C14 UNL     1      21.461  -0.655  52.776  1.00  0.00    -0.012 A 
HETATM   20  C15 UNL     1      20.550  -0.402  53.723  1.00  0.00    -0.003 A 
HETATM   21  C16 UNL     1      21.217  -0.468  55.039  1.00  0.00    -0.003 A 
HETATM   22  C17 UNL     1      22.492  -0.756  54.834  1.00  0.00    -0.012 A 
ENDBRANCH  12  18
BRANCH   7  23
HETATM   23  O1  UNL     1      27.936   2.733  52.105  1.00  0.00    -0.360 OA
HETATM   24  H9  UNL     1      28.601   3.373  51.657  1.00  0.00     0.217 HD
ENDBRANCH   7  23
BRANCH   1  25
HETATM   25  C2  UNL     1      20.556   5.210  49.851  1.00  0.00     0.075 C 
HETATM   26  C1  UNL     1      19.825   4.600  50.780  1.00  0.00     0.029 C 
ENDBRANCH   1  25
BRANCH  16  27
HETATM   27  O4  UNL     1      24.503   6.826  48.835  1.00  0.00    -0.394 OA
HETATM   28  H19 UNL     1      24.821   6.708  47.899  1.00  0.00     0.210 HD
ENDBRANCH  16  27
TORSDOF 4
ENDMDL
MODEL 8
REMARK VINA RESULT:      -8.3      1.953      3.360
REMARK  4 active torsions:
REMARK  status: ('A' for Active; 'I' for Inactive)
REMARK    1  A    between atoms: C2_2  and  N1_3 
REMARK    2  A    between atoms: C8_9  and  O1_10 
REMARK    3  A    between atoms: C12_15  and  C13_16 
REMARK    4  A    between atoms: C20_24  and  O4_25 
ROOT
HETATM    1  N1  UNL     1      23.686   5.938  49.125  1.00  0.00    -0.388 N 
HETATM    2  C3  UNL     1      22.888   4.898  49.737  1.00  0.00     0.127 C 
HETATM    3  C4  UNL     1      23.299   3.500  49.287  1.00  0.00     0.062 C 
HETATM    4  C5  UNL     1      24.487   3.088  50.070  1.00  0.00    -0.015 A 
HETATM    5  C6  UNL     1      25.822   3.441  50.053  1.00  0.00    -0.044 A 
HETATM    6  C7  UNL     1      26.756   2.880  50.930  1.00  0.00     0.045 A 
HETATM    7  C8  UNL     1      26.311   1.943  51.839  1.00  0.00     0.083 A 
HETATM    8  C9  UNL     1      24.986   1.566  51.886  1.00  0.00     0.082 A 
HETATM    9  C10 UNL     1      24.559   0.626  52.802  1.00  0.00     0.190 A 
HETATM   10  O2  UNL     1      25.341   0.080  53.621  1.00  0.00    -0.287 OA
HETATM   11  C11 UNL     1      23.203   0.321  52.759  1.00  0.00     0.089 A 
HETATM   12  C12 UNL     1      22.343   0.918  51.864  1.00  0.00     0.069 A 
HETATM   13  O3  UNL     1      22.787   1.810  51.005  1.00  0.00    -0.312 OA
HETATM   14  C18 UNL     1      24.076   2.136  51.005  1.00  0.00     0.099 A 
HETATM   15  C19 UNL     1      26.598   4.402  49.211  1.00  0.00     0.072 C 
HETATM   16  C20 UNL     1      26.117   5.797  49.557  1.00  0.00     0.140 C 
HETATM   17  C21 UNL     1      25.016   6.160  48.613  1.00  0.00     0.154 C 
ENDROOT
BRANCH  12  18
HETATM   18  C13 UNL     1      20.897   0.538  51.880  1.00  0.00     0.088 A 
HETATM   19  C14 UNL     1      20.310   0.568  50.519  1.00  0.00    -0.012 A 
HETATM   20  C15 UNL     1      19.278   1.419  50.486  1.00  0.00    -0.003 A 
HETATM   21  C16 UNL     1      19.118   2.008  51.831  1.00  0.00    -0.003 A 
HETATM   22  C17 UNL     1      20.052   1.493  52.613  1.00  0.00    -0.012 A 
ENDBRANCH  12  18
BRANCH   7  23
HETATM   23  O1  UNL     1      27.227   1.379  52.714  1.00  0.00    -0.360 OA
HETATM   24  H9  UNL     1      27.556   0.435  52.487  1.00  0.00     0.217 HD
ENDBRANCH   7  23
BRANCH   1  25
HETATM   25  C2  UNL     1      22.830   7.095  49.015  1.00  0.00     0.075 C 
HETATM   26  C1  UNL     1      23.011   7.920  50.042  1.00  0.00     0.029 C 
ENDBRANCH   1  25
BRANCH  16  27
HETATM   27  O4  UNL     1      27.178   6.707  49.420  1.00  0.00    -0.394 OA
HETATM   28  H19 UNL     1      27.790   6.392  48.702  1.00  0.00     0.210 HD
ENDBRANCH  16  27
TORSDOF 4
ENDMDL
MODEL 9
REMARK VINA RESULT:      -7.8      2.528      5.575
REMARK  4 active torsions:
REMARK  status: ('A' for Active; 'I' for Inactive)
REMARK    1  A    between atoms: C2_2  and  N1_3 
REMARK    2  A    between atoms: C8_9  and  O1_10 
REMARK    3  A    between atoms: C12_15  and  C13_16 
REMARK    4  A    between atoms: C20_24  and  O4_25 
ROOT
HETATM    1  N1  UNL     1      23.252  -0.315  53.331  1.00  0.00    -0.388 N 
HETATM    2  C3  UNL     1      22.591   0.740  52.593  1.00  0.00     0.127 C 
HETATM    3  C4  UNL     1      23.058   2.130  53.010  1.00  0.00     0.062 C 
HETATM    4  C5  UNL     1      24.339   2.417  52.325  1.00  0.00    -0.015 A 
HETATM    5  C6  UNL     1      25.638   1.978  52.487  1.00  0.00    -0.044 A 
HETATM    6  C7  UNL     1      26.688   2.424  51.677  1.00  0.00     0.045 A 
HETATM    7  C8  UNL     1      26.397   3.335  50.684  1.00  0.00     0.083 A 
HETATM    8  C9  UNL     1      25.112   3.796  50.491  1.00  0.00     0.082 A 
HETATM    9  C10 UNL     1      24.840   4.709  49.491  1.00  0.00     0.190 A 
HETATM   10  O2  UNL     1      25.732   5.154  48.725  1.00  0.00    -0.287 OA
HETATM   11  C11 UNL     1      23.512   5.105  49.388  1.00  0.00     0.089 A 
HETATM   12  C12 UNL     1      22.532   4.619  50.225  1.00  0.00     0.069 A 
HETATM   13  O3  UNL     1      22.829   3.750  51.167  1.00  0.00    -0.312 OA
HETATM   14  C18 UNL     1      24.086   3.339  51.308  1.00  0.00     0.099 A 
HETATM   15  C19 UNL     1      26.262   1.017  53.448  1.00  0.00     0.072 C 
HETATM   16  C20 UNL     1      25.717  -0.361  53.129  1.00  0.00     0.140 C 
HETATM   17  C21 UNL     1      24.510  -0.595  53.979  1.00  0.00     0.154 C 
ENDROOT
BRANCH  12  18
HETATM   18  C13 UNL     1      21.124   5.093  50.051  1.00  0.00     0.088 A 
HETATM   19  C14 UNL     1      20.217   4.489  51.056  1.00  0.00    -0.012 A 
HETATM   20  C15 UNL     1      19.237   3.818  50.440  1.00  0.00    -0.003 A 
HETATM   21  C16 UNL     1      19.437   3.937  48.982  1.00  0.00    -0.003 A 
HETATM   22  C17 UNL     1      20.520   4.668  48.779  1.00  0.00    -0.012 A 
ENDBRANCH  12  18
BRANCH   7  23
HETATM   23  O1  UNL     1      27.427   3.786  49.874  1.00  0.00    -0.360 OA
HETATM   24  H9  UNL     1      28.346   3.354  50.018  1.00  0.00     0.217 HD
ENDBRANCH   7  23
BRANCH   1  25
HETATM   25  C2  UNL     1      22.309  -1.404  53.416  1.00  0.00     0.075 C 
HETATM   26  C1  UNL     1      21.453  -1.215  54.417  1.00  0.00     0.029 C 
ENDBRANCH   1  25
BRANCH  16  27
HETATM   27  O4  UNL     1      26.692  -1.330  53.412  1.00  0.00    -0.394 OA
HETATM   28  H19 UNL     1      27.251  -1.481  52.603  1.00  0.00     0.210 HD
ENDBRANCH  16  27
TORSDOF 4
ENDMDL
