MODEL 1
REMARK VINA RESULT:      -8.5      0.000      0.000
REMARK  4 active torsions:
REMARK  status: ('A' for Active; 'I' for Inactive)
REMARK    1  A    between atoms: C1_2  and  C2_3 
REMARK       I    between atoms: C1_2  and  N1_6 
REMARK    2  A    between atoms: N1_6  and  C4_7 
REMARK    3  A    between atoms: C7_10  and  N2_11 
REMARK    4  A    between atoms: N2_11  and  C8_12 
ROOT
HETATM    1  C2  UNL     1      28.609   1.046  54.103  1.00  0.00     0.086 C 
HETATM    2  C3  UNL     1      29.441   0.034  53.963  1.00  0.00     0.223 C 
HETATM    3 CL1  UNL     1      30.385  -1.419  53.793  1.00  0.00    -0.230 Cl
ENDROOT
BRANCH   1   4
HETATM    4  C1  UNL     1      27.186   0.792  54.269  1.00  0.00     0.247 C 
HETATM    5  O1  UNL     1      26.504   1.785  54.626  1.00  0.00    -0.268 OA
HETATM    6  N1  UNL     1      26.658  -0.493  54.037  1.00  0.00    -0.308 N 
HETATM    7  H3  UNL     1      27.336  -1.235  53.743  1.00  0.00     0.170 HD
BRANCH   6   8
HETATM    8  C4  UNL     1      25.253  -0.642  54.225  1.00  0.00     0.131 A 
HETATM    9  C5  UNL     1      24.367  -0.152  53.260  1.00  0.00     0.068 A 
HETATM   10  C6  UNL     1      23.037  -0.339  53.526  1.00  0.00     0.044 A 
HETATM   11  C7  UNL     1      22.133   0.129  52.598  1.00  0.00     0.142 A 
HETATM   12  C14 UNL     1      22.588  -0.966  54.661  1.00  0.00     0.089 A 
HETATM   13  N3  UNL     1      20.806  -0.011  52.777  1.00  0.00    -0.224 NA
HETATM   14  C13 UNL     1      20.408  -0.639  53.916  1.00  0.00     0.236 A 
HETATM   15  N4  UNL     1      21.263  -1.112  54.848  1.00  0.00    -0.240 NA
HETATM   16  C15 UNL     1      23.491  -1.427  55.574  1.00  0.00     0.151 A 
HETATM   17  N5  UNL     1      24.817  -1.263  55.351  1.00  0.00    -0.241 NA
BRANCH  11  18
HETATM   18  N2  UNL     1      22.479   0.796  51.381  1.00  0.00    -0.335 N 
HETATM   19  H5  UNL     1      22.578   0.439  50.407  1.00  0.00     0.168 HD
BRANCH  18  20
HETATM   20  C8  UNL     1      22.780   2.187  51.244  1.00  0.00     0.072 A 
HETATM   21  C9  UNL     1      22.581   2.899  52.341  1.00  0.00     0.037 A 
HETATM   22  C10 UNL     1      22.838   4.330  52.370  1.00  0.00     0.001 A 
HETATM   23  C11 UNL     1      23.281   5.003  51.324  1.00  0.00    -0.000 A 
HETATM   24  C12 UNL     1      23.634   4.635  49.927  1.00  0.00     0.148 A 
HETATM   25 BR1  UNL     1      25.513   4.965  49.616  1.00  0.00    -0.075 Br
HETATM   26  S1  UNL     1      23.371   2.852  49.697  1.00  0.00    -0.092 SA
ENDBRANCH  18  20
ENDBRANCH  11  18
ENDBRANCH   6   8
ENDBRANCH   1   4
TORSDOF 4
ENDMDL
MODEL 2
REMARK VINA RESULT:      -8.0      2.385      3.430
REMARK  4 active torsions:
REMARK  status: ('A' for Active; 'I' for Inactive)
REMARK    1  A    between atoms: C1_2  and  C2_3 
REMARK       I    between atoms: C1_2  and  N1_6 
REMARK    2  A    between atoms: N1_6  and  C4_7 
REMARK    3  A    between atoms: C7_10  and  N2_11 
REMARK    4  A    between atoms: N2_11  and  C8_12 
ROOT
HETATM    1  C2  UNL     1      28.619   0.631  54.404  1.00  0.00     0.086 C 
HETATM    2  C3  UNL     1      29.114  -0.514  53.982  1.00  0.00     0.223 C 
HETATM    3 CL1  UNL     1      29.591  -2.069  53.358  1.00  0.00    -0.230 Cl
ENDROOT
BRANCH   1   4
HETATM    4  C1  UNL     1      27.213   0.932  54.186  1.00  0.00     0.247 C 
HETATM    5  O1  UNL     1      26.494   0.905  55.216  1.00  0.00    -0.268 OA
HETATM    6  N1  UNL     1      26.737   1.226  52.893  1.00  0.00    -0.308 N 
HETATM    7  H3  UNL     1      27.441   1.216  52.118  1.00  0.00     0.170 HD
BRANCH   6   8
HETATM    8  C4  UNL     1      25.344   1.509  52.781  1.00  0.00     0.131 A 
HETATM    9  C5  UNL     1      24.915   2.830  52.617  1.00  0.00     0.068 A 
HETATM   10  C6  UNL     1      23.560   3.006  52.519  1.00  0.00     0.044 A 
HETATM   11  C7  UNL     1      23.098   4.293  52.356  1.00  0.00     0.142 A 
HETATM   12  C14 UNL     1      22.670   1.963  52.576  1.00  0.00     0.089 A 
HETATM   13  N3  UNL     1      21.783   4.561  52.251  1.00  0.00    -0.224 NA
HETATM   14  C13 UNL     1      20.939   3.496  52.313  1.00  0.00     0.236 A 
HETATM   15  N4  UNL     1      21.353   2.219  52.472  1.00  0.00    -0.240 NA
HETATM   16  C15 UNL     1      23.137   0.691  52.738  1.00  0.00     0.151 A 
HETATM   17  N5  UNL     1      24.470   0.472  52.839  1.00  0.00    -0.241 NA
BRANCH  11  18
HETATM   18  N2  UNL     1      23.926   5.458  52.282  1.00  0.00    -0.335 N 
HETATM   19  H5  UNL     1      24.406   6.007  53.027  1.00  0.00     0.168 HD
BRANCH  18  20
HETATM   20  C8  UNL     1      24.289   6.154  51.087  1.00  0.00     0.072 A 
HETATM   21  C9  UNL     1      23.855   7.402  51.031  1.00  0.00     0.037 A 
HETATM   22  C10 UNL     1      24.137   8.249  49.882  1.00  0.00     0.001 A 
HETATM   23  C11 UNL     1      24.833   7.837  48.839  1.00  0.00    -0.000 A 
HETATM   24  C12 UNL     1      25.497   6.558  48.473  1.00  0.00     0.148 A 
HETATM   25 BR1  UNL     1      27.404   6.828  48.317  1.00  0.00    -0.075 Br
HETATM   26  S1  UNL     1      25.247   5.355  49.812  1.00  0.00    -0.092 SA
ENDBRANCH  18  20
ENDBRANCH  11  18
ENDBRANCH   6   8
ENDBRANCH   1   4
TORSDOF 4
ENDMDL
MODEL 3
REMARK VINA RESULT:      -7.8      3.061      5.609
REMARK  4 active torsions:
REMARK  status: ('A' for Active; 'I' for Inactive)
REMARK    1  A    between atoms: C1_2  and  C2_3 
REMARK       I    between atoms: C1_2  and  N1_6 
REMARK    2  A    between atoms: N1_6  and  C4_7 
REMARK    3  A    between atoms: C7_10  and  N2_11 
REMARK    4  A    between atoms: N2_11  and  C8_12 
ROOT
HETATM    1  C2  UNL     1      24.782   5.399  49.326  1.00  0.00     0.086 C 
HETATM    2  C3  UNL     1      26.035   5.175  48.991  1.00  0.00     0.223 C 
HETATM    3 CL1  UNL     1      27.691   4.734  48.678  1.00  0.00    -0.230 Cl
ENDROOT
BRANCH   1   4
HETATM    4  C1  UNL     1      24.150   4.576  50.346  1.00  0.00     0.247 C 
HETATM    5  O1  UNL     1      24.097   5.090  51.491  1.00  0.00    -0.268 OA
HETATM    6  N1  UNL     1      23.649   3.299  50.025  1.00  0.00    -0.308 N 
HETATM    7  H3  UNL     1      23.755   2.988  49.031  1.00  0.00     0.170 HD
BRANCH   6   8
HETATM    8  C4  UNL     1      23.047   2.570  51.092  1.00  0.00     0.131 A 
HETATM    9  C5  UNL     1      23.660   1.408  51.570  1.00  0.00     0.068 A 
HETATM   10  C6  UNL     1      23.011   0.773  52.595  1.00  0.00     0.044 A 
HETATM   11  C7  UNL     1      23.585  -0.376  53.094  1.00  0.00     0.142 A 
HETATM   12  C14 UNL     1      21.835   1.236  53.129  1.00  0.00     0.089 A 
HETATM   13  N3  UNL     1      23.017  -1.065  54.102  1.00  0.00    -0.224 NA
HETATM   14  C13 UNL     1      21.852  -0.568  54.598  1.00  0.00     0.236 A 
HETATM   15  N4  UNL     1      21.259   0.555  54.136  1.00  0.00    -0.240 NA
HETATM   16  C15 UNL     1      21.274   2.375  52.627  1.00  0.00     0.151 A 
HETATM   17  N5  UNL     1      21.883   3.034  51.613  1.00  0.00    -0.241 NA
BRANCH  11  18
HETATM   18  N2  UNL     1      24.805  -0.954  52.623  1.00  0.00    -0.335 N 
HETATM   19  H5  UNL     1      24.989  -1.644  51.863  1.00  0.00     0.168 HD
BRANCH  18  20
HETATM   20  C8  UNL     1      26.113  -0.684  53.133  1.00  0.00     0.072 A 
HETATM   21  C9  UNL     1      27.026  -1.579  52.792  1.00  0.00     0.037 A 
HETATM   22  C10 UNL     1      28.408  -1.453  53.230  1.00  0.00     0.001 A 
HETATM   23  C11 UNL     1      28.836  -0.455  53.980  1.00  0.00    -0.000 A 
HETATM   24  C12 UNL     1      28.191   0.741  54.584  1.00  0.00     0.148 A 
HETATM   25 BR1  UNL     1      28.964   2.349  53.842  1.00  0.00    -0.075 Br
HETATM   26  S1  UNL     1      26.429   0.754  54.139  1.00  0.00    -0.092 SA
ENDBRANCH  18  20
ENDBRANCH  11  18
ENDBRANCH   6   8
ENDBRANCH   1   4
TORSDOF 4
ENDMDL
MODEL 4
REMARK VINA RESULT:      -7.7      2.546      2.836
REMARK  4 active torsions:
REMARK  status: ('A' for Active; 'I' for Inactive)
REMARK    1  A    between atoms: C1_2  and  C2_3 
REMARK       I    between atoms: C1_2  and  N1_6 
REMARK    2  A    between atoms: N1_6  and  C4_7 
REMARK    3  A    between atoms: C7_10  and  N2_11 
REMARK    4  A    between atoms: N2_11  and  C8_12 
ROOT
HETATM    1  C2  UNL     1      28.715  -0.459  53.337  1.00  0.00     0.086 C 
HETATM    2  C3  UNL     1      29.229   0.647  53.835  1.00  0.00     0.223 C 
HETATM    3 CL1  UNL     1      29.729   2.154  54.551  1.00  0.00    -0.230 Cl
ENDROOT
BRANCH   1   4
HETATM    4  C1  UNL     1      27.287  -0.710  53.462  1.00  0.00     0.247 C 
HETATM    5  O1  UNL     1      26.789  -1.425  52.558  1.00  0.00    -0.268 OA
HETATM    6  N1  UNL     1      26.558  -0.167  54.538  1.00  0.00    -0.308 N 
HETATM    7  H3  UNL     1      27.094   0.414  55.225  1.00  0.00     0.170 HD
BRANCH   6   8
HETATM    8  C4  UNL     1      25.165  -0.470  54.575  1.00  0.00     0.131 A 
HETATM    9  C5  UNL     1      24.285   0.207  53.724  1.00  0.00     0.068 A 
HETATM   10  C6  UNL     1      22.967  -0.149  53.828  1.00  0.00     0.044 A 
HETATM   11  C7  UNL     1      22.069   0.495  53.006  1.00  0.00     0.142 A 
HETATM   12  C14 UNL     1      22.524  -1.106  54.706  1.00  0.00     0.089 A 
HETATM   13  N3  UNL     1      20.754   0.210  53.041  1.00  0.00    -0.224 NA
HETATM   14  C13 UNL     1      20.362  -0.745  53.926  1.00  0.00     0.236 A 
HETATM   15  N4  UNL     1      21.212  -1.399  54.749  1.00  0.00    -0.240 NA
HETATM   16  C15 UNL     1      23.421  -1.738  55.517  1.00  0.00     0.151 A 
HETATM   17  N5  UNL     1      24.735  -1.417  55.446  1.00  0.00    -0.241 NA
BRANCH  11  18
HETATM   18  N2  UNL     1      22.410   1.506  52.053  1.00  0.00    -0.335 N 
HETATM   19  H5  UNL     1      23.217   2.164  52.010  1.00  0.00     0.168 HD
BRANCH  18  20
HETATM   20  C8  UNL     1      21.659   1.843  50.884  1.00  0.00     0.072 A 
HETATM   21  C9  UNL     1      22.037   1.202  49.791  1.00  0.00     0.037 A 
HETATM   22  C10 UNL     1      21.377   1.430  48.515  1.00  0.00     0.001 A 
HETATM   23  C11 UNL     1      20.374   2.275  48.365  1.00  0.00    -0.000 A 
HETATM   24  C12 UNL     1      19.637   3.185  49.281  1.00  0.00     0.148 A 
HETATM   25 BR1  UNL     1      17.787   2.641  49.400  1.00  0.00    -0.075 Br
HETATM   26  S1  UNL     1      20.334   3.036  50.953  1.00  0.00    -0.092 SA
ENDBRANCH  18  20
ENDBRANCH  11  18
ENDBRANCH   6   8
ENDBRANCH   1   4
TORSDOF 4
ENDMDL
MODEL 5
REMARK VINA RESULT:      -7.5      2.046      2.803
REMARK  4 active torsions:
REMARK  status: ('A' for Active; 'I' for Inactive)
REMARK    1  A    between atoms: C1_2  and  C2_3 
REMARK       I    between atoms: C1_2  and  N1_6 
REMARK    2  A    between atoms: N1_6  and  C4_7 
REMARK    3  A    between atoms: C7_10  and  N2_11 
REMARK    4  A    between atoms: N2_11  and  C8_12 
ROOT
HETATM    1  C2  UNL     1      28.205  -0.227  53.526  1.00  0.00     0.086 C 
HETATM    2  C3  UNL     1      28.917   0.779  53.990  1.00  0.00     0.223 C 
HETATM    3 CL1  UNL     1      29.705   2.221  54.568  1.00  0.00    -0.230 Cl
ENDROOT
BRANCH   1   4
HETATM    4  C1  UNL     1      26.844   0.005  53.065  1.00  0.00     0.247 C 
HETATM    5  O1  UNL     1      26.695   0.007  51.819  1.00  0.00    -0.268 OA
HETATM    6  N1  UNL     1      25.802   0.209  53.991  1.00  0.00    -0.308 N 
HETATM    7  H3  UNL     1      26.061   0.183  55.005  1.00  0.00     0.170 HD
BRANCH   6   8
HETATM    8  C4  UNL     1      24.504   0.428  53.443  1.00  0.00     0.131 A 
HETATM    9  C5  UNL     1      24.099   1.725  53.114  1.00  0.00     0.068 A 
HETATM   10  C6  UNL     1      22.837   1.840  52.595  1.00  0.00     0.044 A 
HETATM   11  C7  UNL     1      22.402   3.102  52.258  1.00  0.00     0.142 A 
HETATM   12  C14 UNL     1      22.013   0.760  52.402  1.00  0.00     0.089 A 
HETATM   13  N3  UNL     1      21.176   3.309  51.741  1.00  0.00    -0.224 NA
HETATM   14  C13 UNL     1      20.395   2.209  51.568  1.00  0.00     0.236 A 
HETATM   15  N4  UNL     1      20.786   0.955  51.886  1.00  0.00    -0.240 NA
HETATM   16  C15 UNL     1      22.453  -0.488  52.739  1.00  0.00     0.151 A 
HETATM   17  N5  UNL     1      23.695  -0.646  53.256  1.00  0.00    -0.241 NA
BRANCH  11  18
HETATM   18  N2  UNL     1      23.167   4.301  52.411  1.00  0.00    -0.335 N 
HETATM   19  H5  UNL     1      23.341   4.902  53.245  1.00  0.00     0.168 HD
BRANCH  18  20
HETATM   20  C8  UNL     1      23.901   4.965  51.380  1.00  0.00     0.072 A 
HETATM   21  C9  UNL     1      24.025   6.270  51.553  1.00  0.00     0.037 A 
HETATM   22  C10 UNL     1      24.743   7.095  50.593  1.00  0.00     0.001 A 
HETATM   23  C11 UNL     1      25.310   6.605  49.506  1.00  0.00    -0.000 A 
HETATM   24  C12 UNL     1      25.424   5.244  48.918  1.00  0.00     0.148 A 
HETATM   25 BR1  UNL     1      27.280   4.707  48.859  1.00  0.00    -0.075 Br
HETATM   26  S1  UNL     1      24.571   4.057  49.997  1.00  0.00    -0.092 SA
ENDBRANCH  18  20
ENDBRANCH  11  18
ENDBRANCH   6   8
ENDBRANCH   1   4
TORSDOF 4
ENDMDL
MODEL 6
REMARK VINA RESULT:      -7.2      3.429      6.088
REMARK  4 active torsions:
REMARK  status: ('A' for Active; 'I' for Inactive)
REMARK    1  A    between atoms: C1_2  and  C2_3 
REMARK       I    between atoms: C1_2  and  N1_6 
REMARK    2  A    between atoms: N1_6  and  C4_7 
REMARK    3  A    between atoms: C7_10  and  N2_11 
REMARK    4  A    between atoms: N2_11  and  C8_12 
ROOT
HETATM    1  C2  UNL     1      25.690   6.629  48.645  1.00  0.00     0.086 C 
HETATM    2  C3  UNL     1      26.850   6.021  48.513  1.00  0.00     0.223 C 
HETATM    3 CL1  UNL     1      28.314   5.079  48.454  1.00  0.00    -0.230 Cl
ENDROOT
BRANCH   1   4
HETATM    4  C1  UNL     1      24.650   6.028  49.467  1.00  0.00     0.247 C 
HETATM    5  O1  UNL     1      24.712   6.302  50.691  1.00  0.00    -0.268 OA
HETATM    6  N1  UNL     1      23.667   5.204  48.886  1.00  0.00    -0.308 N 
HETATM    7  H3  UNL     1      23.729   5.055  47.852  1.00  0.00     0.170 HD
BRANCH   6   8
HETATM    8  C4  UNL     1      22.692   4.662  49.774  1.00  0.00     0.131 A 
HETATM    9  C5  UNL     1      22.930   3.436  50.402  1.00  0.00     0.068 A 
HETATM   10  C6  UNL     1      21.938   2.993  51.236  1.00  0.00     0.044 A 
HETATM   11  C7  UNL     1      22.136   1.789  51.874  1.00  0.00     0.142 A 
HETATM   12  C14 UNL     1      20.781   3.697  51.451  1.00  0.00     0.089 A 
HETATM   13  N3  UNL     1      21.215   1.277  52.712  1.00  0.00    -0.224 NA
HETATM   14  C13 UNL     1      20.084   2.010  52.894  1.00  0.00     0.236 A 
HETATM   15  N4  UNL     1      19.853   3.195  52.287  1.00  0.00    -0.240 NA
HETATM   16  C15 UNL     1      20.593   4.890  50.814  1.00  0.00     0.151 A 
HETATM   17  N5  UNL     1      21.549   5.365  49.981  1.00  0.00    -0.241 NA
BRANCH  11  18
HETATM   18  N2  UNL     1      23.298   0.967  51.731  1.00  0.00    -0.335 N 
HETATM   19  H5  UNL     1      23.589   0.316  50.969  1.00  0.00     0.168 HD
BRANCH  18  20
HETATM   20  C8  UNL     1      24.372   0.863  52.668  1.00  0.00     0.072 A 
HETATM   21  C9  UNL     1      24.535  -0.347  53.178  1.00  0.00     0.037 A 
HETATM   22  C10 UNL     1      25.584  -0.623  54.148  1.00  0.00     0.001 A 
HETATM   23  C11 UNL     1      26.429   0.297  54.574  1.00  0.00    -0.000 A 
HETATM   24  C12 UNL     1      26.620   1.744  54.289  1.00  0.00     0.148 A 
HETATM   25 BR1  UNL     1      28.350   2.030  53.475  1.00  0.00    -0.075 Br
HETATM   26  S1  UNL     1      25.377   2.279  53.076  1.00  0.00    -0.092 SA
ENDBRANCH  18  20
ENDBRANCH  11  18
ENDBRANCH   6   8
ENDBRANCH   1   4
TORSDOF 4
ENDMDL
MODEL 7
REMARK VINA RESULT:      -7.1      1.867      2.584
REMARK  4 active torsions:
REMARK  status: ('A' for Active; 'I' for Inactive)
REMARK    1  A    between atoms: C1_2  and  C2_3 
REMARK       I    between atoms: C1_2  and  N1_6 
REMARK    2  A    between atoms: N1_6  and  C4_7 
REMARK    3  A    between atoms: C7_10  and  N2_11 
REMARK    4  A    between atoms: N2_11  and  C8_12 
ROOT
HETATM    1  C2  UNL     1      28.556   1.529  54.115  1.00  0.00     0.086 C 
HETATM    2  C3  UNL     1      29.304   0.452  53.990  1.00  0.00     0.223 C 
HETATM    3 CL1  UNL     1      30.130  -1.066  53.774  1.00  0.00    -0.230 Cl
ENDROOT
BRANCH   1   4
HETATM    4  C1  UNL     1      27.127   1.448  53.856  1.00  0.00     0.247 C 
HETATM    5  O1  UNL     1      26.461   2.452  54.212  1.00  0.00    -0.268 OA
HETATM    6  N1  UNL     1      26.574   0.304  53.247  1.00  0.00    -0.308 N 
HETATM    7  H3  UNL     1      27.240  -0.464  52.998  1.00  0.00     0.170 HD
BRANCH   6   8
HETATM    8  C4  UNL     1      25.165   0.320  53.033  1.00  0.00     0.131 A 
HETATM    9  C5  UNL     1      24.634   1.040  51.958  1.00  0.00     0.068 A 
HETATM   10  C6  UNL     1      23.271   0.999  51.832  1.00  0.00     0.044 A 
HETATM   11  C7  UNL     1      22.709   1.695  50.785  1.00  0.00     0.142 A 
HETATM   12  C14 UNL     1      22.466   0.300  52.696  1.00  0.00     0.089 A 
HETATM   13  N3  UNL     1      21.378   1.711  50.583  1.00  0.00    -0.224 NA
HETATM   14  C13 UNL     1      20.622   1.004  51.465  1.00  0.00     0.236 A 
HETATM   15  N4  UNL     1      21.135   0.309  52.504  1.00  0.00    -0.240 NA
HETATM   16  C15 UNL     1      23.031  -0.387  53.731  1.00  0.00     0.151 A 
HETATM   17  N5  UNL     1      24.376  -0.373  53.893  1.00  0.00    -0.241 NA
BRANCH  11  18
HETATM   18  N2  UNL     1      23.442   2.457  49.821  1.00  0.00    -0.335 N 
HETATM   19  H5  UNL     1      24.304   2.232  49.279  1.00  0.00     0.168 HD
BRANCH  18  20
HETATM   20  C8  UNL     1      23.118   3.776  49.373  1.00  0.00     0.072 A 
HETATM   21  C9  UNL     1      22.670   3.834  48.130  1.00  0.00     0.037 A 
HETATM   22  C10 UNL     1      22.296   5.101  47.521  1.00  0.00     0.001 A 
HETATM   23  C11 UNL     1      22.376   6.256  48.156  1.00  0.00    -0.000 A 
HETATM   24  C12 UNL     1      22.809   6.664  49.518  1.00  0.00     0.148 A 
HETATM   25 BR1  UNL     1      21.319   7.434  50.479  1.00  0.00    -0.075 Br
HETATM   26  S1  UNL     1      23.323   5.188  50.445  1.00  0.00    -0.092 SA
ENDBRANCH  18  20
ENDBRANCH  11  18
ENDBRANCH   6   8
ENDBRANCH   1   4
TORSDOF 4
ENDMDL
MODEL 8
REMARK VINA RESULT:      -7.0      9.319     12.298
REMARK  4 active torsions:
REMARK  status: ('A' for Active; 'I' for Inactive)
REMARK    1  A    between atoms: C1_2  and  C2_3 
REMARK       I    between atoms: C1_2  and  N1_6 
REMARK    2  A    between atoms: N1_6  and  C4_7 
REMARK    3  A    between atoms: C7_10  and  N2_11 
REMARK    4  A    between atoms: N2_11  and  C8_12 
ROOT
HETATM    1  C2  UNL     1      26.152   6.401  49.161  1.00  0.00     0.086 C 
HETATM    2  C3  UNL     1      26.186   5.092  49.302  1.00  0.00     0.223 C 
HETATM    3 CL1  UNL     1      26.413   3.370  49.423  1.00  0.00    -0.230 Cl
ENDROOT
BRANCH   1   4
HETATM    4  C1  UNL     1      27.324   7.103  48.660  1.00  0.00     0.247 C 
HETATM    5  O1  UNL     1      27.679   6.788  47.498  1.00  0.00    -0.268 OA
HETATM    6  N1  UNL     1      27.980   8.059  49.460  1.00  0.00    -0.308 N 
HETATM    7  H3  UNL     1      27.581   8.230  50.413  1.00  0.00     0.170 HD
BRANCH   6   8
HETATM    8  C4  UNL     1      29.118   8.693  48.881  1.00  0.00     0.131 A 
HETATM    9  C5  UNL     1      30.368   8.069  48.945  1.00  0.00     0.068 A 
HETATM   10  C6  UNL     1      31.403   8.752  48.363  1.00  0.00     0.044 A 
HETATM   11  C7  UNL     1      32.650   8.169  48.405  1.00  0.00     0.142 A 
HETATM   12  C14 UNL     1      31.238   9.969  47.752  1.00  0.00     0.089 A 
HETATM   13  N3  UNL     1      33.725   8.768  47.859  1.00  0.00    -0.224 NA
HETATM   14  C13 UNL     1      33.513   9.973  47.265  1.00  0.00     0.236 A 
HETATM   15  N4  UNL     1      32.306  10.576  47.203  1.00  0.00    -0.240 NA
HETATM   16  C15 UNL     1      29.999  10.539  47.715  1.00  0.00     0.151 A 
HETATM   17  N5  UNL     1      28.947   9.898  48.279  1.00  0.00    -0.241 NA
BRANCH  11  18
HETATM   18  N2  UNL     1      32.945   6.908  49.011  1.00  0.00    -0.335 N 
HETATM   19  H5  UNL     1      33.113   6.647  50.007  1.00  0.00     0.168 HD
BRANCH  18  20
HETATM   20  C8  UNL     1      33.078   5.659  48.327  1.00  0.00     0.072 A 
HETATM   21  C9  UNL     1      31.928   5.093  47.998  1.00  0.00     0.037 A 
HETATM   22  C10 UNL     1      31.886   3.819  47.298  1.00  0.00     0.001 A 
HETATM   23  C11 UNL     1      32.972   3.155  46.948  1.00  0.00    -0.000 A 
HETATM   24  C12 UNL     1      34.431   3.395  47.102  1.00  0.00     0.148 A 
HETATM   25 BR1  UNL     1      35.255   3.581  45.364  1.00  0.00    -0.075 Br
HETATM   26  S1  UNL     1      34.685   4.970  47.973  1.00  0.00    -0.092 SA
ENDBRANCH  18  20
ENDBRANCH  11  18
ENDBRANCH   6   8
ENDBRANCH   1   4
TORSDOF 4
ENDMDL
MODEL 9
REMARK VINA RESULT:      -7.0      3.671      4.773
REMARK  4 active torsions:
REMARK  status: ('A' for Active; 'I' for Inactive)
REMARK    1  A    between atoms: C1_2  and  C2_3 
REMARK       I    between atoms: C1_2  and  N1_6 
REMARK    2  A    between atoms: N1_6  and  C4_7 
REMARK    3  A    between atoms: C7_10  and  N2_11 
REMARK    4  A    between atoms: N2_11  and  C8_12 
ROOT
HETATM    1  C2  UNL     1      26.403   5.379  48.859  1.00  0.00     0.086 C 
HETATM    2  C3  UNL     1      27.668   5.498  48.510  1.00  0.00     0.223 C 
HETATM    3 CL1  UNL     1      29.369   5.486  48.138  1.00  0.00    -0.230 Cl
ENDROOT
BRANCH   1   4
HETATM    4  C1  UNL     1      25.970   4.212  49.611  1.00  0.00     0.247 C 
HETATM    5  O1  UNL     1      24.893   3.696  49.224  1.00  0.00    -0.268 OA
HETATM    6  N1  UNL     1      26.738   3.732  50.691  1.00  0.00    -0.308 N 
HETATM    7  H3  UNL     1      27.618   4.254  50.911  1.00  0.00     0.170 HD
BRANCH   6   8
HETATM    8  C4  UNL     1      26.231   2.582  51.365  1.00  0.00     0.131 A 
HETATM    9  C5  UNL     1      24.910   2.574  51.824  1.00  0.00     0.068 A 
HETATM   10  C6  UNL     1      24.510   1.429  52.460  1.00  0.00     0.044 A 
HETATM   11  C7  UNL     1      23.215   1.381  52.927  1.00  0.00     0.142 A 
HETATM   12  C14 UNL     1      25.341   0.352  52.642  1.00  0.00     0.089 A 
HETATM   13  N3  UNL     1      22.737   0.296  53.564  1.00  0.00    -0.224 NA
HETATM   14  C13 UNL     1      23.596  -0.746  53.721  1.00  0.00     0.236 A 
HETATM   15  N4  UNL     1      24.873  -0.737  53.278  1.00  0.00    -0.240 NA
HETATM   16  C15 UNL     1      26.623   0.408  52.177  1.00  0.00     0.151 A 
HETATM   17  N5  UNL     1      27.060   1.522  51.541  1.00  0.00    -0.241 NA
BRANCH  11  18
HETATM   18  N2  UNL     1      22.258   2.437  52.797  1.00  0.00    -0.335 N 
HETATM   19  H5  UNL     1      22.133   3.320  53.337  1.00  0.00     0.168 HD
BRANCH  18  20
HETATM   20  C8  UNL     1      21.205   2.500  51.833  1.00  0.00     0.072 A 
HETATM   21  C9  UNL     1      20.181   3.256  52.193  1.00  0.00     0.037 A 
HETATM   22  C10 UNL     1      19.026   3.427  51.325  1.00  0.00     0.001 A 
HETATM   23  C11 UNL     1      18.924   2.850  50.141  1.00  0.00    -0.000 A 
HETATM   24  C12 UNL     1      19.798   1.944  49.349  1.00  0.00     0.148 A 
HETATM   25 BR1  UNL     1      20.337   2.818  47.712  1.00  0.00    -0.075 Br
HETATM   26  S1  UNL     1      21.317   1.612  50.289  1.00  0.00    -0.092 SA
ENDBRANCH  18  20
ENDBRANCH  11  18
ENDBRANCH   6   8
ENDBRANCH   1   4
TORSDOF 4
ENDMDL
