MODEL 1
REMARK VINA RESULT:      -8.9      0.000      0.000
REMARK  0 active torsions:
REMARK  status: ('A' for Active; 'I' for Inactive)
ROOT
HETATM    1  C1  UNL     1      26.793  -1.452  51.739  1.00  0.00     0.027 C 
HETATM    2  C2  UNL     1      26.421  -0.229  52.563  1.00  0.00     0.024 A 
HETATM    3  C3  UNL     1      26.174   0.938  51.684  1.00  0.00    -0.010 C 
HETATM    4  C4  UNL     1      26.634   1.985  51.040  1.00  0.00    -0.002 C 
HETATM    5  C5  UNL     1      26.388   3.116  50.187  1.00  0.00     0.017 C 
HETATM    6  C6  UNL     1      25.260   3.515  49.670  1.00  0.00     0.089 C 
HETATM    7  N1  UNL     1      23.867   3.269  49.554  1.00  0.00    -0.353 N 
HETATM    8  C7  UNL     1      22.947   3.933  50.452  1.00  0.00     0.125 C 
HETATM    9  N2  UNL     1      22.826   5.059  49.832  1.00  0.00    -0.271 NA
HETATM   10  C8  UNL     1      21.931   6.047  50.465  1.00  0.00     0.178 C 
HETATM   11  C9  UNL     1      20.687   5.236  50.752  1.00  0.00    -0.007 C 
HETATM   12  C10 UNL     1      20.759   4.072  51.387  1.00  0.00     0.003 C 
HETATM   13  C11 UNL     1      22.177   3.759  51.727  1.00  0.00     0.176 C 
HETATM   14  N3  UNL     1      22.366   2.464  52.290  1.00  0.00    -0.344 N 
HETATM   15  C12 UNL     1      22.086   1.192  52.866  1.00  0.00     0.242 C 
HETATM   16  O1  UNL     1      20.906   1.600  52.769  1.00  0.00    -0.271 OA
HETATM   17  C13 UNL     1      22.920   0.016  53.324  1.00  0.00     0.271 C 
HETATM   18  O2  UNL     1      24.223   0.433  53.050  1.00  0.00    -0.371 OA
HETATM   19  C14 UNL     1      25.172  -0.497  53.371  1.00  0.00     0.160 A 
HETATM   20  C15 UNL     1      25.491  -0.334  54.810  1.00  0.00     0.009 A 
HETATM   21  C16 UNL     1      26.534  -0.033  55.528  1.00  0.00     0.040 A 
HETATM   22  C17 UNL     1      27.739   0.221  54.753  1.00  0.00     0.113 A 
HETATM   23  F1  UNL     1      28.913   0.545  55.324  1.00  0.00    -0.206 F 
HETATM   24  C18 UNL     1      27.540   0.099  53.461  1.00  0.00     0.031 A 
HETATM   25  H8  UNL     1      23.381   2.642  48.873  1.00  0.00     0.166 HD
HETATM   26  H14 UNL     1      23.409   2.381  52.291  1.00  0.00     0.163 HD
ENDROOT
TORSDOF 0
ENDMDL
MODEL 2
REMARK VINA RESULT:      -8.8      3.301      6.882
REMARK  0 active torsions:
REMARK  status: ('A' for Active; 'I' for Inactive)
ROOT
HETATM    1  C1  UNL     1      21.209   1.053  49.245  1.00  0.00     0.027 C 
HETATM    2  C2  UNL     1      21.711   1.871  50.424  1.00  0.00     0.024 A 
HETATM    3  C3  UNL     1      22.419   1.007  51.396  1.00  0.00    -0.010 C 
HETATM    4  C4  UNL     1      22.382   0.221  52.447  1.00  0.00    -0.002 C 
HETATM    5  C5  UNL     1      23.075  -0.617  53.389  1.00  0.00     0.017 C 
HETATM    6  C6  UNL     1      24.346  -0.895  53.447  1.00  0.00     0.089 C 
HETATM    7  N1  UNL     1      25.624  -0.689  52.863  1.00  0.00    -0.353 N 
HETATM    8  C7  UNL     1      26.487   0.353  53.380  1.00  0.00     0.125 C 
HETATM    9  N2  UNL     1      27.013  -0.286  54.371  1.00  0.00    -0.271 NA
HETATM   10  C8  UNL     1      27.989   0.473  55.177  1.00  0.00     0.178 C 
HETATM   11  C9  UNL     1      28.899   1.069  54.127  1.00  0.00    -0.007 C 
HETATM   12  C10 UNL     1      28.405   1.736  53.090  1.00  0.00     0.003 C 
HETATM   13  C11 UNL     1      26.917   1.773  53.164  1.00  0.00     0.176 C 
HETATM   14  N3  UNL     1      26.292   2.349  52.021  1.00  0.00    -0.344 N 
HETATM   15  C12 UNL     1      26.115   3.041  50.788  1.00  0.00     0.242 C 
HETATM   16  O1  UNL     1      27.356   3.182  50.888  1.00  0.00    -0.271 OA
HETATM   17  C13 UNL     1      24.934   3.367  49.903  1.00  0.00     0.271 C 
HETATM   18  O2  UNL     1      23.863   2.792  50.588  1.00  0.00    -0.371 OA
HETATM   19  C14 UNL     1      22.663   2.946  49.953  1.00  0.00     0.160 A 
HETATM   20  C15 UNL     1      22.117   4.270  50.341  1.00  0.00     0.009 A 
HETATM   21  C16 UNL     1      21.066   4.724  50.959  1.00  0.00     0.040 A 
HETATM   22  C17 UNL     1      20.145   3.691  51.410  1.00  0.00     0.113 A 
HETATM   23  F1  UNL     1      19.005   3.972  52.065  1.00  0.00    -0.206 F 
HETATM   24  C18 UNL     1      20.559   2.483  51.105  1.00  0.00     0.031 A 
HETATM   25  H8  UNL     1      26.057  -1.211  52.068  1.00  0.00     0.166 HD
HETATM   26  H14 UNL     1      25.285   2.126  52.191  1.00  0.00     0.163 HD
ENDROOT
TORSDOF 0
ENDMDL
MODEL 3
REMARK VINA RESULT:      -8.2      3.353      6.639
REMARK  0 active torsions:
REMARK  status: ('A' for Active; 'I' for Inactive)
ROOT
HETATM    1  C1  UNL     1      22.485   6.091  49.282  1.00  0.00     0.027 C 
HETATM    2  C2  UNL     1      22.596   4.593  49.042  1.00  0.00     0.024 A 
HETATM    3  C3  UNL     1      23.892   4.078  49.542  1.00  0.00    -0.010 C 
HETATM    4  C4  UNL     1      25.162   3.820  49.332  1.00  0.00    -0.002 C 
HETATM    5  C5  UNL     1      26.418   3.318  49.823  1.00  0.00     0.017 C 
HETATM    6  C6  UNL     1      26.694   2.830  50.999  1.00  0.00     0.089 C 
HETATM    7  N1  UNL     1      26.192   2.505  52.286  1.00  0.00    -0.353 N 
HETATM    8  C7  UNL     1      25.721   1.162  52.551  1.00  0.00     0.125 C 
HETATM    9  N2  UNL     1      26.849   0.594  52.820  1.00  0.00    -0.271 NA
HETATM   10  C8  UNL     1      26.781  -0.841  53.155  1.00  0.00     0.178 C 
HETATM   11  C9  UNL     1      25.675  -0.892  54.185  1.00  0.00    -0.007 C 
HETATM   12  C10 UNL     1      24.497  -0.324  53.956  1.00  0.00     0.003 C 
HETATM   13  C11 UNL     1      24.487   0.311  52.607  1.00  0.00     0.176 C 
HETATM   14  N3  UNL     1      23.310   1.064  52.329  1.00  0.00    -0.344 N 
HETATM   15  C12 UNL     1      21.996   1.600  52.445  1.00  0.00     0.242 C 
HETATM   16  O1  UNL     1      21.971   0.863  53.458  1.00  0.00    -0.271 OA
HETATM   17  C13 UNL     1      21.164   2.581  51.649  1.00  0.00     0.271 C 
HETATM   18  O2  UNL     1      22.022   2.945  50.610  1.00  0.00    -0.371 OA
HETATM   19  C14 UNL     1      21.481   3.861  49.752  1.00  0.00     0.160 A 
HETATM   20  C15 UNL     1      20.684   3.117  48.747  1.00  0.00     0.009 A 
HETATM   21  C16 UNL     1      20.697   2.942  47.457  1.00  0.00     0.040 A 
HETATM   22  C17 UNL     1      21.767   3.650  46.770  1.00  0.00     0.113 A 
HETATM   23  F1  UNL     1      21.938   3.589  45.437  1.00  0.00    -0.206 F 
HETATM   24  C18 UNL     1      22.525   4.336  47.595  1.00  0.00     0.031 A 
HETATM   25  H8  UNL     1      26.109   3.131  53.118  1.00  0.00     0.166 HD
HETATM   26  H14 UNL     1      23.571   1.551  51.441  1.00  0.00     0.163 HD
ENDROOT
TORSDOF 0
ENDMDL
MODEL 4
REMARK VINA RESULT:      -7.9      5.419      7.638
REMARK  0 active torsions:
REMARK  status: ('A' for Active; 'I' for Inactive)
ROOT
HETATM    1  C1  UNL     1      23.482   4.296  48.447  1.00  0.00     0.027 C 
HETATM    2  C2  UNL     1      24.327   4.857  49.580  1.00  0.00     0.024 A 
HETATM    3  C3  UNL     1      25.733   5.029  49.147  1.00  0.00    -0.010 C 
HETATM    4  C4  UNL     1      26.940   4.534  49.002  1.00  0.00    -0.002 C 
HETATM    5  C5  UNL     1      28.304   4.707  48.580  1.00  0.00     0.017 C 
HETATM    6  C6  UNL     1      28.867   5.761  48.062  1.00  0.00     0.089 C 
HETATM    7  N1  UNL     1      28.686   7.105  47.640  1.00  0.00    -0.353 N 
HETATM    8  C7  UNL     1      28.986   8.187  48.553  1.00  0.00     0.125 C 
HETATM    9  N2  UNL     1      30.260   8.272  48.364  1.00  0.00    -0.271 NA
HETATM   10  C8  UNL     1      30.957   9.307  49.151  1.00  0.00     0.178 C 
HETATM   11  C9  UNL     1      30.103  10.534  48.923  1.00  0.00    -0.007 C 
HETATM   12  C10 UNL     1      28.788  10.497  49.105  1.00  0.00     0.003 C 
HETATM   13  C11 UNL     1      28.367   9.134  49.538  1.00  0.00     0.176 C 
HETATM   14  N3  UNL     1      26.956   8.962  49.625  1.00  0.00    -0.344 N 
HETATM   15  C12 UNL     1      25.563   9.257  49.657  1.00  0.00     0.242 C 
HETATM   16  O1  UNL     1      25.984  10.429  49.520  1.00  0.00    -0.271 OA
HETATM   17  C13 UNL     1      24.298   8.441  49.795  1.00  0.00     0.271 C 
HETATM   18  O2  UNL     1      24.779   7.136  49.905  1.00  0.00    -0.371 OA
HETATM   19  C14 UNL     1      23.792   6.199  50.024  1.00  0.00     0.160 A 
HETATM   20  C15 UNL     1      23.424   6.114  51.458  1.00  0.00     0.009 A 
HETATM   21  C16 UNL     1      23.441   5.213  52.397  1.00  0.00     0.040 A 
HETATM   22  C17 UNL     1      23.952   3.919  51.971  1.00  0.00     0.113 A 
HETATM   23  F1  UNL     1      24.044   2.866  52.803  1.00  0.00    -0.206 F 
HETATM   24  C18 UNL     1      24.305   3.909  50.706  1.00  0.00     0.031 A 
HETATM   25  H8  UNL     1      28.348   7.445  46.711  1.00  0.00     0.166 HD
HETATM   26  H14 UNL     1      26.873   7.930  49.768  1.00  0.00     0.163 HD
ENDROOT
TORSDOF 0
ENDMDL
MODEL 5
REMARK VINA RESULT:      -7.9      3.503      6.261
REMARK  0 active torsions:
REMARK  status: ('A' for Active; 'I' for Inactive)
ROOT
HETATM    1  C1  UNL     1      23.783   4.444  53.037  1.00  0.00     0.027 C 
HETATM    2  C2  UNL     1      23.290   3.417  52.029  1.00  0.00     0.024 A 
HETATM    3  C3  UNL     1      22.908   2.159  52.711  1.00  0.00    -0.010 C 
HETATM    4  C4  UNL     1      23.244   0.978  53.176  1.00  0.00    -0.002 C 
HETATM    5  C5  UNL     1      22.868  -0.242  53.837  1.00  0.00     0.017 C 
HETATM    6  C6  UNL     1      21.698  -0.593  54.291  1.00  0.00     0.089 C 
HETATM    7  N1  UNL     1      20.339  -0.219  54.455  1.00  0.00    -0.353 N 
HETATM    8  C7  UNL     1      19.361  -0.627  53.467  1.00  0.00     0.125 C 
HETATM    9  N2  UNL     1      19.113  -1.818  53.899  1.00  0.00    -0.271 NA
HETATM   10  C8  UNL     1      18.122  -2.587  53.122  1.00  0.00     0.178 C 
HETATM   11  C9  UNL     1      16.977  -1.610  52.977  1.00  0.00    -0.007 C 
HETATM   12  C10 UNL     1      17.182  -0.374  52.536  1.00  0.00     0.003 C 
HETATM   13  C11 UNL     1      18.629  -0.167  52.242  1.00  0.00     0.176 C 
HETATM   14  N3  UNL     1      18.964   1.173  51.894  1.00  0.00    -0.344 N 
HETATM   15  C12 UNL     1      18.830   2.544  51.531  1.00  0.00     0.242 C 
HETATM   16  O1  UNL     1      17.612   2.256  51.569  1.00  0.00    -0.271 OA
HETATM   17  C13 UNL     1      19.791   3.680  51.262  1.00  0.00     0.271 C 
HETATM   18  O2  UNL     1      21.039   3.086  51.457  1.00  0.00    -0.371 OA
HETATM   19  C14 UNL     1      22.086   3.945  51.283  1.00  0.00     0.160 A 
HETATM   20  C15 UNL     1      22.402   3.982  49.835  1.00  0.00     0.009 A 
HETATM   21  C16 UNL     1      23.413   3.688  49.070  1.00  0.00     0.040 A 
HETATM   22  C17 UNL     1      24.575   3.183  49.786  1.00  0.00     0.113 A 
HETATM   23  F1  UNL     1      25.713   2.829  49.163  1.00  0.00    -0.206 F 
HETATM   24  C18 UNL     1      24.376   3.118  51.083  1.00  0.00     0.031 A 
HETATM   25  H8  UNL     1      19.916   0.340  55.230  1.00  0.00     0.166 HD
HETATM   26  H14 UNL     1      20.009   1.141  51.898  1.00  0.00     0.163 HD
ENDROOT
TORSDOF 0
ENDMDL
MODEL 6
REMARK VINA RESULT:      -7.7      4.198      6.352
REMARK  0 active torsions:
REMARK  status: ('A' for Active; 'I' for Inactive)
ROOT
HETATM    1  C1  UNL     1      22.662   2.454  48.443  1.00  0.00     0.027 C 
HETATM    2  C2  UNL     1      23.147   3.297  49.613  1.00  0.00     0.024 A 
HETATM    3  C3  UNL     1      24.517   3.800  49.361  1.00  0.00    -0.010 C 
HETATM    4  C4  UNL     1      25.816   3.630  49.440  1.00  0.00    -0.002 C 
HETATM    5  C5  UNL     1      27.144   4.124  49.193  1.00  0.00     0.017 C 
HETATM    6  C6  UNL     1      27.504   5.249  48.644  1.00  0.00     0.089 C 
HETATM    7  N1  UNL     1      27.065   6.464  48.055  1.00  0.00    -0.353 N 
HETATM    8  C7  UNL     1      26.935   7.650  48.875  1.00  0.00     0.125 C 
HETATM    9  N2  UNL     1      28.162   8.053  48.855  1.00  0.00    -0.271 NA
HETATM   10  C8  UNL     1      28.443   9.288  49.611  1.00  0.00     0.178 C 
HETATM   11  C9  UNL     1      27.360  10.228  49.133  1.00  0.00    -0.007 C 
HETATM   12  C10 UNL     1      26.083   9.861  49.135  1.00  0.00     0.003 C 
HETATM   13  C11 UNL     1      25.950   8.469  49.654  1.00  0.00     0.176 C 
HETATM   14  N3  UNL     1      24.631   7.940  49.564  1.00  0.00    -0.344 N 
HETATM   15  C12 UNL     1      23.222   7.861  49.371  1.00  0.00     0.242 C 
HETATM   16  O1  UNL     1      23.355   9.089  49.164  1.00  0.00    -0.271 OA
HETATM   17  C13 UNL     1      22.194   6.754  49.423  1.00  0.00     0.271 C 
HETATM   18  O2  UNL     1      22.960   5.632  49.741  1.00  0.00    -0.371 OA
HETATM   19  C14 UNL     1      22.231   4.480  49.827  1.00  0.00     0.160 A 
HETATM   20  C15 UNL     1      21.668   4.404  51.197  1.00  0.00     0.009 A 
HETATM   21  C16 UNL     1      21.757   3.609  52.223  1.00  0.00     0.040 A 
HETATM   22  C17 UNL     1      22.635   2.467  52.018  1.00  0.00     0.113 A 
HETATM   23  F1  UNL     1      22.849   1.537  52.967  1.00  0.00    -0.206 F 
HETATM   24  C18 UNL     1      23.178   2.460  50.822  1.00  0.00     0.031 A 
HETATM   25  H8  UNL     1      26.808   6.636  47.056  1.00  0.00     0.166 HD
HETATM   26  H14 UNL     1      24.785   6.935  49.807  1.00  0.00     0.163 HD
ENDROOT
TORSDOF 0
ENDMDL
MODEL 7
REMARK VINA RESULT:      -7.5      4.854      7.705
REMARK  0 active torsions:
REMARK  status: ('A' for Active; 'I' for Inactive)
ROOT
HETATM    1  C1  UNL     1      28.106   8.793  49.086  1.00  0.00     0.027 C 
HETATM    2  C2  UNL     1      26.987   8.075  48.347  1.00  0.00     0.024 A 
HETATM    3  C3  UNL     1      26.884   6.667  48.795  1.00  0.00    -0.010 C 
HETATM    4  C4  UNL     1      27.252   5.412  48.674  1.00  0.00    -0.002 C 
HETATM    5  C5  UNL     1      27.147   4.047  49.113  1.00  0.00     0.017 C 
HETATM    6  C6  UNL     1      26.406   3.553  50.064  1.00  0.00     0.089 C 
HETATM    7  N1  UNL     1      25.450   3.832  51.075  1.00  0.00    -0.353 N 
HETATM    8  C7  UNL     1      24.039   3.691  50.783  1.00  0.00     0.125 C 
HETATM    9  N2  UNL     1      23.912   2.420  50.977  1.00  0.00    -0.271 NA
HETATM   10  C8  UNL     1      22.558   1.873  50.768  1.00  0.00     0.178 C 
HETATM   11  C9  UNL     1      21.687   2.821  51.561  1.00  0.00    -0.007 C 
HETATM   12  C10 UNL     1      21.780   4.136  51.397  1.00  0.00     0.003 C 
HETATM   13  C11 UNL     1      22.816   4.454  50.373  1.00  0.00     0.176 C 
HETATM   14  N3  UNL     1      23.082   5.847  50.230  1.00  0.00    -0.344 N 
HETATM   15  C12 UNL     1      22.963   7.260  50.357  1.00  0.00     0.242 C 
HETATM   16  O1  UNL     1      21.956   6.942  51.030  1.00  0.00    -0.271 OA
HETATM   17  C13 UNL     1      23.753   8.450  49.861  1.00  0.00     0.271 C 
HETATM   18  O2  UNL     1      24.790   7.858  49.140  1.00  0.00    -0.371 OA
HETATM   19  C14 UNL     1      25.663   8.759  48.600  1.00  0.00     0.160 A 
HETATM   20  C15 UNL     1      25.103   9.206  47.301  1.00  0.00     0.009 A 
HETATM   21  C16 UNL     1      25.447   9.163  46.047  1.00  0.00     0.040 A 
HETATM   22  C17 UNL     1      26.723   8.509  45.801  1.00  0.00     0.113 A 
HETATM   23  F1  UNL     1      27.242   8.372  44.568  1.00  0.00    -0.206 F 
HETATM   24  C18 UNL     1      27.288   8.079  46.907  1.00  0.00     0.031 A 
HETATM   25  H8  UNL     1      25.627   4.141  52.058  1.00  0.00     0.166 HD
HETATM   26  H14 UNL     1      23.927   5.842  49.615  1.00  0.00     0.163 HD
ENDROOT
TORSDOF 0
ENDMDL
MODEL 8
REMARK VINA RESULT:      -7.4      3.793      7.319
REMARK  0 active torsions:
REMARK  status: ('A' for Active; 'I' for Inactive)
ROOT
HETATM    1  C1  UNL     1      18.069   0.325  50.217  1.00  0.00     0.027 C 
HETATM    2  C2  UNL     1      18.781   1.524  50.825  1.00  0.00     0.024 A 
HETATM    3  C3  UNL     1      19.823   1.083  51.781  1.00  0.00    -0.010 C 
HETATM    4  C4  UNL     1      20.166   0.742  53.002  1.00  0.00    -0.002 C 
HETATM    5  C5  UNL     1      21.181   0.315  53.926  1.00  0.00     0.017 C 
HETATM    6  C6  UNL     1      22.443   0.082  53.696  1.00  0.00     0.089 C 
HETATM    7  N1  UNL     1      23.478   0.061  52.725  1.00  0.00    -0.353 N 
HETATM    8  C7  UNL     1      24.326   1.223  52.560  1.00  0.00     0.125 C 
HETATM    9  N2  UNL     1      25.175   0.998  53.507  1.00  0.00    -0.271 NA
HETATM   10  C8  UNL     1      26.242   2.005  53.663  1.00  0.00     0.178 C 
HETATM   11  C9  UNL     1      26.754   2.173  52.250  1.00  0.00    -0.007 C 
HETATM   12  C10 UNL     1      25.921   2.406  51.242  1.00  0.00     0.003 C 
HETATM   13  C11 UNL     1      24.516   2.463  51.739  1.00  0.00     0.176 C 
HETATM   14  N3  UNL     1      23.540   2.573  50.707  1.00  0.00    -0.344 N 
HETATM   15  C12 UNL     1      22.953   2.759  49.423  1.00  0.00     0.242 C 
HETATM   16  O1  UNL     1      24.149   2.931  49.092  1.00  0.00    -0.271 OA
HETATM   17  C13 UNL     1      21.545   2.730  48.875  1.00  0.00     0.271 C 
HETATM   18  O2  UNL     1      20.776   2.446  50.004  1.00  0.00    -0.371 OA
HETATM   19  C14 UNL     1      19.438   2.351  49.744  1.00  0.00     0.160 A 
HETATM   20  C15 UNL     1      18.874   3.722  49.785  1.00  0.00     0.009 A 
HETATM   21  C16 UNL     1      17.989   4.370  50.486  1.00  0.00     0.040 A 
HETATM   22  C17 UNL     1      17.352   3.575  51.524  1.00  0.00     0.113 A 
HETATM   23  F1  UNL     1      16.412   4.075  52.347  1.00  0.00    -0.206 F 
HETATM   24  C18 UNL     1      17.800   2.340  51.557  1.00  0.00     0.031 A 
HETATM   25  H8  UNL     1      23.732  -0.717  52.075  1.00  0.00     0.166 HD
HETATM   26  H14 UNL     1      22.651   2.426  51.237  1.00  0.00     0.163 HD
ENDROOT
TORSDOF 0
ENDMDL
MODEL 9
REMARK VINA RESULT:      -7.3      7.742      9.920
REMARK  0 active torsions:
REMARK  status: ('A' for Active; 'I' for Inactive)
ROOT
HETATM    1  C1  UNL     1      32.639   5.492  49.127  1.00  0.00     0.027 C 
HETATM    2  C2  UNL     1      31.874   6.054  47.939  1.00  0.00     0.024 A 
HETATM    3  C3  UNL     1      30.417   6.045  48.205  1.00  0.00    -0.010 C 
HETATM    4  C4  UNL     1      29.263   5.419  48.164  1.00  0.00    -0.002 C 
HETATM    5  C5  UNL     1      27.849   5.416  48.424  1.00  0.00     0.017 C 
HETATM    6  C6  UNL     1      27.116   6.362  48.939  1.00  0.00     0.089 C 
HETATM    7  N1  UNL     1      27.096   7.678  49.471  1.00  0.00    -0.353 N 
HETATM    8  C7  UNL     1      26.785   8.795  48.604  1.00  0.00     0.125 C 
HETATM    9  N2  UNL     1      25.496   8.734  48.639  1.00  0.00    -0.271 NA
HETATM   10  C8  UNL     1      24.785   9.753  47.844  1.00  0.00     0.178 C 
HETATM   11  C9  UNL     1      25.465  11.038  48.260  1.00  0.00    -0.007 C 
HETATM   12  C10 UNL     1      26.788  11.150  48.241  1.00  0.00     0.003 C 
HETATM   13  C11 UNL     1      27.405   9.877  47.771  1.00  0.00     0.176 C 
HETATM   14  N3  UNL     1      28.827   9.858  47.849  1.00  0.00    -0.344 N 
HETATM   15  C12 UNL     1      30.173  10.296  48.011  1.00  0.00     0.242 C 
HETATM   16  O1  UNL     1      29.611  11.404  48.175  1.00  0.00    -0.271 OA
HETATM   17  C13 UNL     1      31.529   9.628  47.976  1.00  0.00     0.271 C 
HETATM   18  O2  UNL     1      31.212   8.294  47.718  1.00  0.00    -0.371 OA
HETATM   19  C14 UNL     1      32.304   7.475  47.658  1.00  0.00     0.160 A 
HETATM   20  C15 UNL     1      32.844   7.546  46.279  1.00  0.00     0.009 A 
HETATM   21  C16 UNL     1      33.036   6.727  45.286  1.00  0.00     0.040 A 
HETATM   22  C17 UNL     1      32.626   5.357  45.555  1.00  0.00     0.113 A 
HETATM   23  F1  UNL     1      32.751   4.371  44.648  1.00  0.00    -0.206 F 
HETATM   24  C18 UNL     1      32.133   5.208  46.763  1.00  0.00     0.031 A 
HETATM   25  H8  UNL     1      27.283   7.974  50.456  1.00  0.00     0.166 HD
HETATM   26  H14 UNL     1      29.041   8.855  47.647  1.00  0.00     0.163 HD
ENDROOT
TORSDOF 0
ENDMDL
