MODEL 1
REMARK VINA RESULT:      -8.1      0.000      0.000
REMARK  6 active torsions:
REMARK  status: ('A' for Active; 'I' for Inactive)
REMARK    1  A    between atoms: O1_2  and  C2_3 
REMARK    2  A    between atoms: C2_3  and  C3_4 
REMARK    3  A    between atoms: C3_4  and  O2_5 
REMARK    4  A    between atoms: C5_7  and  C6_8 
REMARK    5  A    between atoms: C10_14  and  N3_15 
REMARK    6  A    between atoms: N3_15  and  C11_16 
ROOT
HETATM    1  C6  UNL     1      23.555   2.338  51.329  1.00  0.00     0.067 A 
HETATM    2  C7  UNL     1      23.222   2.568  49.985  1.00  0.00     0.049 A 
HETATM    3  C8  UNL     1      21.902   2.123  49.430  1.00  0.00     0.071 C 
HETATM    4  N1  UNL     1      24.080   3.200  49.180  1.00  0.00    -0.246 NA
HETATM    5  C9  UNL     1      25.280   3.652  49.549  1.00  0.00     0.235 A 
HETATM    6  N2  UNL     1      25.598   3.434  50.820  1.00  0.00    -0.223 NA
HETATM    7  C10 UNL     1      24.786   2.808  51.677  1.00  0.00     0.144 A 
ENDROOT
BRANCH   1   8
HETATM    8  C5  UNL     1      22.583   1.623  52.111  1.00  0.00     0.084 C 
HETATM    9  C4  UNL     1      22.593   0.437  52.649  1.00  0.00     0.050 C 
HETATM   10  C3  UNL     1      21.481  -0.116  53.415  1.00  0.00     0.101 C 
HETATM   11  C18 UNL     1      20.173   0.048  52.620  1.00  0.00     0.071 C 
HETATM   12  C17 UNL     1      20.114   1.517  52.288  1.00  0.00     0.179 C 
HETATM   13  O3  UNL     1      21.348   2.160  52.437  1.00  0.00    -0.350 OA
BRANCH  10  14
HETATM   14  C2  UNL     1      21.692  -1.504  53.894  1.00  0.00     0.209 C 
BRANCH  14  15
HETATM   15  O1  UNL     1      21.842  -1.670  55.253  1.00  0.00    -0.393 OA
HETATM   16  C1  UNL     1      23.240  -1.601  55.476  1.00  0.00     0.201 C 
ENDBRANCH  14  15
ENDBRANCH  10  14
BRANCH  10  17
HETATM   17  O2  UNL     1      21.236   0.669  54.571  1.00  0.00    -0.383 OA
HETATM   18  H6  UNL     1      20.455   0.261  55.016  1.00  0.00     0.211 HD
ENDBRANCH  10  17
ENDBRANCH   1   8
BRANCH   7  19
HETATM   19  N3  UNL     1      25.264   2.545  52.979  1.00  0.00    -0.340 N 
HETATM   20  H12 UNL     1      25.228   2.724  53.984  1.00  0.00     0.167 HD
BRANCH  19  21
HETATM   21  C11 UNL     1      26.289   1.564  53.120  1.00  0.00     0.035 A 
HETATM   22  C12 UNL     1      27.490   2.107  53.588  1.00  0.00     0.032 A 
HETATM   23  C13 UNL     1      28.639   1.341  53.764  1.00  0.00     0.046 A 
HETATM   24  C14 UNL     1      28.590  -0.009  53.463  1.00  0.00     0.138 A 
HETATM   25  F1  UNL     1      29.589  -0.914  53.567  1.00  0.00    -0.204 F 
HETATM   26  C15 UNL     1      27.415  -0.560  53.002  1.00  0.00     0.074 A 
HETATM   27 CL1  UNL     1      27.182  -2.250  52.576  1.00  0.00    -0.081 Cl
HETATM   28  C16 UNL     1      26.291   0.216  52.836  1.00  0.00     0.056 A 
ENDBRANCH  19  21
ENDBRANCH   7  19
TORSDOF 6
ENDMDL
MODEL 2
REMARK VINA RESULT:      -7.9      2.661      4.976
REMARK  6 active torsions:
REMARK  status: ('A' for Active; 'I' for Inactive)
REMARK    1  A    between atoms: O1_2  and  C2_3 
REMARK    2  A    between atoms: C2_3  and  C3_4 
REMARK    3  A    between atoms: C3_4  and  O2_5 
REMARK    4  A    between atoms: C5_7  and  C6_8 
REMARK    5  A    between atoms: C10_14  and  N3_15 
REMARK    6  A    between atoms: N3_15  and  C11_16 
ROOT
HETATM    1  C6  UNL     1      23.867   1.536  52.171  1.00  0.00     0.067 A 
HETATM    2  C7  UNL     1      22.656   0.890  51.879  1.00  0.00     0.049 A 
HETATM    3  C8  UNL     1      21.742   1.409  50.808  1.00  0.00     0.071 C 
HETATM    4  N1  UNL     1      22.304  -0.208  52.551  1.00  0.00    -0.246 NA
HETATM    5  C9  UNL     1      23.026  -0.775  53.519  1.00  0.00     0.235 A 
HETATM    6  N2  UNL     1      24.173  -0.164  53.798  1.00  0.00    -0.223 NA
HETATM    7  C10 UNL     1      24.583   0.938  53.163  1.00  0.00     0.144 A 
ENDROOT
BRANCH   1   8
HETATM    8  C5  UNL     1      24.148   2.730  51.418  1.00  0.00     0.084 C 
HETATM    9  C4  UNL     1      23.911   3.988  51.653  1.00  0.00     0.050 C 
HETATM   10  C3  UNL     1      24.278   5.067  50.740  1.00  0.00     0.101 C 
HETATM   11  C18 UNL     1      23.784   4.734  49.321  1.00  0.00     0.071 C 
HETATM   12  C17 UNL     1      24.354   3.368  49.033  1.00  0.00     0.179 C 
HETATM   13  O3  UNL     1      24.783   2.702  50.187  1.00  0.00    -0.350 OA
BRANCH  10  14
HETATM   14  C2  UNL     1      23.867   6.420  51.189  1.00  0.00     0.209 C 
BRANCH  14  15
HETATM   15  O1  UNL     1      24.769   7.439  50.978  1.00  0.00    -0.393 OA
HETATM   16  C1  UNL     1      24.109   8.335  50.100  1.00  0.00     0.201 C 
ENDBRANCH  14  15
ENDBRANCH  10  14
BRANCH  10  17
HETATM   17  O2  UNL     1      25.686   5.116  50.571  1.00  0.00    -0.383 OA
HETATM   18  H6  UNL     1      25.966   6.007  50.890  1.00  0.00     0.211 HD
ENDBRANCH  10  17
ENDBRANCH   1   8
BRANCH   7  19
HETATM   19  N3  UNL     1      25.772   1.559  53.605  1.00  0.00    -0.340 N 
HETATM   20  H12 UNL     1      26.254   2.386  53.962  1.00  0.00     0.167 HD
BRANCH  19  21
HETATM   21  C11 UNL     1      26.958   0.769  53.635  1.00  0.00     0.035 A 
HETATM   22  C12 UNL     1      28.080   1.502  54.037  1.00  0.00     0.032 A 
HETATM   23  C13 UNL     1      29.354   0.943  54.101  1.00  0.00     0.046 A 
HETATM   24  C14 UNL     1      29.515  -0.387  53.754  1.00  0.00     0.138 A 
HETATM   25  F1  UNL     1      30.660  -1.106  53.751  1.00  0.00    -0.204 F 
HETATM   26  C15 UNL     1      28.420  -1.123  53.357  1.00  0.00     0.074 A 
HETATM   27 CL1  UNL     1      28.449  -2.816  52.886  1.00  0.00    -0.081 Cl
HETATM   28  C16 UNL     1      27.170  -0.551  53.301  1.00  0.00     0.056 A 
ENDBRANCH  19  21
ENDBRANCH   7  19
TORSDOF 6
ENDMDL
MODEL 3
REMARK VINA RESULT:      -7.9      2.283      4.410
REMARK  6 active torsions:
REMARK  status: ('A' for Active; 'I' for Inactive)
REMARK    1  A    between atoms: O1_2  and  C2_3 
REMARK    2  A    between atoms: C2_3  and  C3_4 
REMARK    3  A    between atoms: C3_4  and  O2_5 
REMARK    4  A    between atoms: C5_7  and  C6_8 
REMARK    5  A    between atoms: C10_14  and  N3_15 
REMARK    6  A    between atoms: N3_15  and  C11_16 
ROOT
HETATM    1  C6  UNL     1      22.790   0.211  53.382  1.00  0.00     0.067 A 
HETATM    2  C7  UNL     1      21.911  -0.436  54.265  1.00  0.00     0.049 A 
HETATM    3  C8  UNL     1      20.426  -0.281  54.127  1.00  0.00     0.071 C 
HETATM    4  N1  UNL     1      22.392  -1.209  55.241  1.00  0.00    -0.246 NA
HETATM    5  C9  UNL     1      23.686  -1.436  55.469  1.00  0.00     0.235 A 
HETATM    6  N2  UNL     1      24.520  -0.823  54.635  1.00  0.00    -0.223 NA
HETATM    7  C10 UNL     1      24.105  -0.036  53.638  1.00  0.00     0.144 A 
ENDROOT
BRANCH   1   8
HETATM    8  C5  UNL     1      22.184   1.049  52.382  1.00  0.00     0.084 C 
HETATM    9  C4  UNL     1      21.859   2.310  52.377  1.00  0.00     0.050 C 
HETATM   10  C3  UNL     1      21.235   2.982  51.241  1.00  0.00     0.101 C 
HETATM   11  C18 UNL     1      20.024   2.164  50.758  1.00  0.00     0.071 C 
HETATM   12  C17 UNL     1      20.573   0.781  50.519  1.00  0.00     0.179 C 
HETATM   13  O3  UNL     1      21.812   0.572  51.136  1.00  0.00    -0.350 OA
BRANCH  10  14
HETATM   14  C2  UNL     1      20.908   4.411  51.475  1.00  0.00     0.209 C 
BRANCH  14  15
HETATM   15  O1  UNL     1      21.972   5.281  51.552  1.00  0.00    -0.393 OA
HETATM   16  C1  UNL     1      21.565   6.420  50.814  1.00  0.00     0.201 C 
ENDBRANCH  14  15
ENDBRANCH  10  14
BRANCH  10  17
HETATM   17  O2  UNL     1      22.095   2.952  50.114  1.00  0.00    -0.383 OA
HETATM   18  H6  UNL     1      22.202   1.999  49.879  1.00  0.00     0.211 HD
ENDBRANCH  10  17
ENDBRANCH   1   8
BRANCH   7  19
HETATM   19  N3  UNL     1      25.079   0.641  52.872  1.00  0.00    -0.340 N 
HETATM   20  H12 UNL     1      25.315   1.336  52.163  1.00  0.00     0.167 HD
BRANCH  19  21
HETATM   21  C11 UNL     1      26.446   0.306  53.098  1.00  0.00     0.035 A 
HETATM   22  C12 UNL     1      27.235   1.428  53.376  1.00  0.00     0.032 A 
HETATM   23  C13 UNL     1      28.607   1.342  53.591  1.00  0.00     0.046 A 
HETATM   24  C14 UNL     1      29.215   0.100  53.525  1.00  0.00     0.138 A 
HETATM   25  F1  UNL     1      30.523  -0.188  53.703  1.00  0.00    -0.204 F 
HETATM   26  C15 UNL     1      28.453  -1.015  53.252  1.00  0.00     0.074 A 
HETATM   27 CL1  UNL     1      29.063  -2.659  53.135  1.00  0.00    -0.081 Cl
HETATM   28  C16 UNL     1      27.097  -0.907  53.044  1.00  0.00     0.056 A 
ENDBRANCH  19  21
ENDBRANCH   7  19
TORSDOF 6
ENDMDL
MODEL 4
REMARK VINA RESULT:      -7.8      1.517      2.553
REMARK  6 active torsions:
REMARK  status: ('A' for Active; 'I' for Inactive)
REMARK    1  A    between atoms: O1_2  and  C2_3 
REMARK    2  A    between atoms: C2_3  and  C3_4 
REMARK    3  A    between atoms: C3_4  and  O2_5 
REMARK    4  A    between atoms: C5_7  and  C6_8 
REMARK    5  A    between atoms: C10_14  and  N3_15 
REMARK    6  A    between atoms: N3_15  and  C11_16 
ROOT
HETATM    1  C6  UNL     1      24.420   2.549  51.002  1.00  0.00     0.067 A 
HETATM    2  C7  UNL     1      24.298   2.933  49.658  1.00  0.00     0.049 A 
HETATM    3  C8  UNL     1      23.039   2.663  48.889  1.00  0.00     0.071 C 
HETATM    4  N1  UNL     1      25.307   3.557  49.045  1.00  0.00    -0.246 NA
HETATM    5  C9  UNL     1      26.474   3.862  49.614  1.00  0.00     0.235 A 
HETATM    6  N2  UNL     1      26.592   3.497  50.887  1.00  0.00    -0.223 NA
HETATM    7  C10 UNL     1      25.622   2.871  51.558  1.00  0.00     0.144 A 
ENDROOT
BRANCH   1   8
HETATM    8  C5  UNL     1      23.295   1.855  51.570  1.00  0.00     0.084 C 
HETATM    9  C4  UNL     1      22.081   2.237  51.847  1.00  0.00     0.050 C 
HETATM   10  C3  UNL     1      21.071   1.364  52.436  1.00  0.00     0.101 C 
HETATM   11  C18 UNL     1      21.656   0.658  53.674  1.00  0.00     0.071 C 
HETATM   12  C17 UNL     1      22.919   0.006  53.175  1.00  0.00     0.179 C 
HETATM   13  O3  UNL     1      23.354   0.525  51.949  1.00  0.00    -0.350 OA
BRANCH  10  14
HETATM   14  C2  UNL     1      19.771   2.024  52.712  1.00  0.00     0.209 C 
BRANCH  14  15
HETATM   15  O1  UNL     1      19.676   3.358  52.383  1.00  0.00    -0.393 OA
HETATM   16  C1  UNL     1      18.618   3.427  51.443  1.00  0.00     0.201 C 
ENDBRANCH  14  15
ENDBRANCH  10  14
BRANCH  10  17
HETATM   17  O2  UNL     1      20.787   0.277  51.570  1.00  0.00    -0.383 OA
HETATM   18  H6  UNL     1      20.613   0.675  50.684  1.00  0.00     0.211 HD
ENDBRANCH  10  17
ENDBRANCH   1   8
BRANCH   7  19
HETATM   19  N3  UNL     1      25.890   2.444  52.877  1.00  0.00    -0.340 N 
HETATM   20  H12 UNL     1      25.726   2.530  53.881  1.00  0.00     0.167 HD
BRANCH  19  21
HETATM   21  C11 UNL     1      26.807   1.367  53.049  1.00  0.00     0.035 A 
HETATM   22  C12 UNL     1      28.041   1.789  53.558  1.00  0.00     0.032 A 
HETATM   23  C13 UNL     1      29.101   0.912  53.769  1.00  0.00     0.046 A 
HETATM   24  C14 UNL     1      28.929  -0.426  53.462  1.00  0.00     0.138 A 
HETATM   25  F1  UNL     1      29.830  -1.425  53.596  1.00  0.00    -0.204 F 
HETATM   26  C15 UNL     1      27.721  -0.859  52.961  1.00  0.00     0.074 A 
HETATM   27 CL1  UNL     1      27.336  -2.517  52.524  1.00  0.00    -0.081 Cl
HETATM   28  C16 UNL     1      26.685   0.025  52.761  1.00  0.00     0.056 A 
ENDBRANCH  19  21
ENDBRANCH   7  19
TORSDOF 6
ENDMDL
MODEL 5
REMARK VINA RESULT:      -7.7      3.679      6.171
REMARK  6 active torsions:
REMARK  status: ('A' for Active; 'I' for Inactive)
REMARK    1  A    between atoms: O1_2  and  C2_3 
REMARK    2  A    between atoms: C2_3  and  C3_4 
REMARK    3  A    between atoms: C3_4  and  O2_5 
REMARK    4  A    between atoms: C5_7  and  C6_8 
REMARK    5  A    between atoms: C10_14  and  N3_15 
REMARK    6  A    between atoms: N3_15  and  C11_16 
ROOT
HETATM    1  C6  UNL     1      23.061  -0.177  53.381  1.00  0.00     0.067 A 
HETATM    2  C7  UNL     1      22.454  -0.824  54.470  1.00  0.00     0.049 A 
HETATM    3  C8  UNL     1      23.276  -1.372  55.598  1.00  0.00     0.071 C 
HETATM    4  N1  UNL     1      21.126  -0.952  54.516  1.00  0.00    -0.246 NA
HETATM    5  C9  UNL     1      20.283  -0.505  53.585  1.00  0.00     0.235 A 
HETATM    6  N2  UNL     1      20.856   0.106  52.553  1.00  0.00    -0.223 NA
HETATM    7  C10 UNL     1      22.177   0.267  52.444  1.00  0.00     0.144 A 
ENDROOT
BRANCH   1   8
HETATM    8  C5  UNL     1      24.498  -0.115  53.401  1.00  0.00     0.084 C 
HETATM    9  C4  UNL     1      25.328   0.872  53.585  1.00  0.00     0.050 C 
HETATM   10  C3  UNL     1      26.780   0.725  53.561  1.00  0.00     0.101 C 
HETATM   11  C18 UNL     1      27.202  -0.038  52.291  1.00  0.00     0.071 C 
HETATM   12  C17 UNL     1      26.385  -1.304  52.324  1.00  0.00     0.179 C 
HETATM   13  O3  UNL     1      25.296  -1.229  53.199  1.00  0.00    -0.350 OA
BRANCH  10  14
HETATM   14  C2  UNL     1      27.531   1.992  53.745  1.00  0.00     0.209 C 
BRANCH  14  15
HETATM   15  O1  UNL     1      28.808   2.031  53.232  1.00  0.00    -0.393 OA
HETATM   16  C1  UNL     1      29.649   2.198  54.361  1.00  0.00     0.201 C 
ENDBRANCH  14  15
ENDBRANCH  10  14
BRANCH  10  17
HETATM   17  O2  UNL     1      27.209  -0.143  54.597  1.00  0.00    -0.383 OA
HETATM   18  H6  UNL     1      27.647  -0.905  54.148  1.00  0.00     0.211 HD
ENDBRANCH  10  17
ENDBRANCH   1   8
BRANCH   7  19
HETATM   19  N3  UNL     1      22.685   0.845  51.260  1.00  0.00    -0.340 N 
HETATM   20  H12 UNL     1      22.914   0.765  50.269  1.00  0.00     0.167 HD
BRANCH  19  21
HETATM   21  C11 UNL     1      23.118   2.202  51.322  1.00  0.00     0.035 A 
HETATM   22  C12 UNL     1      22.281   2.996  52.113  1.00  0.00     0.032 A 
HETATM   23  C13 UNL     1      22.489   4.362  52.283  1.00  0.00     0.046 A 
HETATM   24  C14 UNL     1      23.564   4.956  51.645  1.00  0.00     0.138 A 
HETATM   25  F1  UNL     1      23.932   6.256  51.686  1.00  0.00    -0.204 F 
HETATM   26  C15 UNL     1      24.398   4.188  50.863  1.00  0.00     0.074 A 
HETATM   27 CL1  UNL     1      25.804   4.781  49.988  1.00  0.00    -0.081 Cl
HETATM   28  C16 UNL     1      24.175   2.839  50.709  1.00  0.00     0.056 A 
ENDBRANCH  19  21
ENDBRANCH   7  19
TORSDOF 6
ENDMDL
MODEL 6
REMARK VINA RESULT:      -7.5      4.023      5.738
REMARK  6 active torsions:
REMARK  status: ('A' for Active; 'I' for Inactive)
REMARK    1  A    between atoms: O1_2  and  C2_3 
REMARK    2  A    between atoms: C2_3  and  C3_4 
REMARK    3  A    between atoms: C3_4  and  O2_5 
REMARK    4  A    between atoms: C5_7  and  C6_8 
REMARK    5  A    between atoms: C10_14  and  N3_15 
REMARK    6  A    between atoms: N3_15  and  C11_16 
ROOT
HETATM    1  C6  UNL     1      23.498   3.713  49.842  1.00  0.00     0.067 A 
HETATM    2  C7  UNL     1      22.634   2.937  49.054  1.00  0.00     0.049 A 
HETATM    3  C8  UNL     1      22.194   1.575  49.503  1.00  0.00     0.071 C 
HETATM    4  N1  UNL     1      22.182   3.411  47.890  1.00  0.00    -0.246 NA
HETATM    5  C9  UNL     1      22.490   4.604  47.381  1.00  0.00     0.235 A 
HETATM    6  N2  UNL     1      23.310   5.340  48.125  1.00  0.00    -0.223 NA
HETATM    7  C10 UNL     1      23.797   4.926  49.297  1.00  0.00     0.144 A 
ENDROOT
BRANCH   1   8
HETATM    8  C5  UNL     1      23.958   3.109  51.064  1.00  0.00     0.084 C 
HETATM    9  C4  UNL     1      25.115   2.629  51.421  1.00  0.00     0.050 C 
HETATM   10  C3  UNL     1      25.380   2.042  52.731  1.00  0.00     0.101 C 
HETATM   11  C18 UNL     1      24.295   1.000  53.060  1.00  0.00     0.071 C 
HETATM   12  C17 UNL     1      22.995   1.743  52.892  1.00  0.00     0.179 C 
HETATM   13  O3  UNL     1      23.134   2.929  52.162  1.00  0.00    -0.350 OA
BRANCH  10  14
HETATM   14  C2  UNL     1      26.756   1.513  52.902  1.00  0.00     0.209 C 
BRANCH  14  15
HETATM   15  O1  UNL     1      27.428   1.903  54.039  1.00  0.00    -0.393 OA
HETATM   16  C1  UNL     1      28.652   2.444  53.572  1.00  0.00     0.201 C 
ENDBRANCH  14  15
ENDBRANCH  10  14
BRANCH  10  17
HETATM   17  O2  UNL     1      25.197   3.008  53.753  1.00  0.00    -0.383 OA
HETATM   18  H6  UNL     1      26.057   3.484  53.834  1.00  0.00     0.211 HD
ENDBRANCH  10  17
ENDBRANCH   1   8
BRANCH   7  19
HETATM   19  N3  UNL     1      24.736   5.748  49.959  1.00  0.00    -0.340 N 
HETATM   20  H12 UNL     1      25.006   6.292  50.779  1.00  0.00     0.167 HD
BRANCH  19  21
HETATM   21  C11 UNL     1      25.954   6.038  49.278  1.00  0.00     0.035 A 
HETATM   22  C12 UNL     1      26.751   4.901  49.098  1.00  0.00     0.032 A 
HETATM   23  C13 UNL     1      28.003   4.954  48.493  1.00  0.00     0.046 A 
HETATM   24  C14 UNL     1      28.478   6.178  48.053  1.00  0.00     0.138 A 
HETATM   25  F1  UNL     1      29.658   6.434  47.445  1.00  0.00    -0.204 F 
HETATM   26  C15 UNL     1      27.706   7.306  48.221  1.00  0.00     0.074 A 
HETATM   27 CL1  UNL     1      28.156   8.930  47.721  1.00  0.00    -0.081 Cl
HETATM   28  C16 UNL     1      26.471   7.231  48.822  1.00  0.00     0.056 A 
ENDBRANCH  19  21
ENDBRANCH   7  19
TORSDOF 6
ENDMDL
MODEL 7
REMARK VINA RESULT:      -7.5      4.227      6.069
REMARK  6 active torsions:
REMARK  status: ('A' for Active; 'I' for Inactive)
REMARK    1  A    between atoms: O1_2  and  C2_3 
REMARK    2  A    between atoms: C2_3  and  C3_4 
REMARK    3  A    between atoms: C3_4  and  O2_5 
REMARK    4  A    between atoms: C5_7  and  C6_8 
REMARK    5  A    between atoms: C10_14  and  N3_15 
REMARK    6  A    between atoms: N3_15  and  C11_16 
ROOT
HETATM    1  C6  UNL     1      23.019   3.385  51.680  1.00  0.00     0.067 A 
HETATM    2  C7  UNL     1      21.927   2.620  51.238  1.00  0.00     0.049 A 
HETATM    3  C8  UNL     1      22.048   1.137  51.055  1.00  0.00     0.071 C 
HETATM    4  N1  UNL     1      20.757   3.210  50.983  1.00  0.00    -0.246 NA
HETATM    5  C9  UNL     1      20.515   4.516  51.112  1.00  0.00     0.235 A 
HETATM    6  N2  UNL     1      21.548   5.241  51.528  1.00  0.00    -0.223 NA
HETATM    7  C10 UNL     1      22.745   4.714  51.801  1.00  0.00     0.144 A 
ENDROOT
BRANCH   1   8
HETATM    8  C5  UNL     1      24.248   2.670  51.899  1.00  0.00     0.084 C 
HETATM    9  C4  UNL     1      24.767   2.129  52.964  1.00  0.00     0.050 C 
HETATM   10  C3  UNL     1      26.054   1.440  52.978  1.00  0.00     0.101 C 
HETATM   11  C18 UNL     1      27.122   2.324  52.309  1.00  0.00     0.071 C 
HETATM   12  C17 UNL     1      26.540   2.663  50.960  1.00  0.00     0.179 C 
HETATM   13  O3  UNL     1      25.162   2.431  50.887  1.00  0.00    -0.350 OA
BRANCH  10  14
HETATM   14  C2  UNL     1      26.473   0.944  54.313  1.00  0.00     0.209 C 
BRANCH  14  15
HETATM   15  O1  UNL     1      27.144  -0.257  54.340  1.00  0.00    -0.393 OA
HETATM   16  C1  UNL     1      28.433   0.056  54.838  1.00  0.00     0.201 C 
ENDBRANCH  14  15
ENDBRANCH  10  14
BRANCH  10  17
HETATM   17  O2  UNL     1      26.018   0.306  52.128  1.00  0.00    -0.383 OA
HETATM   18  H6  UNL     1      25.200   0.399  51.585  1.00  0.00     0.211 HD
ENDBRANCH  10  17
ENDBRANCH   1   8
BRANCH   7  19
HETATM   19  N3  UNL     1      23.798   5.590  52.144  1.00  0.00    -0.340 N 
HETATM   20  H12 UNL     1      24.409   5.998  52.853  1.00  0.00     0.167 HD
BRANCH  19  21
HETATM   21  C11 UNL     1      24.419   6.321  51.089  1.00  0.00     0.035 A 
HETATM   22  C12 UNL     1      23.847   7.584  50.903  1.00  0.00     0.032 A 
HETATM   23  C13 UNL     1      24.268   8.455  49.902  1.00  0.00     0.046 A 
HETATM   24  C14 UNL     1      25.291   8.055  49.059  1.00  0.00     0.138 A 
HETATM   25  F1  UNL     1      25.837   8.751  48.037  1.00  0.00    -0.204 F 
HETATM   26  C15 UNL     1      25.865   6.815  49.229  1.00  0.00     0.074 A 
HETATM   27 CL1  UNL     1      27.170   6.156  48.252  1.00  0.00    -0.081 Cl
HETATM   28  C16 UNL     1      25.434   5.970  50.225  1.00  0.00     0.056 A 
ENDBRANCH  19  21
ENDBRANCH   7  19
TORSDOF 6
ENDMDL
MODEL 8
REMARK VINA RESULT:      -7.5      1.926      2.279
REMARK  6 active torsions:
REMARK  status: ('A' for Active; 'I' for Inactive)
REMARK    1  A    between atoms: O1_2  and  C2_3 
REMARK    2  A    between atoms: C2_3  and  C3_4 
REMARK    3  A    between atoms: C3_4  and  O2_5 
REMARK    4  A    between atoms: C5_7  and  C6_8 
REMARK    5  A    between atoms: C10_14  and  N3_15 
REMARK    6  A    between atoms: N3_15  and  C11_16 
ROOT
HETATM    1  C6  UNL     1      23.446   3.523  51.167  1.00  0.00     0.067 A 
HETATM    2  C7  UNL     1      22.973   4.845  51.131  1.00  0.00     0.049 A 
HETATM    3  C8  UNL     1      21.565   5.172  51.531  1.00  0.00     0.071 C 
HETATM    4  N1  UNL     1      23.782   5.835  50.746  1.00  0.00    -0.246 NA
HETATM    5  C9  UNL     1      25.054   5.681  50.373  1.00  0.00     0.235 A 
HETATM    6  N2  UNL     1      25.502   4.430  50.405  1.00  0.00    -0.223 NA
HETATM    7  C10 UNL     1      24.746   3.395  50.779  1.00  0.00     0.144 A 
ENDROOT
BRANCH   1   8
HETATM    8  C5  UNL     1      22.495   2.519  51.564  1.00  0.00     0.084 C 
HETATM    9  C4  UNL     1      22.289   1.909  52.695  1.00  0.00     0.050 C 
HETATM   10  C3  UNL     1      21.256   0.897  52.895  1.00  0.00     0.101 C 
HETATM   11  C18 UNL     1      21.346  -0.161  51.779  1.00  0.00     0.071 C 
HETATM   12  C17 UNL     1      21.290   0.634  50.500  1.00  0.00     0.179 C 
HETATM   13  O3  UNL     1      21.557   1.995  50.691  1.00  0.00    -0.350 OA
BRANCH  10  14
HETATM   14  C2  UNL     1      21.233   0.299  54.253  1.00  0.00     0.209 C 
BRANCH  14  15
HETATM   15  O1  UNL     1      21.441  -1.060  54.330  1.00  0.00    -0.393 OA
HETATM   16  C1  UNL     1      22.655  -1.202  55.047  1.00  0.00     0.201 C 
ENDBRANCH  14  15
ENDBRANCH  10  14
BRANCH  10  17
HETATM   17  O2  UNL     1      19.969   1.454  52.685  1.00  0.00    -0.383 OA
HETATM   18  H6  UNL     1      20.042   2.010  51.873  1.00  0.00     0.211 HD
ENDBRANCH  10  17
ENDBRANCH   1   8
BRANCH   7  19
HETATM   19  N3  UNL     1      25.295   2.097  50.683  1.00  0.00    -0.340 N 
HETATM   20  H12 UNL     1      25.434   1.237  50.152  1.00  0.00     0.167 HD
BRANCH  19  21
HETATM   21  C11 UNL     1      26.068   1.625  51.784  1.00  0.00     0.035 A 
HETATM   22  C12 UNL     1      25.546   0.453  52.342  1.00  0.00     0.032 A 
HETATM   23  C13 UNL     1      26.117  -0.165  53.452  1.00  0.00     0.046 A 
HETATM   24  C14 UNL     1      27.242   0.403  54.024  1.00  0.00     0.138 A 
HETATM   25  F1  UNL     1      27.936  -0.042  55.095  1.00  0.00    -0.204 F 
HETATM   26  C15 UNL     1      27.769   1.556  53.487  1.00  0.00     0.074 A 
HETATM   27 CL1  UNL     1      29.188   2.403  54.087  1.00  0.00    -0.081 Cl
HETATM   28  C16 UNL     1      27.189   2.150  52.389  1.00  0.00     0.056 A 
ENDBRANCH  19  21
ENDBRANCH   7  19
TORSDOF 6
ENDMDL
MODEL 9
REMARK VINA RESULT:      -7.5      2.295      4.643
REMARK  6 active torsions:
REMARK  status: ('A' for Active; 'I' for Inactive)
REMARK    1  A    between atoms: O1_2  and  C2_3 
REMARK    2  A    between atoms: C2_3  and  C3_4 
REMARK    3  A    between atoms: C3_4  and  O2_5 
REMARK    4  A    between atoms: C5_7  and  C6_8 
REMARK    5  A    between atoms: C10_14  and  N3_15 
REMARK    6  A    between atoms: N3_15  and  C11_16 
ROOT
HETATM    1  C6  UNL     1      22.806   0.350  53.259  1.00  0.00     0.067 A 
HETATM    2  C7  UNL     1      21.918  -0.154  54.223  1.00  0.00     0.049 A 
HETATM    3  C8  UNL     1      20.460   0.198  54.190  1.00  0.00     0.071 C 
HETATM    4  N1  UNL     1      22.364  -0.967  55.184  1.00  0.00    -0.246 NA
HETATM    5  C9  UNL     1      23.631  -1.362  55.322  1.00  0.00     0.235 A 
HETATM    6  N2  UNL     1      24.473  -0.884  54.412  1.00  0.00    -0.223 NA
HETATM    7  C10 UNL     1      24.092  -0.067  53.426  1.00  0.00     0.144 A 
ENDROOT
BRANCH   1   8
HETATM    8  C5  UNL     1      22.241   1.243  52.282  1.00  0.00     0.084 C 
HETATM    9  C4  UNL     1      21.811   1.052  51.069  1.00  0.00     0.050 C 
HETATM   10  C3  UNL     1      21.270   2.112  50.224  1.00  0.00     0.101 C 
HETATM   11  C18 UNL     1      22.236   3.311  50.216  1.00  0.00     0.071 C 
HETATM   12  C17 UNL     1      22.447   3.635  51.673  1.00  0.00     0.179 C 
HETATM   13  O3  UNL     1      22.060   2.595  52.525  1.00  0.00    -0.350 OA
BRANCH  10  14
HETATM   14  C2  UNL     1      20.884   1.676  48.858  1.00  0.00     0.209 C 
BRANCH  14  15
HETATM   15  O1  UNL     1      19.817   2.328  48.283  1.00  0.00    -0.393 OA
HETATM   16  C1  UNL     1      20.375   3.059  47.204  1.00  0.00     0.201 C 
ENDBRANCH  14  15
ENDBRANCH  10  14
BRANCH  10  17
HETATM   17  O2  UNL     1      20.101   2.665  50.808  1.00  0.00    -0.383 OA
HETATM   18  H6  UNL     1      19.344   2.151  50.437  1.00  0.00     0.211 HD
ENDBRANCH  10  17
ENDBRANCH   1   8
BRANCH   7  19
HETATM   19  N3  UNL     1      25.086   0.457  52.571  1.00  0.00    -0.340 N 
HETATM   20  H12 UNL     1      25.339   0.972  51.726  1.00  0.00     0.167 HD
BRANCH  19  21
HETATM   21  C11 UNL     1      26.447   0.264  52.945  1.00  0.00     0.035 A 
HETATM   22  C12 UNL     1      26.905  -1.026  52.655  1.00  0.00     0.032 A 
HETATM   23  C13 UNL     1      28.193  -1.451  52.970  1.00  0.00     0.046 A 
HETATM   24  C14 UNL     1      29.051  -0.564  53.596  1.00  0.00     0.138 A 
HETATM   25  F1  UNL     1      30.329  -0.784  53.979  1.00  0.00    -0.204 F 
HETATM   26  C15 UNL     1      28.617   0.710  53.889  1.00  0.00     0.074 A 
HETATM   27 CL1  UNL     1      29.576   1.956  54.675  1.00  0.00    -0.081 Cl
HETATM   28  C16 UNL     1      27.340   1.109  53.567  1.00  0.00     0.056 A 
ENDBRANCH  19  21
ENDBRANCH   7  19
TORSDOF 6
ENDMDL
