MODEL 1
REMARK VINA RESULT:      -7.9      0.000      0.000
REMARK  7 active torsions:
REMARK  status: ('A' for Active; 'I' for Inactive)
REMARK    1  A    between atoms: C2_2  and  O1_3 
REMARK    2  A    between atoms: O1_3  and  C3_4 
REMARK    3  A    between atoms: C3_4  and  C4_5 
REMARK    4  A    between atoms: C9_10  and  N1_11 
REMARK    5  A    between atoms: C9_10  and  N2_22 
REMARK    6  A    between atoms: N1_11  and  C10_12 
REMARK    7  A    between atoms: C12_14  and  O2_15 
ROOT
HETATM    1  C4  UNL     1      26.638   0.322  52.922  1.00  0.00     0.041 C 
HETATM    2  C5  UNL     1      25.517  -0.719  52.736  1.00  0.00     0.035 C 
HETATM    3  C6  UNL     1      24.263  -0.360  53.367  1.00  0.00    -0.030 C 
HETATM    4  C7  UNL     1      22.992  -0.052  53.235  1.00  0.00    -0.024 C 
HETATM    5  C8  UNL     1      22.536  -0.033  51.824  1.00  0.00     0.117 C 
HETATM    6  C9  UNL     1      22.016   1.321  51.409  1.00  0.00     0.337 C 
HETATM    7  N4  UNL     1      22.990   2.370  51.514  1.00  0.00     0.175 N 
HETATM    8  C18 UNL     1      23.154   3.005  52.770  1.00  0.00     0.311 C 
HETATM    9  C19 UNL     1      24.702   3.103  52.913  1.00  0.00     0.305 C 
HETATM   10  N5  UNL     1      25.049   1.937  52.198  1.00  0.00     0.124 N 
HETATM   11  C20 UNL     1      26.356   1.513  52.034  1.00  0.00     0.282 C 
HETATM   12  C21 UNL     1      24.258   2.030  50.981  1.00  0.00     0.458 C 
HETATM   13  C22 UNL     1      24.751   3.164  50.099  1.00  0.00     0.077 C 
ENDROOT
BRANCH   6  14
HETATM   14  N1  UNL     1      20.834   1.612  52.153  1.00  0.00    -0.335 N 
HETATM   15  H15 UNL     1      20.986   2.253  52.989  1.00  0.00     0.164 HD
BRANCH  14  16
HETATM   16  C10 UNL     1      19.484   1.243  52.029  1.00  0.00     0.056 A 
HETATM   17  C11 UNL     1      19.006  -0.013  52.339  1.00  0.00     0.069 A 
HETATM   18  C12 UNL     1      17.699  -0.423  52.218  1.00  0.00     0.092 A 
HETATM   19  C14 UNL     1      16.764   0.474  51.751  1.00  0.00     0.069 A 
HETATM   20 CL1  UNL     1      15.084   0.096  51.547  1.00  0.00    -0.081 Cl
HETATM   21  C15 UNL     1      17.180   1.743  51.424  1.00  0.00     0.052 A 
HETATM   22  C16 UNL     1      18.494   2.113  51.559  1.00  0.00     0.062 A 
HETATM   23 CL2  UNL     1      18.959   3.746  51.126  1.00  0.00    -0.082 Cl
BRANCH  18  24
HETATM   24  O2  UNL     1      17.225  -1.678  52.528  1.00  0.00    -0.354 OA
HETATM   25  C13 UNL     1      17.812  -2.406  53.570  1.00  0.00     0.210 C 
ENDBRANCH  18  24
ENDBRANCH  14  16
ENDBRANCH   6  14
BRANCH   6  26
HETATM   26  N2  UNL     1      21.659   1.226  50.005  1.00  0.00    -0.203 N 
HETATM   27  C17 UNL     1      21.270   2.100  48.924  1.00  0.00     0.255 A 
HETATM   28  N3  UNL     1      21.354   0.833  48.677  1.00  0.00    -0.161 NA
ENDBRANCH   6  26
BRANCH   1  29
HETATM   29  C3  UNL     1      26.719   0.592  54.375  1.00  0.00     0.174 C 
BRANCH  29  30
HETATM   30  O1  UNL     1      27.737  -0.174  54.976  1.00  0.00    -0.391 OA
BRANCH  30  31
HETATM   31  C2  UNL     1      28.986   0.181  54.528  1.00  0.00     0.163 C 
HETATM   32  C1  UNL     1      29.705  -0.965  53.833  1.00  0.00     0.033 C 
ENDBRANCH  30  31
ENDBRANCH  29  30
ENDBRANCH   1  29
TORSDOF 7
ENDMDL
MODEL 2
REMARK VINA RESULT:      -7.7      1.424      1.828
REMARK  7 active torsions:
REMARK  status: ('A' for Active; 'I' for Inactive)
REMARK    1  A    between atoms: C2_2  and  O1_3 
REMARK    2  A    between atoms: O1_3  and  C3_4 
REMARK    3  A    between atoms: C3_4  and  C4_5 
REMARK    4  A    between atoms: C9_10  and  N1_11 
REMARK    5  A    between atoms: C9_10  and  N2_22 
REMARK    6  A    between atoms: N1_11  and  C10_12 
REMARK    7  A    between atoms: C12_14  and  O2_15 
ROOT
HETATM    1  C4  UNL     1      26.905   0.897  52.725  1.00  0.00     0.041 C 
HETATM    2  C5  UNL     1      25.953  -0.291  52.481  1.00  0.00     0.035 C 
HETATM    3  C6  UNL     1      24.664  -0.161  53.132  1.00  0.00    -0.030 C 
HETATM    4  C7  UNL     1      23.360  -0.041  53.018  1.00  0.00    -0.024 C 
HETATM    5  C8  UNL     1      22.894  -0.012  51.610  1.00  0.00     0.117 C 
HETATM    6  C9  UNL     1      22.173   1.269  51.273  1.00  0.00     0.337 C 
HETATM    7  N4  UNL     1      22.978   2.445  51.437  1.00  0.00     0.175 N 
HETATM    8  C18 UNL     1      23.055   3.026  52.726  1.00  0.00     0.311 C 
HETATM    9  C19 UNL     1      24.572   3.349  52.874  1.00  0.00     0.305 C 
HETATM   10  N5  UNL     1      25.084   2.290  52.095  1.00  0.00     0.124 N 
HETATM   11  C20 UNL     1      26.439   2.079  51.906  1.00  0.00     0.282 C 
HETATM   12  C21 UNL     1      24.278   2.331  50.885  1.00  0.00     0.458 C 
HETATM   13  C22 UNL     1      24.587   3.574  50.068  1.00  0.00     0.077 C 
ENDROOT
BRANCH   6  14
HETATM   14  N1  UNL     1      20.966   1.336  52.033  1.00  0.00    -0.335 N 
HETATM   15  H15 UNL     1      20.896   2.183  52.673  1.00  0.00     0.164 HD
BRANCH  14  16
HETATM   16  C10 UNL     1      19.823   0.525  52.128  1.00  0.00     0.056 A 
HETATM   17  C11 UNL     1      18.865   0.440  51.139  1.00  0.00     0.069 A 
HETATM   18  C12 UNL     1      17.725  -0.327  51.195  1.00  0.00     0.092 A 
HETATM   19  C14 UNL     1      17.492  -1.086  52.320  1.00  0.00     0.069 A 
HETATM   20 CL1  UNL     1      16.099  -2.098  52.528  1.00  0.00    -0.081 Cl
HETATM   21  C15 UNL     1      18.411  -1.043  53.342  1.00  0.00     0.052 A 
HETATM   22  C16 UNL     1      19.536  -0.265  53.247  1.00  0.00     0.062 A 
HETATM   23 CL2  UNL     1      20.670  -0.254  54.584  1.00  0.00    -0.082 Cl
BRANCH  18  24
HETATM   24  O2  UNL     1      16.770  -0.410  50.206  1.00  0.00    -0.354 OA
HETATM   25  C13 UNL     1      15.847   0.629  50.041  1.00  0.00     0.210 C 
ENDBRANCH  18  24
ENDBRANCH  14  16
ENDBRANCH   6  14
BRANCH   6  26
HETATM   26  N2  UNL     1      21.821   1.199  49.866  1.00  0.00    -0.203 N 
HETATM   27  C17 UNL     1      21.234   2.044  48.852  1.00  0.00     0.255 A 
HETATM   28  N3  UNL     1      21.586   0.846  48.513  1.00  0.00    -0.161 NA
ENDBRANCH   6  26
BRANCH   1  29
HETATM   29  C3  UNL     1      26.957   1.094  54.191  1.00  0.00     0.174 C 
BRANCH  29  30
HETATM   30  O1  UNL     1      28.047   0.403  54.756  1.00  0.00    -0.391 OA
BRANCH  30  31
HETATM   31  C2  UNL     1      29.181   0.507  53.989  1.00  0.00     0.163 C 
HETATM   32  C1  UNL     1      29.844  -0.838  53.738  1.00  0.00     0.033 C 
ENDBRANCH  30  31
ENDBRANCH  29  30
ENDBRANCH   1  29
TORSDOF 7
ENDMDL
MODEL 3
REMARK VINA RESULT:      -7.3      3.078      7.797
REMARK  7 active torsions:
REMARK  status: ('A' for Active; 'I' for Inactive)
REMARK    1  A    between atoms: C2_2  and  O1_3 
REMARK    2  A    between atoms: O1_3  and  C3_4 
REMARK    3  A    between atoms: C3_4  and  C4_5 
REMARK    4  A    between atoms: C9_10  and  N1_11 
REMARK    5  A    between atoms: C9_10  and  N2_22 
REMARK    6  A    between atoms: N1_11  and  C10_12 
REMARK    7  A    between atoms: C12_14  and  O2_15 
ROOT
HETATM    1  C4  UNL     1      17.962   1.288  50.773  1.00  0.00     0.041 C 
HETATM    2  C5  UNL     1      18.746   1.029  52.075  1.00  0.00     0.035 C 
HETATM    3  C6  UNL     1      20.007   0.342  51.882  1.00  0.00    -0.030 C 
HETATM    4  C7  UNL     1      21.319   0.367  51.964  1.00  0.00    -0.024 C 
HETATM    5  C8  UNL     1      21.851   1.652  52.478  1.00  0.00     0.117 C 
HETATM    6  C9  UNL     1      22.763   2.331  51.488  1.00  0.00     0.337 C 
HETATM    7  N4  UNL     1      22.128   2.648  50.241  1.00  0.00     0.175 N 
HETATM    8  C18 UNL     1      22.073   1.643  49.245  1.00  0.00     0.311 C 
HETATM    9  C19 UNL     1      20.613   1.755  48.714  1.00  0.00     0.305 C 
HETATM   10  N5  UNL     1      19.992   2.177  49.909  1.00  0.00     0.124 N 
HETATM   11  C20 UNL     1      18.632   2.410  50.011  1.00  0.00     0.282 C 
HETATM   12  C21 UNL     1      20.852   3.249  50.385  1.00  0.00     0.458 C 
HETATM   13  C22 UNL     1      20.763   4.461  49.474  1.00  0.00     0.077 C 
ENDROOT
BRANCH   6  14
HETATM   14  N1  UNL     1      23.929   1.529  51.305  1.00  0.00    -0.335 N 
HETATM   15  H15 UNL     1      24.009   1.080  50.343  1.00  0.00     0.164 HD
BRANCH  14  16
HETATM   16  C10 UNL     1      25.023   1.192  52.120  1.00  0.00     0.056 A 
HETATM   17  C11 UNL     1      24.929   0.358  53.215  1.00  0.00     0.069 A 
HETATM   18  C12 UNL     1      25.967   0.014  54.049  1.00  0.00     0.092 A 
HETATM   19  C14 UNL     1      27.219   0.530  53.796  1.00  0.00     0.069 A 
HETATM   20 CL1  UNL     1      28.616   0.184  54.762  1.00  0.00    -0.081 Cl
HETATM   21  C15 UNL     1      27.376   1.369  52.718  1.00  0.00     0.052 A 
HETATM   22  C16 UNL     1      26.314   1.688  51.910  1.00  0.00     0.062 A 
HETATM   23 CL2  UNL     1      26.581   2.764  50.552  1.00  0.00    -0.082 Cl
BRANCH  18  24
HETATM   24  O2  UNL     1      25.870  -0.819  55.141  1.00  0.00    -0.354 OA
HETATM   25  C13 UNL     1      24.610  -1.186  55.627  1.00  0.00     0.210 C 
ENDBRANCH  18  24
ENDBRANCH  14  16
ENDBRANCH   6  14
BRANCH   6  26
HETATM   26  N2  UNL     1      23.167   3.593  52.081  1.00  0.00    -0.203 N 
HETATM   27  C17 UNL     1      23.798   4.828  51.676  1.00  0.00     0.255 A 
HETATM   28  N3  UNL     1      23.451   4.703  52.916  1.00  0.00    -0.161 NA
ENDBRANCH   6  26
BRANCH   1  29
HETATM   29  C3  UNL     1      17.870  -0.014  50.076  1.00  0.00     0.174 C 
BRANCH  29  30
HETATM   30  O1  UNL     1      16.558  -0.252  49.620  1.00  0.00    -0.391 OA
BRANCH  30  31
HETATM   31  C2  UNL     1      15.632  -0.148  50.629  1.00  0.00     0.163 C 
HETATM   32  C1  UNL     1      15.406  -1.464  51.355  1.00  0.00     0.033 C 
ENDBRANCH  30  31
ENDBRANCH  29  30
ENDBRANCH   1  29
TORSDOF 7
ENDMDL
MODEL 4
REMARK VINA RESULT:      -7.2      3.817      7.496
REMARK  7 active torsions:
REMARK  status: ('A' for Active; 'I' for Inactive)
REMARK    1  A    between atoms: C2_2  and  O1_3 
REMARK    2  A    between atoms: O1_3  and  C3_4 
REMARK    3  A    between atoms: C3_4  and  C4_5 
REMARK    4  A    between atoms: C9_10  and  N1_11 
REMARK    5  A    between atoms: C9_10  and  N2_22 
REMARK    6  A    between atoms: N1_11  and  C10_12 
REMARK    7  A    between atoms: C12_14  and  O2_15 
ROOT
HETATM    1  C4  UNL     1      21.904   4.797  47.893  1.00  0.00     0.041 C 
HETATM    2  C5  UNL     1      22.539   3.394  47.972  1.00  0.00     0.035 C 
HETATM    3  C6  UNL     1      23.458   3.221  49.079  1.00  0.00    -0.030 C 
HETATM    4  C7  UNL     1      23.750   2.612  50.207  1.00  0.00    -0.024 C 
HETATM    5  C8  UNL     1      22.720   1.632  50.629  1.00  0.00     0.117 C 
HETATM    6  C9  UNL     1      22.122   1.973  51.970  1.00  0.00     0.337 C 
HETATM    7  N4  UNL     1      21.474   3.252  52.006  1.00  0.00     0.175 N 
HETATM    8  C18 UNL     1      22.271   4.396  52.260  1.00  0.00     0.311 C 
HETATM    9  C19 UNL     1      21.743   5.428  51.219  1.00  0.00     0.305 C 
HETATM   10  N5  UNL     1      21.382   4.523  50.198  1.00  0.00     0.124 N 
HETATM   11  C20 UNL     1      20.861   4.927  48.981  1.00  0.00     0.282 C 
HETATM   12  C21 UNL     1      20.626   3.497  50.897  1.00  0.00     0.458 C 
HETATM   13  C22 UNL     1      19.298   4.043  51.393  1.00  0.00     0.077 C 
ENDROOT
BRANCH   6  14
HETATM   14  N1  UNL     1      23.133   1.856  52.971  1.00  0.00    -0.335 N 
HETATM   15  H15 UNL     1      22.900   2.340  53.890  1.00  0.00     0.164 HD
BRANCH  14  16
HETATM   16  C10 UNL     1      24.389   1.231  53.025  1.00  0.00     0.056 A 
HETATM   17  C11 UNL     1      25.579   1.890  52.792  1.00  0.00     0.069 A 
HETATM   18  C12 UNL     1      26.829   1.316  52.818  1.00  0.00     0.092 A 
HETATM   19  C14 UNL     1      26.935  -0.029  53.097  1.00  0.00     0.069 A 
HETATM   20 CL1  UNL     1      28.442  -0.883  53.162  1.00  0.00    -0.081 Cl
HETATM   21  C15 UNL     1      25.783  -0.740  53.338  1.00  0.00     0.052 A 
HETATM   22  C16 UNL     1      24.555  -0.131  53.302  1.00  0.00     0.062 A 
HETATM   23 CL2  UNL     1      23.125  -1.094  53.618  1.00  0.00    -0.082 Cl
BRANCH  18  24
HETATM   24  O2  UNL     1      28.014   1.976  52.585  1.00  0.00    -0.354 OA
HETATM   25  C13 UNL     1      28.732   2.517  53.659  1.00  0.00     0.210 C 
ENDBRANCH  18  24
ENDBRANCH  14  16
ENDBRANCH   6  14
BRANCH   6  26
HETATM   26  N2  UNL     1      21.097   0.981  52.241  1.00  0.00    -0.203 N 
HETATM   27  C17 UNL     1      20.123   0.681  53.264  1.00  0.00     0.255 A 
HETATM   28  N3  UNL     1      20.187  -0.107  52.240  1.00  0.00    -0.161 NA
ENDBRANCH   6  26
BRANCH   1  29
HETATM   29  C3  UNL     1      23.024   5.764  47.939  1.00  0.00     0.174 C 
BRANCH  29  30
HETATM   30  O1  UNL     1      22.549   7.080  48.099  1.00  0.00    -0.391 OA
BRANCH  30  31
HETATM   31  C2  UNL     1      23.450   8.014  47.649  1.00  0.00     0.163 C 
HETATM   32  C1  UNL     1      24.863   7.463  47.546  1.00  0.00     0.033 C 
ENDBRANCH  30  31
ENDBRANCH  29  30
ENDBRANCH   1  29
TORSDOF 7
ENDMDL
MODEL 5
REMARK VINA RESULT:      -7.2      4.180      6.259
REMARK  7 active torsions:
REMARK  status: ('A' for Active; 'I' for Inactive)
REMARK    1  A    between atoms: C2_2  and  O1_3 
REMARK    2  A    between atoms: O1_3  and  C3_4 
REMARK    3  A    between atoms: C3_4  and  C4_5 
REMARK    4  A    between atoms: C9_10  and  N1_11 
REMARK    5  A    between atoms: C9_10  and  N2_22 
REMARK    6  A    between atoms: N1_11  and  C10_12 
REMARK    7  A    between atoms: C12_14  and  O2_15 
ROOT
HETATM    1  C4  UNL     1      25.045   7.878  49.195  1.00  0.00     0.041 C 
HETATM    2  C5  UNL     1      25.485   6.636  48.394  1.00  0.00     0.035 C 
HETATM    3  C6  UNL     1      25.957   5.538  49.213  1.00  0.00    -0.030 C 
HETATM    4  C7  UNL     1      25.794   4.302  49.630  1.00  0.00    -0.024 C 
HETATM    5  C8  UNL     1      24.597   3.642  49.056  1.00  0.00     0.117 C 
HETATM    6  C9  UNL     1      23.616   3.214  50.118  1.00  0.00     0.337 C 
HETATM    7  N4  UNL     1      23.114   4.299  50.911  1.00  0.00     0.175 N 
HETATM    8  C18 UNL     1      23.879   4.719  52.027  1.00  0.00     0.311 C 
HETATM    9  C19 UNL     1      23.830   6.272  51.921  1.00  0.00     0.305 C 
HETATM   10  N5  UNL     1      23.754   6.379  50.516  1.00  0.00     0.124 N 
HETATM   11  C20 UNL     1      23.713   7.593  49.852  1.00  0.00     0.282 C 
HETATM   12  C21 UNL     1      22.715   5.428  50.153  1.00  0.00     0.458 C 
HETATM   13  C22 UNL     1      21.354   5.900  50.633  1.00  0.00     0.077 C 
ENDROOT
BRANCH   6  14
HETATM   14  N1  UNL     1      24.214   2.196  50.920  1.00  0.00    -0.335 N 
HETATM   15  H15 UNL     1      25.253   2.051  50.744  1.00  0.00     0.164 HD
BRANCH  14  16
HETATM   16  C10 UNL     1      23.735   1.327  51.914  1.00  0.00     0.056 A 
HETATM   17  C11 UNL     1      22.427   1.314  52.351  1.00  0.00     0.069 A 
HETATM   18  C12 UNL     1      21.919   0.493  53.330  1.00  0.00     0.092 A 
HETATM   19  C14 UNL     1      22.762  -0.404  53.946  1.00  0.00     0.069 A 
HETATM   20 CL1  UNL     1      22.261  -1.498  55.194  1.00  0.00    -0.081 Cl
HETATM   21  C15 UNL     1      24.080  -0.439  53.554  1.00  0.00     0.052 A 
HETATM   22  C16 UNL     1      24.548   0.397  52.573  1.00  0.00     0.062 A 
HETATM   23 CL2  UNL     1      26.239   0.303  52.119  1.00  0.00    -0.082 Cl
BRANCH  18  24
HETATM   24  O2  UNL     1      20.612   0.483  53.763  1.00  0.00    -0.354 OA
HETATM   25  C13 UNL     1      19.654  -0.266  53.070  1.00  0.00     0.210 C 
ENDBRANCH  18  24
ENDBRANCH  14  16
ENDBRANCH   6  14
BRANCH   6  26
HETATM   26  N2  UNL     1      22.473   2.639  49.431  1.00  0.00    -0.203 N 
HETATM   27  C17 UNL     1      22.201   1.855  48.249  1.00  0.00     0.255 A 
HETATM   28  N3  UNL     1      21.197   2.206  48.987  1.00  0.00    -0.161 NA
ENDBRANCH   6  26
BRANCH   1  29
HETATM   29  C3  UNL     1      26.167   8.207  50.102  1.00  0.00     0.174 C 
BRANCH  29  30
HETATM   30  O1  UNL     1      26.387   9.597  50.151  1.00  0.00    -0.391 OA
BRANCH  30  31
HETATM   31  C2  UNL     1      27.414   9.989  49.327  1.00  0.00     0.163 C 
HETATM   32  C1  UNL     1      28.610   9.052  49.397  1.00  0.00     0.033 C 
ENDBRANCH  30  31
ENDBRANCH  29  30
ENDBRANCH   1  29
TORSDOF 7
ENDMDL
MODEL 6
REMARK VINA RESULT:      -7.1      3.993      6.088
REMARK  7 active torsions:
REMARK  status: ('A' for Active; 'I' for Inactive)
REMARK    1  A    between atoms: C2_2  and  O1_3 
REMARK    2  A    between atoms: O1_3  and  C3_4 
REMARK    3  A    between atoms: C3_4  and  C4_5 
REMARK    4  A    between atoms: C9_10  and  N1_11 
REMARK    5  A    between atoms: C9_10  and  N2_22 
REMARK    6  A    between atoms: N1_11  and  C10_12 
REMARK    7  A    between atoms: C12_14  and  O2_15 
ROOT
HETATM    1  C4  UNL     1      26.113   6.906  48.189  1.00  0.00     0.041 C 
HETATM    2  C5  UNL     1      26.489   5.465  48.585  1.00  0.00     0.035 C 
HETATM    3  C6  UNL     1      26.043   5.078  49.908  1.00  0.00    -0.030 C 
HETATM    4  C7  UNL     1      25.285   4.302  50.652  1.00  0.00    -0.024 C 
HETATM    5  C8  UNL     1      24.469   3.349  49.863  1.00  0.00     0.117 C 
HETATM    6  C9  UNL     1      22.990   3.544  50.083  1.00  0.00     0.337 C 
HETATM    7  N4  UNL     1      22.519   4.849  49.717  1.00  0.00     0.175 N 
HETATM    8  C18 UNL     1      22.627   5.889  50.673  1.00  0.00     0.311 C 
HETATM    9  C19 UNL     1      23.153   7.088  49.829  1.00  0.00     0.305 C 
HETATM   10  N5  UNL     1      23.905   6.358  48.883  1.00  0.00     0.124 N 
HETATM   11  C20 UNL     1      24.635   6.960  47.873  1.00  0.00     0.282 C 
HETATM   12  C21 UNL     1      22.999   5.301  48.463  1.00  0.00     0.458 C 
HETATM   13  C22 UNL     1      21.842   5.866  47.657  1.00  0.00     0.077 C 
ENDROOT
BRANCH   6  14
HETATM   14  N1  UNL     1      22.675   3.221  51.437  1.00  0.00    -0.335 N 
HETATM   15  H15 UNL     1      22.519   4.066  52.066  1.00  0.00     0.164 HD
BRANCH  14  16
HETATM   16  C10 UNL     1      22.517   2.018  52.144  1.00  0.00     0.056 A 
HETATM   17  C11 UNL     1      23.558   1.158  52.427  1.00  0.00     0.069 A 
HETATM   18  C12 UNL     1      23.447  -0.036  53.102  1.00  0.00     0.092 A 
HETATM   19  C14 UNL     1      22.205  -0.433  53.546  1.00  0.00     0.069 A 
HETATM   20 CL1  UNL     1      21.918  -1.910  54.407  1.00  0.00    -0.081 Cl
HETATM   21  C15 UNL     1      21.128   0.382  53.294  1.00  0.00     0.052 A 
HETATM   22  C16 UNL     1      21.280   1.566  52.617  1.00  0.00     0.062 A 
HETATM   23 CL2  UNL     1      19.866   2.561  52.328  1.00  0.00    -0.082 Cl
BRANCH  18  24
HETATM   24  O2  UNL     1      24.488  -0.892  53.382  1.00  0.00    -0.354 OA
HETATM   25  C13 UNL     1      25.484  -0.505  54.286  1.00  0.00     0.210 C 
ENDBRANCH  18  24
ENDBRANCH  14  16
ENDBRANCH   6  14
BRANCH   6  26
HETATM   26  N2  UNL     1      22.305   2.599  49.219  1.00  0.00    -0.203 N 
HETATM   27  C17 UNL     1      20.955   2.280  48.817  1.00  0.00     0.255 A 
HETATM   28  N3  UNL     1      21.917   1.572  48.320  1.00  0.00    -0.161 NA
ENDBRANCH   6  26
BRANCH   1  29
HETATM   29  C3  UNL     1      26.580   7.777  49.290  1.00  0.00     0.174 C 
BRANCH  29  30
HETATM   30  O1  UNL     1      27.256   8.907  48.790  1.00  0.00    -0.391 OA
BRANCH  30  31
HETATM   31  C2  UNL     1      28.216   9.364  49.660  1.00  0.00     0.163 C 
HETATM   32  C1  UNL     1      29.627   9.168  49.130  1.00  0.00     0.033 C 
ENDBRANCH  30  31
ENDBRANCH  29  30
ENDBRANCH   1  29
TORSDOF 7
ENDMDL
MODEL 7
REMARK VINA RESULT:      -7.0      3.848      8.559
REMARK  7 active torsions:
REMARK  status: ('A' for Active; 'I' for Inactive)
REMARK    1  A    between atoms: C2_2  and  O1_3 
REMARK    2  A    between atoms: O1_3  and  C3_4 
REMARK    3  A    between atoms: C3_4  and  C4_5 
REMARK    4  A    between atoms: C9_10  and  N1_11 
REMARK    5  A    between atoms: C9_10  and  N2_22 
REMARK    6  A    between atoms: N1_11  and  C10_12 
REMARK    7  A    between atoms: C12_14  and  O2_15 
ROOT
HETATM    1  C4  UNL     1      20.725   0.997  49.594  1.00  0.00     0.041 C 
HETATM    2  C5  UNL     1      21.857   1.373  48.618  1.00  0.00     0.035 C 
HETATM    3  C6  UNL     1      22.219   2.776  48.642  1.00  0.00    -0.030 C 
HETATM    4  C7  UNL     1      23.127   3.694  48.892  1.00  0.00    -0.024 C 
HETATM    5  C8  UNL     1      24.407   3.134  49.389  1.00  0.00     0.117 C 
HETATM    6  C9  UNL     1      24.759   3.644  50.764  1.00  0.00     0.337 C 
HETATM    7  N4  UNL     1      23.784   3.323  51.766  1.00  0.00     0.175 N 
HETATM    8  C18 UNL     1      22.672   4.188  51.915  1.00  0.00     0.311 C 
HETATM    9  C19 UNL     1      21.477   3.199  52.057  1.00  0.00     0.305 C 
HETATM   10  N5  UNL     1      21.978   2.154  51.252  1.00  0.00     0.124 N 
HETATM   11  C20 UNL     1      21.274   0.989  51.004  1.00  0.00     0.282 C 
HETATM   12  C21 UNL     1      23.341   1.978  51.726  1.00  0.00     0.458 C 
HETATM   13  C22 UNL     1      23.359   1.402  53.131  1.00  0.00     0.077 C 
ENDROOT
BRANCH   6  14
HETATM   14  N1  UNL     1      25.009   5.047  50.688  1.00  0.00    -0.335 N 
HETATM   15  H15 UNL     1      24.767   5.585  51.574  1.00  0.00     0.164 HD
BRANCH  14  16
HETATM   16  C10 UNL     1      25.516   5.898  49.693  1.00  0.00     0.056 A 
HETATM   17  C11 UNL     1      26.774   5.763  49.143  1.00  0.00     0.069 A 
HETATM   18  C12 UNL     1      27.317   6.581  48.180  1.00  0.00     0.092 A 
HETATM   19  C14 UNL     1      26.566   7.633  47.703  1.00  0.00     0.069 A 
HETATM   20 CL1  UNL     1      27.122   8.742  46.493  1.00  0.00    -0.081 Cl
HETATM   21  C15 UNL     1      25.303   7.820  48.214  1.00  0.00     0.052 A 
HETATM   22  C16 UNL     1      24.798   6.982  49.175  1.00  0.00     0.062 A 
HETATM   23 CL2  UNL     1      23.181   7.275  49.784  1.00  0.00    -0.082 Cl
BRANCH  18  24
HETATM   24  O2  UNL     1      28.573   6.443  47.633  1.00  0.00    -0.354 OA
HETATM   25  C13 UNL     1      29.541   5.677  48.294  1.00  0.00     0.210 C 
ENDBRANCH  18  24
ENDBRANCH  14  16
ENDBRANCH   6  14
BRANCH   6  26
HETATM   26  N2  UNL     1      25.991   2.983  51.157  1.00  0.00    -0.203 N 
HETATM   27  C17 UNL     1      26.592   1.672  51.075  1.00  0.00     0.255 A 
HETATM   28  N3  UNL     1      27.267   2.612  51.654  1.00  0.00    -0.161 NA
ENDBRANCH   6  26
BRANCH   1  29
HETATM   29  C3  UNL     1      19.615   1.938  49.327  1.00  0.00     0.174 C 
BRANCH  29  30
HETATM   30  O1  UNL     1      18.570   1.764  50.256  1.00  0.00    -0.391 OA
BRANCH  30  31
HETATM   31  C2  UNL     1      17.847   0.621  50.015  1.00  0.00     0.163 C 
HETATM   32  C1  UNL     1      17.587  -0.184  51.278  1.00  0.00     0.033 C 
ENDBRANCH  30  31
ENDBRANCH  29  30
ENDBRANCH   1  29
TORSDOF 7
ENDMDL
MODEL 8
REMARK VINA RESULT:      -6.9      2.914      7.941
REMARK  7 active torsions:
REMARK  status: ('A' for Active; 'I' for Inactive)
REMARK    1  A    between atoms: C2_2  and  O1_3 
REMARK    2  A    between atoms: O1_3  and  C3_4 
REMARK    3  A    between atoms: C3_4  and  C4_5 
REMARK    4  A    between atoms: C9_10  and  N1_11 
REMARK    5  A    between atoms: C9_10  and  N2_22 
REMARK    6  A    between atoms: N1_11  and  C10_12 
REMARK    7  A    between atoms: C12_14  and  O2_15 
ROOT
HETATM    1  C4  UNL     1      18.425   3.349  49.512  1.00  0.00     0.041 C 
HETATM    2  C5  UNL     1      18.999   4.242  50.630  1.00  0.00     0.035 C 
HETATM    3  C6  UNL     1      19.654   3.510  51.695  1.00  0.00    -0.030 C 
HETATM    4  C7  UNL     1      20.760   3.240  52.352  1.00  0.00    -0.024 C 
HETATM    5  C8  UNL     1      21.943   3.970  51.835  1.00  0.00     0.117 C 
HETATM    6  C9  UNL     1      23.025   3.038  51.352  1.00  0.00     0.337 C 
HETATM    7  N4  UNL     1      22.608   2.174  50.284  1.00  0.00     0.175 N 
HETATM    8  C18 UNL     1      21.952   0.965  50.622  1.00  0.00     0.311 C 
HETATM    9  C19 UNL     1      20.775   0.910  49.603  1.00  0.00     0.305 C 
HETATM   10  N5  UNL     1      20.557   2.297  49.466  1.00  0.00     0.124 N 
HETATM   11  C20 UNL     1      19.563   2.830  48.663  1.00  0.00     0.282 C 
HETATM   12  C21 UNL     1      21.892   2.837  49.257  1.00  0.00     0.458 C 
HETATM   13  C22 UNL     1      22.444   2.414  47.907  1.00  0.00     0.077 C 
ENDROOT
BRANCH   6  14
HETATM   14  N1  UNL     1      23.537   2.305  52.464  1.00  0.00    -0.335 N 
HETATM   15  H15 UNL     1      22.910   2.315  53.324  1.00  0.00     0.164 HD
BRANCH  14  16
HETATM   16  C10 UNL     1      24.702   1.552  52.687  1.00  0.00     0.056 A 
HETATM   17  C11 UNL     1      25.975   2.076  52.600  1.00  0.00     0.069 A 
HETATM   18  C12 UNL     1      27.143   1.374  52.794  1.00  0.00     0.092 A 
HETATM   19  C14 UNL     1      27.067   0.034  53.103  1.00  0.00     0.069 A 
HETATM   20 CL1  UNL     1      28.453  -0.972  53.373  1.00  0.00    -0.081 Cl
HETATM   21  C15 UNL     1      25.824  -0.545  53.204  1.00  0.00     0.052 A 
HETATM   22  C16 UNL     1      24.683   0.189  53.002  1.00  0.00     0.062 A 
HETATM   23 CL2  UNL     1      23.130  -0.610  53.145  1.00  0.00    -0.082 Cl
BRANCH  18  24
HETATM   24  O2  UNL     1      28.412   1.899  52.706  1.00  0.00    -0.354 OA
HETATM   25  C13 UNL     1      29.018   2.451  53.842  1.00  0.00     0.210 C 
ENDBRANCH  18  24
ENDBRANCH  14  16
ENDBRANCH   6  14
BRANCH   6  26
HETATM   26  N2  UNL     1      24.093   3.866  50.822  1.00  0.00    -0.203 N 
HETATM   27  C17 UNL     1      25.137   3.785  49.827  1.00  0.00     0.255 A 
HETATM   28  N3  UNL     1      25.036   4.879  50.509  1.00  0.00    -0.161 NA
ENDBRANCH   6  26
BRANCH   1  29
HETATM   29  C3  UNL     1      17.587   2.330  50.182  1.00  0.00     0.174 C 
BRANCH  29  30
HETATM   30  O1  UNL     1      17.145   1.356  49.266  1.00  0.00    -0.391 OA
BRANCH  30  31
HETATM   31  C2  UNL     1      16.756   0.196  49.889  1.00  0.00     0.163 C 
HETATM   32  C1  UNL     1      17.653  -0.168  51.062  1.00  0.00     0.033 C 
ENDBRANCH  30  31
ENDBRANCH  29  30
ENDBRANCH   1  29
TORSDOF 7
ENDMDL
MODEL 9
REMARK VINA RESULT:      -6.8      1.840      2.460
REMARK  7 active torsions:
REMARK  status: ('A' for Active; 'I' for Inactive)
REMARK    1  A    between atoms: C2_2  and  O1_3 
REMARK    2  A    between atoms: O1_3  and  C3_4 
REMARK    3  A    between atoms: C3_4  and  C4_5 
REMARK    4  A    between atoms: C9_10  and  N1_11 
REMARK    5  A    between atoms: C9_10  and  N2_22 
REMARK    6  A    between atoms: N1_11  and  C10_12 
REMARK    7  A    between atoms: C12_14  and  O2_15 
ROOT
HETATM    1  C4  UNL     1      26.441   1.720  52.398  1.00  0.00     0.041 C 
HETATM    2  C5  UNL     1      25.450   0.541  52.342  1.00  0.00     0.035 C 
HETATM    3  C6  UNL     1      24.204   0.778  53.043  1.00  0.00    -0.030 C 
HETATM    4  C7  UNL     1      22.898   0.922  52.988  1.00  0.00    -0.024 C 
HETATM    5  C8  UNL     1      22.352   0.808  51.614  1.00  0.00     0.117 C 
HETATM    6  C9  UNL     1      21.642   2.063  51.175  1.00  0.00     0.337 C 
HETATM    7  N4  UNL     1      22.481   3.227  51.160  1.00  0.00     0.175 N 
HETATM    8  C18 UNL     1      22.645   3.945  52.370  1.00  0.00     0.311 C 
HETATM    9  C19 UNL     1      24.175   4.239  52.397  1.00  0.00     0.305 C 
HETATM   10  N5  UNL     1      24.617   3.086  51.715  1.00  0.00     0.124 N 
HETATM   11  C20 UNL     1      25.954   2.817  51.478  1.00  0.00     0.282 C 
HETATM   12  C21 UNL     1      23.744   3.015  50.554  1.00  0.00     0.458 C 
HETATM   13  C22 UNL     1      24.033   4.150  49.587  1.00  0.00     0.077 C 
ENDROOT
BRANCH   6  14
HETATM   14  N1  UNL     1      20.483   2.248  51.987  1.00  0.00    -0.335 N 
HETATM   15  H15 UNL     1      20.689   2.567  52.981  1.00  0.00     0.164 HD
BRANCH  14  16
HETATM   16  C10 UNL     1      19.102   2.108  51.768  1.00  0.00     0.056 A 
HETATM   17  C11 UNL     1      18.283   3.147  51.377  1.00  0.00     0.069 A 
HETATM   18  C12 UNL     1      16.927   3.060  51.167  1.00  0.00     0.092 A 
HETATM   19  C14 UNL     1      16.304   1.846  51.353  1.00  0.00     0.069 A 
HETATM   20 CL1  UNL     1      14.605   1.590  51.126  1.00  0.00    -0.081 Cl
HETATM   21  C15 UNL     1      17.068   0.771  51.744  1.00  0.00     0.052 A 
HETATM   22  C16 UNL     1      18.419   0.900  51.944  1.00  0.00     0.062 A 
HETATM   23 CL2  UNL     1      19.336  -0.509  52.442  1.00  0.00    -0.082 Cl
BRANCH  18  24
HETATM   24  O2  UNL     1      16.112   4.099  50.776  1.00  0.00    -0.354 OA
HETATM   25  C13 UNL     1      15.926   4.364  49.414  1.00  0.00     0.210 C 
ENDBRANCH  18  24
ENDBRANCH  14  16
ENDBRANCH   6  14
BRANCH   6  26
HETATM   26  N2  UNL     1      21.208   1.847  49.806  1.00  0.00    -0.203 N 
HETATM   27  C17 UNL     1      20.734   2.624  48.684  1.00  0.00     0.255 A 
HETATM   28  N3  UNL     1      20.840   1.343  48.532  1.00  0.00    -0.161 NA
ENDBRANCH   6  26
BRANCH   1  29
HETATM   29  C3  UNL     1      26.581   2.077  53.827  1.00  0.00     0.174 C 
BRANCH  29  30
HETATM   30  O1  UNL     1      27.584   1.305  54.446  1.00  0.00    -0.391 OA
BRANCH  30  31
HETATM   31  C2  UNL     1      28.736   1.258  53.700  1.00  0.00     0.163 C 
HETATM   32  C1  UNL     1      29.504  -0.040  53.890  1.00  0.00     0.033 C 
ENDBRANCH  30  31
ENDBRANCH  29  30
ENDBRANCH   1  29
TORSDOF 7
ENDMDL
