MODEL 1
REMARK VINA RESULT:      -7.8      0.000      0.000
REMARK  7 active torsions:
REMARK  status: ('A' for Active; 'I' for Inactive)
REMARK    1  A    between atoms: C12_14  and  O1_15 
REMARK    2  A    between atoms: O1_15  and  C13_16 
REMARK    3  A    between atoms: C13_16  and  C14_17 
REMARK    4  A    between atoms: C14_17  and  O2_18 
REMARK    5  A    between atoms: C17_21  and  C18_22 
REMARK    6  A    between atoms: C18_22  and  C19_23 
REMARK    7  A    between atoms: C19_23  and  O3_24 
ROOT
HETATM    1  C1  UNL     1      21.227   7.767  50.797  1.00  0.00     0.018 C 
HETATM    2  C2  UNL     1      21.638   6.638  50.891  1.00  0.00    -0.078 C 
HETATM    3  C3  UNL     1      22.109   5.288  51.020  1.00  0.00     0.019 A 
HETATM    4  C4  UNL     1      21.510   4.296  51.764  1.00  0.00     0.021 A 
HETATM    5  C5  UNL     1      22.049   3.015  51.822  1.00  0.00     0.011 A 
HETATM    6  C6  UNL     1      23.221   2.701  51.122  1.00  0.00    -0.027 A 
HETATM    7  C7  UNL     1      23.802   3.738  50.377  1.00  0.00     0.041 A 
HETATM    8  C8  UNL     1      23.264   4.998  50.324  1.00  0.00     0.050 A 
HETATM    9  N1  UNL     1      25.028   3.326  49.722  1.00  0.00    -0.350 N 
HETATM   10  C9  UNL     1      26.387   2.958  50.069  1.00  0.00     0.207 C 
HETATM   11  N2  UNL     1      25.924   2.732  51.197  1.00  0.00    -0.255 NA
HETATM   12  C10 UNL     1      26.559   2.288  52.329  1.00  0.00     0.132 C 
HETATM   13  C11 UNL     1      25.729   1.416  52.867  1.00  0.00     0.022 A 
HETATM   14  C12 UNL     1      26.071   0.732  54.108  1.00  0.00     0.081 A 
HETATM   15  C16 UNL     1      25.051  -0.095  54.408  1.00  0.00     0.045 A 
HETATM   16  C17 UNL     1      24.046   0.050  53.362  1.00  0.00    -0.046 A 
HETATM   17  C21 UNL     1      24.425   0.937  52.438  1.00  0.00    -0.033 A 
HETATM   18  C22 UNL     1      23.703   1.328  51.212  1.00  0.00     0.081 C 
HETATM   19  H5  UNL     1      24.623   3.367  48.738  1.00  0.00     0.166 HD
ENDROOT
BRANCH  16  20
HETATM   20  C18 UNL     1      22.758  -0.734  53.387  1.00  0.00     0.065 C 
BRANCH  20  21
HETATM   21  C19 UNL     1      22.257  -0.882  54.808  1.00  0.00     0.171 C 
BRANCH  21  22
HETATM   22  O3  UNL     1      21.180  -0.003  54.959  1.00  0.00    -0.396 OA
HETATM   23  C20 UNL     1      20.419   0.135  53.817  1.00  0.00     0.201 C 
ENDBRANCH  21  22
ENDBRANCH  20  21
ENDBRANCH  16  20
BRANCH  14  24
HETATM   24  O1  UNL     1      27.132   0.731  54.998  1.00  0.00    -0.348 OA
BRANCH  24  25
HETATM   25  C13 UNL     1      28.319   0.025  54.883  1.00  0.00     0.201 C 
BRANCH  25  26
HETATM   26  C14 UNL     1      29.370   0.844  54.123  1.00  0.00     0.193 C 
BRANCH  26  27
HETATM   27  O2  UNL     1      30.172  -0.031  53.357  1.00  0.00    -0.394 OA
HETATM   28  C15 UNL     1      29.809  -1.354  53.588  1.00  0.00     0.201 C 
ENDBRANCH  26  27
ENDBRANCH  25  26
ENDBRANCH  24  25
ENDBRANCH  14  24
TORSDOF 7
ENDMDL
MODEL 2
REMARK VINA RESULT:      -7.5      3.225      6.860
REMARK  7 active torsions:
REMARK  status: ('A' for Active; 'I' for Inactive)
REMARK    1  A    between atoms: C12_14  and  O1_15 
REMARK    2  A    between atoms: O1_15  and  C13_16 
REMARK    3  A    between atoms: C13_16  and  C14_17 
REMARK    4  A    between atoms: C14_17  and  O2_18 
REMARK    5  A    between atoms: C17_21  and  C18_22 
REMARK    6  A    between atoms: C18_22  and  C19_23 
REMARK    7  A    between atoms: C19_23  and  O3_24 
ROOT
HETATM    1  C1  UNL     1      29.035  -1.732  53.163  1.00  0.00     0.018 C 
HETATM    2  C2  UNL     1      28.091  -0.991  53.050  1.00  0.00    -0.078 C 
HETATM    3  C3  UNL     1      26.953  -0.126  52.926  1.00  0.00     0.019 A 
HETATM    4  C4  UNL     1      25.672  -0.419  53.341  1.00  0.00     0.021 A 
HETATM    5  C5  UNL     1      24.635   0.493  53.174  1.00  0.00     0.011 A 
HETATM    6  C6  UNL     1      24.868   1.738  52.576  1.00  0.00    -0.027 A 
HETATM    7  C7  UNL     1      26.185   1.999  52.166  1.00  0.00     0.041 A 
HETATM    8  C8  UNL     1      27.201   1.095  52.335  1.00  0.00     0.050 A 
HETATM    9  N1  UNL     1      26.315   3.293  51.526  1.00  0.00    -0.350 N 
HETATM   10  C9  UNL     1      25.915   3.956  50.300  1.00  0.00     0.207 C 
HETATM   11  N2  UNL     1      25.048   3.072  50.231  1.00  0.00    -0.255 NA
HETATM   12  C10 UNL     1      24.081   2.870  49.279  1.00  0.00     0.132 C 
HETATM   13  C11 UNL     1      23.000   2.533  49.956  1.00  0.00     0.022 A 
HETATM   14  C12 UNL     1      21.754   2.231  49.263  1.00  0.00     0.081 A 
HETATM   15  C16 UNL     1      20.833   1.933  50.201  1.00  0.00     0.045 A 
HETATM   16  C17 UNL     1      21.480   2.042  51.502  1.00  0.00    -0.046 A 
HETATM   17  C21 UNL     1      22.763   2.398  51.385  1.00  0.00    -0.033 A 
HETATM   18  C22 UNL     1      23.734   2.647  52.466  1.00  0.00     0.081 C 
HETATM   19  H5  UNL     1      26.886   3.726  52.314  1.00  0.00     0.166 HD
ENDROOT
BRANCH  16  20
HETATM   20  C18 UNL     1      20.733   1.769  52.784  1.00  0.00     0.065 C 
BRANCH  20  21
HETATM   21  C19 UNL     1      20.583   0.277  53.000  1.00  0.00     0.171 C 
BRANCH  21  22
HETATM   22  O3  UNL     1      20.665   0.050  54.377  1.00  0.00    -0.396 OA
HETATM   23  C20 UNL     1      21.578  -0.924  54.720  1.00  0.00     0.201 C 
ENDBRANCH  21  22
ENDBRANCH  20  21
ENDBRANCH  16  20
BRANCH  14  24
HETATM   24  O1  UNL     1      21.318   2.180  47.951  1.00  0.00    -0.348 OA
BRANCH  24  25
HETATM   25  C13 UNL     1      20.855   3.237  47.182  1.00  0.00     0.201 C 
BRANCH  25  26
HETATM   26  C14 UNL     1      22.012   3.928  46.449  1.00  0.00     0.193 C 
BRANCH  26  27
HETATM   27  O2  UNL     1      21.995   3.540  45.091  1.00  0.00    -0.394 OA
HETATM   28  C15 UNL     1      20.798   3.916  44.492  1.00  0.00     0.201 C 
ENDBRANCH  26  27
ENDBRANCH  25  26
ENDBRANCH  24  25
ENDBRANCH  14  24
TORSDOF 7
ENDMDL
MODEL 3
REMARK VINA RESULT:      -7.5      3.293      6.694
REMARK  7 active torsions:
REMARK  status: ('A' for Active; 'I' for Inactive)
REMARK    1  A    between atoms: C12_14  and  O1_15 
REMARK    2  A    between atoms: O1_15  and  C13_16 
REMARK    3  A    between atoms: C13_16  and  C14_17 
REMARK    4  A    between atoms: C14_17  and  O2_18 
REMARK    5  A    between atoms: C17_21  and  C18_22 
REMARK    6  A    between atoms: C18_22  and  C19_23 
REMARK    7  A    between atoms: C19_23  and  O3_24 
ROOT
HETATM    1  C1  UNL     1      29.530  -1.031  53.449  1.00  0.00     0.018 C 
HETATM    2  C2  UNL     1      28.407  -0.603  53.368  1.00  0.00    -0.078 C 
HETATM    3  C3  UNL     1      27.059  -0.116  53.275  1.00  0.00     0.019 A 
HETATM    4  C4  UNL     1      25.919  -0.870  53.447  1.00  0.00     0.021 A 
HETATM    5  C5  UNL     1      24.656  -0.299  53.336  1.00  0.00     0.011 A 
HETATM    6  C6  UNL     1      24.511   1.063  53.043  1.00  0.00    -0.027 A 
HETATM    7  C7  UNL     1      25.695   1.797  52.874  1.00  0.00     0.041 A 
HETATM    8  C8  UNL     1      26.936   1.226  52.986  1.00  0.00     0.050 A 
HETATM    9  N1  UNL     1      25.439   3.183  52.537  1.00  0.00    -0.350 N 
HETATM   10  C9  UNL     1      24.922   3.967  51.432  1.00  0.00     0.207 C 
HETATM   11  N2  UNL     1      24.392   2.906  51.068  1.00  0.00    -0.255 NA
HETATM   12  C10 UNL     1      23.602   2.655  49.976  1.00  0.00     0.132 C 
HETATM   13  C11 UNL     1      22.648   1.859  50.420  1.00  0.00     0.022 A 
HETATM   14  C12 UNL     1      21.610   1.369  49.520  1.00  0.00     0.081 A 
HETATM   15  C16 UNL     1      20.780   0.595  50.246  1.00  0.00     0.045 A 
HETATM   16  C17 UNL     1      21.277   0.582  51.616  1.00  0.00    -0.046 A 
HETATM   17  C21 UNL     1      22.381   1.323  51.745  1.00  0.00    -0.033 A 
HETATM   18  C22 UNL     1      23.152   1.589  52.974  1.00  0.00     0.081 C 
HETATM   19  H5  UNL     1      25.791   3.568  53.466  1.00  0.00     0.166 HD
ENDROOT
BRANCH  16  20
HETATM   20  C18 UNL     1      20.581  -0.200  52.703  1.00  0.00     0.065 C 
BRANCH  20  21
HETATM   21  C19 UNL     1      19.081  -0.164  52.502  1.00  0.00     0.171 C 
BRANCH  21  22
HETATM   22  O3  UNL     1      18.549  -1.266  53.179  1.00  0.00    -0.396 OA
HETATM   23  C20 UNL     1      17.181  -1.381  53.051  1.00  0.00     0.201 C 
ENDBRANCH  21  22
ENDBRANCH  20  21
ENDBRANCH  16  20
BRANCH  14  24
HETATM   24  O1  UNL     1      21.294   1.503  48.180  1.00  0.00    -0.348 OA
BRANCH  24  25
HETATM   25  C13 UNL     1      20.807   2.635  47.544  1.00  0.00     0.201 C 
BRANCH  25  26
HETATM   26  C14 UNL     1      21.894   3.286  46.680  1.00  0.00     0.193 C 
BRANCH  26  27
HETATM   27  O2  UNL     1      22.297   4.499  47.281  1.00  0.00    -0.394 OA
HETATM   28  C15 UNL     1      21.270   5.022  48.059  1.00  0.00     0.201 C 
ENDBRANCH  26  27
ENDBRANCH  25  26
ENDBRANCH  24  25
ENDBRANCH  14  24
TORSDOF 7
ENDMDL
MODEL 4
REMARK VINA RESULT:      -7.4      3.216      5.273
REMARK  7 active torsions:
REMARK  status: ('A' for Active; 'I' for Inactive)
REMARK    1  A    between atoms: C12_14  and  O1_15 
REMARK    2  A    between atoms: O1_15  and  C13_16 
REMARK    3  A    between atoms: C13_16  and  C14_17 
REMARK    4  A    between atoms: C14_17  and  O2_18 
REMARK    5  A    between atoms: C17_21  and  C18_22 
REMARK    6  A    between atoms: C18_22  and  C19_23 
REMARK    7  A    between atoms: C19_23  and  O3_24 
ROOT
HETATM    1  C1  UNL     1      16.280  -0.682  49.479  1.00  0.00     0.018 C 
HETATM    2  C2  UNL     1      17.173  -0.227  50.148  1.00  0.00    -0.078 C 
HETATM    3  C3  UNL     1      18.240   0.333  50.928  1.00  0.00     0.019 A 
HETATM    4  C4  UNL     1      18.915   1.500  50.646  1.00  0.00     0.021 A 
HETATM    5  C5  UNL     1      19.938   1.958  51.469  1.00  0.00     0.011 A 
HETATM    6  C6  UNL     1      20.310   1.238  52.613  1.00  0.00    -0.027 A 
HETATM    7  C7  UNL     1      19.601   0.054  52.866  1.00  0.00     0.041 A 
HETATM    8  C8  UNL     1      18.593  -0.389  52.049  1.00  0.00     0.050 A 
HETATM    9  N1  UNL     1      20.085  -0.635  54.045  1.00  0.00    -0.350 N 
HETATM   10  C9  UNL     1      21.256  -1.369  54.484  1.00  0.00     0.207 C 
HETATM   11  N2  UNL     1      21.839  -0.780  53.561  1.00  0.00    -0.255 NA
HETATM   12  C10 UNL     1      23.149  -0.860  53.165  1.00  0.00     0.132 C 
HETATM   13  C11 UNL     1      23.500   0.382  52.891  1.00  0.00     0.022 A 
HETATM   14  C12 UNL     1      24.846   0.688  52.423  1.00  0.00     0.081 A 
HETATM   15  C16 UNL     1      24.915   2.021  52.237  1.00  0.00     0.045 A 
HETATM   16  C17 UNL     1      23.615   2.581  52.583  1.00  0.00    -0.046 A 
HETATM   17  C21 UNL     1      22.760   1.631  52.975  1.00  0.00    -0.033 A 
HETATM   18  C22 UNL     1      21.371   1.803  53.439  1.00  0.00     0.081 C 
HETATM   19  H5  UNL     1      19.212  -0.445  54.625  1.00  0.00     0.166 HD
ENDROOT
BRANCH  16  20
HETATM   20  C18 UNL     1      23.338   4.060  52.483  1.00  0.00     0.065 C 
BRANCH  20  21
HETATM   21  C19 UNL     1      23.975   4.634  51.235  1.00  0.00     0.171 C 
BRANCH  21  22
HETATM   22  O3  UNL     1      23.032   5.479  50.643  1.00  0.00    -0.396 OA
HETATM   23  C20 UNL     1      21.847   5.557  51.343  1.00  0.00     0.201 C 
ENDBRANCH  21  22
ENDBRANCH  20  21
ENDBRANCH  16  20
BRANCH  14  24
HETATM   24  O1  UNL     1      26.001  -0.022  52.143  1.00  0.00    -0.348 OA
BRANCH  24  25
HETATM   25  C13 UNL     1      27.231   0.101  52.770  1.00  0.00     0.201 C 
BRANCH  25  26
HETATM   26  C14 UNL     1      27.078   0.023  54.294  1.00  0.00     0.193 C 
BRANCH  26  27
HETATM   27  O2  UNL     1      27.882   1.020  54.891  1.00  0.00    -0.394 OA
HETATM   28  C15 UNL     1      28.873   1.438  54.010  1.00  0.00     0.201 C 
ENDBRANCH  26  27
ENDBRANCH  25  26
ENDBRANCH  24  25
ENDBRANCH  14  24
TORSDOF 7
ENDMDL
MODEL 5
REMARK VINA RESULT:      -7.4      2.287      6.173
REMARK  7 active torsions:
REMARK  status: ('A' for Active; 'I' for Inactive)
REMARK    1  A    between atoms: C12_14  and  O1_15 
REMARK    2  A    between atoms: O1_15  and  C13_16 
REMARK    3  A    between atoms: C13_16  and  C14_17 
REMARK    4  A    between atoms: C14_17  and  O2_18 
REMARK    5  A    between atoms: C17_21  and  C18_22 
REMARK    6  A    between atoms: C18_22  and  C19_23 
REMARK    7  A    between atoms: C19_23  and  O3_24 
ROOT
HETATM    1  C1  UNL     1      27.905   5.022  48.218  1.00  0.00     0.018 C 
HETATM    2  C2  UNL     1      27.184   4.571  49.072  1.00  0.00    -0.078 C 
HETATM    3  C3  UNL     1      26.339   4.012  50.089  1.00  0.00     0.019 A 
HETATM    4  C4  UNL     1      26.509   2.783  50.688  1.00  0.00     0.021 A 
HETATM    5  C5  UNL     1      25.630   2.333  51.668  1.00  0.00     0.011 A 
HETATM    6  C6  UNL     1      24.545   3.122  52.072  1.00  0.00    -0.027 A 
HETATM    7  C7  UNL     1      24.406   4.366  51.438  1.00  0.00     0.041 A 
HETATM    8  C8  UNL     1      25.277   4.803  50.473  1.00  0.00     0.050 A 
HETATM    9  N1  UNL     1      23.235   5.089  51.895  1.00  0.00    -0.350 N 
HETATM   10  C9  UNL     1      21.790   5.003  51.809  1.00  0.00     0.207 C 
HETATM   11  N2  UNL     1      21.984   3.808  51.541  1.00  0.00    -0.255 NA
HETATM   12  C10 UNL     1      21.077   2.816  51.269  1.00  0.00     0.132 C 
HETATM   13  C11 UNL     1      21.531   1.753  51.904  1.00  0.00     0.022 A 
HETATM   14  C12 UNL     1      20.816   0.484  51.836  1.00  0.00     0.081 A 
HETATM   15  C16 UNL     1      21.502  -0.405  52.580  1.00  0.00     0.045 A 
HETATM   16  C17 UNL     1      22.662   0.284  53.132  1.00  0.00    -0.046 A 
HETATM   17  C21 UNL     1      22.701   1.563  52.748  1.00  0.00    -0.033 A 
HETATM   18  C22 UNL     1      23.690   2.590  53.126  1.00  0.00     0.081 C 
HETATM   19  H5  UNL     1      23.788   5.844  52.402  1.00  0.00     0.166 HD
ENDROOT
BRANCH  16  20
HETATM   20  C18 UNL     1      23.657  -0.424  54.017  1.00  0.00     0.065 C 
BRANCH  20  21
HETATM   21  C19 UNL     1      24.896  -0.793  53.229  1.00  0.00     0.171 C 
BRANCH  21  22
HETATM   22  O3  UNL     1      25.915  -1.039  54.154  1.00  0.00    -0.396 OA
HETATM   23  C20 UNL     1      26.315   0.086  54.844  1.00  0.00     0.201 C 
ENDBRANCH  21  22
ENDBRANCH  20  21
ENDBRANCH  16  20
BRANCH  14  24
HETATM   24  O1  UNL     1      19.670   0.006  51.226  1.00  0.00    -0.348 OA
BRANCH  24  25
HETATM   25  C13 UNL     1      18.368   0.431  51.442  1.00  0.00     0.201 C 
BRANCH  25  26
HETATM   26  C14 UNL     1      17.502  -0.713  51.984  1.00  0.00     0.193 C 
BRANCH  26  27
HETATM   27  O2  UNL     1      17.767  -0.880  53.362  1.00  0.00    -0.394 OA
HETATM   28  C15 UNL     1      18.005  -2.219  53.653  1.00  0.00     0.201 C 
ENDBRANCH  26  27
ENDBRANCH  25  26
ENDBRANCH  24  25
ENDBRANCH  14  24
TORSDOF 7
ENDMDL
MODEL 6
REMARK VINA RESULT:      -7.0      2.956      6.227
REMARK  7 active torsions:
REMARK  status: ('A' for Active; 'I' for Inactive)
REMARK    1  A    between atoms: C12_14  and  O1_15 
REMARK    2  A    between atoms: O1_15  and  C13_16 
REMARK    3  A    between atoms: C13_16  and  C14_17 
REMARK    4  A    between atoms: C14_17  and  O2_18 
REMARK    5  A    between atoms: C17_21  and  C18_22 
REMARK    6  A    between atoms: C18_22  and  C19_23 
REMARK    7  A    between atoms: C19_23  and  O3_24 
ROOT
HETATM    1  C1  UNL     1      28.017   5.133  48.307  1.00  0.00     0.018 C 
HETATM    2  C2  UNL     1      27.224   4.691  49.099  1.00  0.00    -0.078 C 
HETATM    3  C3  UNL     1      26.293   4.142  50.044  1.00  0.00     0.019 A 
HETATM    4  C4  UNL     1      26.366   2.888  50.609  1.00  0.00     0.021 A 
HETATM    5  C5  UNL     1      25.408   2.451  51.518  1.00  0.00     0.011 A 
HETATM    6  C6  UNL     1      24.339   3.280  51.883  1.00  0.00    -0.027 A 
HETATM    7  C7  UNL     1      24.298   4.549  51.285  1.00  0.00     0.041 A 
HETATM    8  C8  UNL     1      25.247   4.972  50.390  1.00  0.00     0.050 A 
HETATM    9  N1  UNL     1      23.137   5.313  51.696  1.00  0.00    -0.350 N 
HETATM   10  C9  UNL     1      21.698   5.302  51.520  1.00  0.00     0.207 C 
HETATM   11  N2  UNL     1      21.851   4.108  51.223  1.00  0.00    -0.255 NA
HETATM   12  C10 UNL     1      20.916   3.171  50.863  1.00  0.00     0.132 C 
HETATM   13  C11 UNL     1      21.280   2.067  51.487  1.00  0.00     0.022 A 
HETATM   14  C12 UNL     1      20.511   0.838  51.332  1.00  0.00     0.081 A 
HETATM   15  C16 UNL     1      21.107  -0.108  52.084  1.00  0.00     0.045 A 
HETATM   16  C17 UNL     1      22.261   0.506  52.728  1.00  0.00    -0.046 A 
HETATM   17  C21 UNL     1      22.385   1.793  52.392  1.00  0.00    -0.033 A 
HETATM   18  C22 UNL     1      23.396   2.757  52.864  1.00  0.00     0.081 C 
HETATM   19  H5  UNL     1      23.693   6.024  52.262  1.00  0.00     0.166 HD
ENDROOT
BRANCH  16  20
HETATM   20  C18 UNL     1      23.166  -0.278  53.646  1.00  0.00     0.065 C 
BRANCH  20  21
HETATM   21  C19 UNL     1      22.357  -1.251  54.479  1.00  0.00     0.171 C 
BRANCH  21  22
HETATM   22  O3  UNL     1      23.042  -1.430  55.684  1.00  0.00    -0.396 OA
HETATM   23  C20 UNL     1      24.401  -1.218  55.581  1.00  0.00     0.201 C 
ENDBRANCH  21  22
ENDBRANCH  20  21
ENDBRANCH  16  20
BRANCH  14  24
HETATM   24  O1  UNL     1      19.383   0.437  50.637  1.00  0.00    -0.348 OA
BRANCH  24  25
HETATM   25  C13 UNL     1      18.137   1.044  50.645  1.00  0.00     0.201 C 
BRANCH  25  26
HETATM   26  C14 UNL     1      17.123   0.199  51.427  1.00  0.00     0.193 C 
BRANCH  26  27
HETATM   27  O2  UNL     1      17.759  -0.974  51.891  1.00  0.00    -0.394 OA
HETATM   28  C15 UNL     1      17.579  -1.116  53.263  1.00  0.00     0.201 C 
ENDBRANCH  26  27
ENDBRANCH  25  26
ENDBRANCH  24  25
ENDBRANCH  14  24
TORSDOF 7
ENDMDL
MODEL 7
REMARK VINA RESULT:      -6.8      3.240      6.526
REMARK  7 active torsions:
REMARK  status: ('A' for Active; 'I' for Inactive)
REMARK    1  A    between atoms: C12_14  and  O1_15 
REMARK    2  A    between atoms: O1_15  and  C13_16 
REMARK    3  A    between atoms: C13_16  and  C14_17 
REMARK    4  A    between atoms: C14_17  and  O2_18 
REMARK    5  A    between atoms: C17_21  and  C18_22 
REMARK    6  A    between atoms: C18_22  and  C19_23 
REMARK    7  A    between atoms: C19_23  and  O3_24 
ROOT
HETATM    1  C1  UNL     1      15.701  -0.768  52.669  1.00  0.00     0.018 C 
HETATM    2  C2  UNL     1      16.858  -0.519  52.442  1.00  0.00    -0.078 C 
HETATM    3  C3  UNL     1      18.241  -0.227  52.194  1.00  0.00     0.019 A 
HETATM    4  C4  UNL     1      19.269  -0.381  53.098  1.00  0.00     0.021 A 
HETATM    5  C5  UNL     1      20.581  -0.069  52.757  1.00  0.00     0.011 A 
HETATM    6  C6  UNL     1      20.891   0.413  51.478  1.00  0.00    -0.027 A 
HETATM    7  C7  UNL     1      19.817   0.557  50.587  1.00  0.00     0.041 A 
HETATM    8  C8  UNL     1      18.527   0.246  50.931  1.00  0.00     0.050 A 
HETATM    9  N1  UNL     1      20.234   1.097  49.307  1.00  0.00    -0.350 N 
HETATM   10  C9  UNL     1      20.725   2.341  48.750  1.00  0.00     0.207 C 
HETATM   11  N2  UNL     1      21.044   2.615  49.916  1.00  0.00    -0.255 NA
HETATM   12  C10 UNL     1      21.651   3.738  50.416  1.00  0.00     0.132 C 
HETATM   13  C11 UNL     1      22.523   3.292  51.300  1.00  0.00     0.022 A 
HETATM   14  C12 UNL     1      23.360   4.219  52.051  1.00  0.00     0.081 A 
HETATM   15  C16 UNL     1      24.147   3.486  52.862  1.00  0.00     0.045 A 
HETATM   16  C17 UNL     1      23.822   2.083  52.638  1.00  0.00    -0.046 A 
HETATM   17  C21 UNL     1      22.864   1.941  51.718  1.00  0.00    -0.033 A 
HETATM   18  C22 UNL     1      22.294   0.687  51.192  1.00  0.00     0.081 C 
HETATM   19  H5  UNL     1      20.057   0.196  48.768  1.00  0.00     0.166 HD
ENDROOT
BRANCH  16  20
HETATM   20  C18 UNL     1      24.519   0.978  53.393  1.00  0.00     0.065 C 
BRANCH  20  21
HETATM   21  C19 UNL     1      26.016   1.200  53.392  1.00  0.00     0.171 C 
BRANCH  21  22
HETATM   22  O3  UNL     1      26.474   0.932  54.685  1.00  0.00    -0.396 OA
HETATM   23  C20 UNL     1      27.771   0.467  54.724  1.00  0.00     0.201 C 
ENDBRANCH  21  22
ENDBRANCH  20  21
ENDBRANCH  16  20
BRANCH  14  24
HETATM   24  O1  UNL     1      23.529   5.591  52.124  1.00  0.00    -0.348 OA
BRANCH  24  25
HETATM   25  C13 UNL     1      24.226   6.396  51.236  1.00  0.00     0.201 C 
BRANCH  25  26
HETATM   26  C14 UNL     1      23.372   7.593  50.799  1.00  0.00     0.193 C 
BRANCH  26  27
HETATM   27  O2  UNL     1      22.350   7.140  49.934  1.00  0.00    -0.394 OA
HETATM   28  C15 UNL     1      21.135   7.729  50.266  1.00  0.00     0.201 C 
ENDBRANCH  26  27
ENDBRANCH  25  26
ENDBRANCH  24  25
ENDBRANCH  14  24
TORSDOF 7
ENDMDL
MODEL 8
REMARK VINA RESULT:      -6.7      3.774      7.917
REMARK  7 active torsions:
REMARK  status: ('A' for Active; 'I' for Inactive)
REMARK    1  A    between atoms: C12_14  and  O1_15 
REMARK    2  A    between atoms: O1_15  and  C13_16 
REMARK    3  A    between atoms: C13_16  and  C14_17 
REMARK    4  A    between atoms: C14_17  and  O2_18 
REMARK    5  A    between atoms: C17_21  and  C18_22 
REMARK    6  A    between atoms: C18_22  and  C19_23 
REMARK    7  A    between atoms: C19_23  and  O3_24 
ROOT
HETATM    1  C1  UNL     1      22.306  -1.262  55.024  1.00  0.00     0.018 C 
HETATM    2  C2  UNL     1      22.607  -0.567  54.087  1.00  0.00    -0.078 C 
HETATM    3  C3  UNL     1      22.988   0.262  52.979  1.00  0.00     0.019 A 
HETATM    4  C4  UNL     1      24.259   0.729  52.724  1.00  0.00     0.021 A 
HETATM    5  C5  UNL     1      24.524   1.529  51.618  1.00  0.00     0.011 A 
HETATM    6  C6  UNL     1      23.499   1.884  50.731  1.00  0.00    -0.027 A 
HETATM    7  C7  UNL     1      22.218   1.390  51.025  1.00  0.00     0.041 A 
HETATM    8  C8  UNL     1      21.966   0.601  52.117  1.00  0.00     0.050 A 
HETATM    9  N1  UNL     1      21.223   1.843  50.073  1.00  0.00    -0.350 N 
HETATM   10  C9  UNL     1      20.547   3.067  49.691  1.00  0.00     0.207 C 
HETATM   11  N2  UNL     1      21.502   3.639  50.238  1.00  0.00    -0.255 NA
HETATM   12  C10 UNL     1      21.749   4.980  50.385  1.00  0.00     0.132 C 
HETATM   13  C11 UNL     1      23.042   5.116  50.159  1.00  0.00     0.022 A 
HETATM   14  C12 UNL     1      23.675   6.427  50.235  1.00  0.00     0.081 A 
HETATM   15  C16 UNL     1      24.982   6.261  49.951  1.00  0.00     0.045 A 
HETATM   16  C17 UNL     1      25.197   4.843  49.690  1.00  0.00    -0.046 A 
HETATM   17  C21 UNL     1      24.064   4.144  49.805  1.00  0.00    -0.033 A 
HETATM   18  C22 UNL     1      23.866   2.700  49.580  1.00  0.00     0.081 C 
HETATM   19  H5  UNL     1      21.071   0.882  49.639  1.00  0.00     0.166 HD
ENDROOT
BRANCH  16  20
HETATM   20  C18 UNL     1      26.561   4.300  49.342  1.00  0.00     0.065 C 
BRANCH  20  21
HETATM   21  C19 UNL     1      27.369   5.340  48.595  1.00  0.00     0.171 C 
BRANCH  21  22
HETATM   22  O3  UNL     1      28.700   4.915  48.607  1.00  0.00    -0.396 OA
HETATM   23  C20 UNL     1      29.588   5.873  48.166  1.00  0.00     0.201 C 
ENDBRANCH  21  22
ENDBRANCH  20  21
ENDBRANCH  16  20
BRANCH  14  24
HETATM   24  O1  UNL     1      23.278   7.723  50.513  1.00  0.00    -0.348 OA
BRANCH  24  25
HETATM   25  C13 UNL     1      22.554   8.571  49.689  1.00  0.00     0.201 C 
BRANCH  25  26
HETATM   26  C14 UNL     1      23.420   9.074  48.527  1.00  0.00     0.193 C 
BRANCH  26  27
HETATM   27  O2  UNL     1      23.129   8.315  47.372  1.00  0.00    -0.394 OA
HETATM   28  C15 UNL     1      21.773   8.008  47.319  1.00  0.00     0.201 C 
ENDBRANCH  26  27
ENDBRANCH  25  26
ENDBRANCH  24  25
ENDBRANCH  14  24
TORSDOF 7
ENDMDL
MODEL 9
REMARK VINA RESULT:      -6.5      1.744      2.545
REMARK  7 active torsions:
REMARK  status: ('A' for Active; 'I' for Inactive)
REMARK    1  A    between atoms: C12_14  and  O1_15 
REMARK    2  A    between atoms: O1_15  and  C13_16 
REMARK    3  A    between atoms: C13_16  and  C14_17 
REMARK    4  A    between atoms: C14_17  and  O2_18 
REMARK    5  A    between atoms: C17_21  and  C18_22 
REMARK    6  A    between atoms: C18_22  and  C19_23 
REMARK    7  A    between atoms: C19_23  and  O3_24 
ROOT
HETATM    1  C1  UNL     1      19.889   9.124  49.797  1.00  0.00     0.018 C 
HETATM    2  C2  UNL     1      20.325   8.001  49.748  1.00  0.00    -0.078 C 
HETATM    3  C3  UNL     1      20.823   6.656  49.699  1.00  0.00     0.019 A 
HETATM    4  C4  UNL     1      20.126   5.527  50.071  1.00  0.00     0.021 A 
HETATM    5  C5  UNL     1      20.702   4.265  49.985  1.00  0.00     0.011 A 
HETATM    6  C6  UNL     1      22.013   4.108  49.515  1.00  0.00    -0.027 A 
HETATM    7  C7  UNL     1      22.690   5.281  49.147  1.00  0.00     0.041 A 
HETATM    8  C8  UNL     1      22.114   6.522  49.235  1.00  0.00     0.050 A 
HETATM    9  N1  UNL     1      24.048   5.019  48.713  1.00  0.00    -0.350 N 
HETATM   10  C9  UNL     1      25.315   4.590  49.272  1.00  0.00     0.207 C 
HETATM   11  N2  UNL     1      24.630   4.130  50.197  1.00  0.00    -0.255 NA
HETATM   12  C10 UNL     1      25.024   3.459  51.326  1.00  0.00     0.132 C 
HETATM   13  C11 UNL     1      24.141   2.491  51.475  1.00  0.00     0.022 A 
HETATM   14  C12 UNL     1      24.238   1.562  52.594  1.00  0.00     0.081 A 
HETATM   15  C16 UNL     1      23.219   0.687  52.482  1.00  0.00     0.045 A 
HETATM   16  C17 UNL     1      22.461   1.047  51.291  1.00  0.00    -0.046 A 
HETATM   17  C21 UNL     1      22.987   2.110  50.676  1.00  0.00    -0.033 A 
HETATM   18  C22 UNL     1      22.532   2.748  49.427  1.00  0.00     0.081 C 
HETATM   19  H5  UNL     1      23.866   5.265  47.693  1.00  0.00     0.166 HD
ENDROOT
BRANCH  16  20
HETATM   20  C18 UNL     1      21.238   0.271  50.866  1.00  0.00     0.065 C 
BRANCH  20  21
HETATM   21  C19 UNL     1      19.999   0.836  51.528  1.00  0.00     0.171 C 
BRANCH  21  22
HETATM   22  O3  UNL     1      19.338  -0.232  52.143  1.00  0.00    -0.396 OA
HETATM   23  C20 UNL     1      19.760  -0.470  53.434  1.00  0.00     0.201 C 
ENDBRANCH  21  22
ENDBRANCH  20  21
ENDBRANCH  16  20
BRANCH  14  24
HETATM   24  O1  UNL     1      25.078   1.376  53.679  1.00  0.00    -0.348 OA
BRANCH  24  25
HETATM   25  C13 UNL     1      26.408   0.987  53.649  1.00  0.00     0.201 C 
BRANCH  25  26
HETATM   26  C14 UNL     1      26.777   0.207  54.918  1.00  0.00     0.193 C 
BRANCH  26  27
HETATM   27  O2  UNL     1      27.978  -0.503  54.690  1.00  0.00    -0.394 OA
HETATM   28  C15 UNL     1      28.955   0.344  54.177  1.00  0.00     0.201 C 
ENDBRANCH  26  27
ENDBRANCH  25  26
ENDBRANCH  24  25
ENDBRANCH  14  24
TORSDOF 7
ENDMDL
