MODEL 1
REMARK VINA RESULT:      -8.1      0.000      0.000
REMARK  8 active torsions:
REMARK  status: ('A' for Active; 'I' for Inactive)
REMARK    1  A    between atoms: C2_2  and  C3_3 
REMARK    2  A    between atoms: C3_3  and  C4_4 
REMARK    3  A    between atoms: C4_4  and  C5_6 
REMARK    4  A    between atoms: C8_9  and  N1_10 
REMARK    5  A    between atoms: N1_10  and  C9_11 
REMARK    6  A    between atoms: C15_18  and  C16_19 
REMARK    7  A    between atoms: C16_19  and  N2_20 
REMARK    8  A    between atoms: C20_25  and  O2_26 
ROOT
HETATM    1  C5  UNL     1      23.412  -0.685  54.046  1.00  0.00     0.044 A 
HETATM    2  C6  UNL     1      22.916  -0.019  52.926  1.00  0.00     0.034 A 
HETATM    3  C7  UNL     1      21.578   0.005  52.617  1.00  0.00     0.021 A 
HETATM    4  C8  UNL     1      21.049   0.653  51.519  1.00  0.00     0.054 A 
HETATM    5  C15 UNL     1      19.692   0.638  51.265  1.00  0.00     0.015 A 
HETATM    6  C17 UNL     1      18.870  -0.050  52.153  1.00  0.00     0.128 A 
HETATM    7  N3  UNL     1      19.354  -0.696  53.239  1.00  0.00    -0.260 NA
HETATM    8  C18 UNL     1      20.690  -0.653  53.444  1.00  0.00     0.071 A 
HETATM    9  C19 UNL     1      21.170  -1.314  54.554  1.00  0.00     0.070 A 
HETATM   10  C20 UNL     1      22.513  -1.337  54.862  1.00  0.00     0.081 A 
ENDROOT
BRANCH   4  11
HETATM   11  N1  UNL     1      21.916   1.337  50.646  1.00  0.00    -0.355 N 
HETATM   12  H9  UNL     1      21.866   0.731  49.803  1.00  0.00     0.166 HD
BRANCH  11  13
HETATM   13  C9  UNL     1      22.697   2.506  50.727  1.00  0.00     0.033 A 
HETATM   14  C10 UNL     1      22.143   3.625  51.321  1.00  0.00     0.029 A 
HETATM   15  C11 UNL     1      22.966   4.737  51.367  1.00  0.00     0.004 A 
HETATM   16  C12 UNL     1      24.239   4.809  50.885  1.00  0.00     0.019 A 
HETATM   17  C13 UNL     1      24.756   3.654  50.295  1.00  0.00     0.013 A 
HETATM   18 BR1  UNL     1      26.521   3.680  49.603  1.00  0.00    -0.051 Br
HETATM   19  C14 UNL     1      23.971   2.499  50.219  1.00  0.00     0.048 A 
ENDBRANCH  11  13
ENDBRANCH   4  11
BRANCH   5  20
HETATM   20  C16 UNL     1      19.145   1.344  50.074  1.00  0.00     0.309 C 
BRANCH  20  21
HETATM   21  N2  UNL     1      17.953   0.659  49.569  1.00  0.00     0.082 N 
HETATM   22  H16 UNL     1      17.090   1.041  50.021  1.00  0.00     0.313 HD
HETATM   23  H17 UNL     1      18.038  -0.373  49.712  1.00  0.00     0.313 HD
ENDBRANCH  20  21
ENDBRANCH   5  20
BRANCH   1  24
HETATM   24  C4  UNL     1      24.859  -0.565  54.156  1.00  0.00     0.162 C 
HETATM   25  O1  UNL     1      25.599  -0.876  55.118  1.00  0.00    -0.292 OA
BRANCH  24  26
HETATM   26  C3  UNL     1      25.636  -0.006  53.016  1.00  0.00     0.084 C 
BRANCH  26  27
HETATM   27  C2  UNL     1      26.441   1.206  53.440  1.00  0.00     0.003 C 
HETATM   28  C1  UNL     1      25.555   2.400  53.660  1.00  0.00     0.005 C 
ENDBRANCH  26  27
ENDBRANCH  24  26
ENDBRANCH   1  24
BRANCH  10  29
HETATM   29  O2  UNL     1      23.110  -1.966  55.945  1.00  0.00    -0.360 OA
HETATM   30  H20 UNL     1      22.943  -1.652  56.892  1.00  0.00     0.217 HD
ENDBRANCH  10  29
TORSDOF 8
ENDMDL
MODEL 2
REMARK VINA RESULT:      -7.9      2.640      4.928
REMARK  8 active torsions:
REMARK  status: ('A' for Active; 'I' for Inactive)
REMARK    1  A    between atoms: C2_2  and  C3_3 
REMARK    2  A    between atoms: C3_3  and  C4_4 
REMARK    3  A    between atoms: C4_4  and  C5_6 
REMARK    4  A    between atoms: C8_9  and  N1_10 
REMARK    5  A    between atoms: N1_10  and  C9_11 
REMARK    6  A    between atoms: C15_18  and  C16_19 
REMARK    7  A    between atoms: C16_19  and  N2_20 
REMARK    8  A    between atoms: C20_25  and  O2_26 
ROOT
HETATM    1  C5  UNL     1      21.754  -0.448  53.424  1.00  0.00     0.044 A 
HETATM    2  C6  UNL     1      22.851   0.243  52.910  1.00  0.00     0.034 A 
HETATM    3  C7  UNL     1      24.103   0.156  53.469  1.00  0.00     0.021 A 
HETATM    4  C8  UNL     1      25.212   0.823  52.990  1.00  0.00     0.054 A 
HETATM    5  C15 UNL     1      26.445   0.691  53.599  1.00  0.00     0.015 A 
HETATM    6  C17 UNL     1      26.535  -0.138  54.713  1.00  0.00     0.128 A 
HETATM    7  N3  UNL     1      25.469  -0.808  55.210  1.00  0.00    -0.260 NA
HETATM    8  C18 UNL     1      24.284  -0.646  54.578  1.00  0.00     0.071 A 
HETATM    9  C19 UNL     1      23.206  -1.333  55.094  1.00  0.00     0.070 A 
HETATM   10  C20 UNL     1      21.951  -1.243  54.531  1.00  0.00     0.081 A 
ENDROOT
BRANCH   4  11
HETATM   11  N1  UNL     1      25.077   1.652  51.860  1.00  0.00    -0.355 N 
HETATM   12  H9  UNL     1      25.715   1.179  51.190  1.00  0.00     0.166 HD
BRANCH  11  13
HETATM   13  C9  UNL     1      24.342   2.814  51.556  1.00  0.00     0.033 A 
HETATM   14  C10 UNL     1      24.102   3.722  52.571  1.00  0.00     0.029 A 
HETATM   15  C11 UNL     1      23.374   4.840  52.203  1.00  0.00     0.004 A 
HETATM   16  C12 UNL     1      22.891   5.104  50.956  1.00  0.00     0.019 A 
HETATM   17  C13 UNL     1      23.159   4.158  49.964  1.00  0.00     0.013 A 
HETATM   18 BR1  UNL     1      22.518   4.458  48.205  1.00  0.00    -0.051 Br
HETATM   19  C14 UNL     1      23.889   3.007  50.276  1.00  0.00     0.048 A 
ENDBRANCH  11  13
ENDBRANCH   4  11
BRANCH   5  20
HETATM   20  C16 UNL     1      27.626   1.421  53.065  1.00  0.00     0.309 C 
BRANCH  20  21
HETATM   21  N2  UNL     1      27.878   2.637  53.841  1.00  0.00     0.082 N 
HETATM   22  H16 UNL     1      27.001   2.963  54.311  1.00  0.00     0.313 HD
HETATM   23  H17 UNL     1      28.285   3.381  53.229  1.00  0.00     0.313 HD
ENDBRANCH  20  21
ENDBRANCH   5  20
BRANCH   1  24
HETATM   24  C4  UNL     1      20.541  -0.191  52.659  1.00  0.00     0.162 C 
HETATM   25  O1  UNL     1      19.361  -0.508  52.936  1.00  0.00    -0.292 OA
BRANCH  24  26
HETATM   26  C3  UNL     1      20.633   0.538  51.365  1.00  0.00     0.084 C 
BRANCH  26  27
HETATM   27  C2  UNL     1      19.757   1.775  51.366  1.00  0.00     0.003 C 
HETATM   28  C1  UNL     1      20.285   2.815  52.313  1.00  0.00     0.005 C 
ENDBRANCH  26  27
ENDBRANCH  24  26
ENDBRANCH   1  24
BRANCH  10  29
HETATM   29  O2  UNL     1      20.797  -1.884  54.960  1.00  0.00    -0.360 OA
HETATM   30  H20 UNL     1      19.888  -1.627  54.598  1.00  0.00     0.217 HD
ENDBRANCH  10  29
TORSDOF 8
ENDMDL
MODEL 3
REMARK VINA RESULT:      -7.8      2.616      5.129
REMARK  8 active torsions:
REMARK  status: ('A' for Active; 'I' for Inactive)
REMARK    1  A    between atoms: C2_2  and  C3_3 
REMARK    2  A    between atoms: C3_3  and  C4_4 
REMARK    3  A    between atoms: C4_4  and  C5_6 
REMARK    4  A    between atoms: C8_9  and  N1_10 
REMARK    5  A    between atoms: N1_10  and  C9_11 
REMARK    6  A    between atoms: C15_18  and  C16_19 
REMARK    7  A    between atoms: C16_19  and  N2_20 
REMARK    8  A    between atoms: C20_25  and  O2_26 
ROOT
HETATM    1  C5  UNL     1      23.854  -0.610  54.188  1.00  0.00     0.044 A 
HETATM    2  C6  UNL     1      23.819   0.241  53.084  1.00  0.00     0.034 A 
HETATM    3  C7  UNL     1      24.920   0.945  52.663  1.00  0.00     0.021 A 
HETATM    4  C8  UNL     1      24.927   1.796  51.576  1.00  0.00     0.054 A 
HETATM    5  C15 UNL     1      26.070   2.474  51.205  1.00  0.00     0.015 A 
HETATM    6  C17 UNL     1      27.221   2.274  51.962  1.00  0.00     0.128 A 
HETATM    7  N3  UNL     1      27.252   1.448  53.033  1.00  0.00    -0.260 NA
HETATM    8  C18 UNL     1      26.106   0.806  53.356  1.00  0.00     0.071 A 
HETATM    9  C19 UNL     1      26.151  -0.032  54.449  1.00  0.00     0.070 A 
HETATM   10  C20 UNL     1      25.044  -0.738  54.870  1.00  0.00     0.081 A 
ENDROOT
BRANCH   4  11
HETATM   11  N1  UNL     1      23.740   1.970  50.838  1.00  0.00    -0.355 N 
HETATM   12  H9  UNL     1      24.075   1.765  49.875  1.00  0.00     0.166 HD
BRANCH  11  13
HETATM   13  C9  UNL     1      22.411   2.316  51.149  1.00  0.00     0.033 A 
HETATM   14  C10 UNL     1      22.195   3.356  52.034  1.00  0.00     0.029 A 
HETATM   15  C11 UNL     1      20.867   3.642  52.295  1.00  0.00     0.004 A 
HETATM   16  C12 UNL     1      19.791   2.997  51.763  1.00  0.00     0.019 A 
HETATM   17  C13 UNL     1      20.059   1.954  50.873  1.00  0.00     0.013 A 
HETATM   18 BR1  UNL     1      18.611   1.011  50.093  1.00  0.00    -0.051 Br
HETATM   19  C14 UNL     1      21.382   1.618  50.571  1.00  0.00     0.048 A 
ENDBRANCH  11  13
ENDBRANCH   4  11
BRANCH   5  20
HETATM   20  C16 UNL     1      26.052   3.387  50.029  1.00  0.00     0.309 C 
BRANCH  20  21
HETATM   21  N2  UNL     1      25.882   4.777  50.455  1.00  0.00     0.082 N 
HETATM   22  H16 UNL     1      25.508   5.360  49.670  1.00  0.00     0.313 HD
HETATM   23  H17 UNL     1      26.784   5.159  50.820  1.00  0.00     0.313 HD
ENDBRANCH  20  21
ENDBRANCH   5  20
BRANCH   1  24
HETATM   24  C4  UNL     1      22.563  -1.240  54.432  1.00  0.00     0.162 C 
HETATM   25  O1  UNL     1      22.191  -1.899  55.431  1.00  0.00    -0.292 OA
BRANCH  24  26
HETATM   26  C3  UNL     1      21.491  -1.132  53.406  1.00  0.00     0.084 C 
BRANCH  26  27
HETATM   27  C2  UNL     1      20.334  -0.290  53.905  1.00  0.00     0.003 C 
HETATM   28  C1  UNL     1      19.030  -0.755  53.323  1.00  0.00     0.005 C 
ENDBRANCH  26  27
ENDBRANCH  24  26
ENDBRANCH   1  24
BRANCH  10  29
HETATM   29  O2  UNL     1      24.969  -1.606  55.949  1.00  0.00    -0.360 OA
HETATM   30  H20 UNL     1      25.797  -1.882  56.460  1.00  0.00     0.217 HD
ENDBRANCH  10  29
TORSDOF 8
ENDMDL
MODEL 4
REMARK VINA RESULT:      -7.8      2.173      3.756
REMARK  8 active torsions:
REMARK  status: ('A' for Active; 'I' for Inactive)
REMARK    1  A    between atoms: C2_2  and  C3_3 
REMARK    2  A    between atoms: C3_3  and  C4_4 
REMARK    3  A    between atoms: C4_4  and  C5_6 
REMARK    4  A    between atoms: C8_9  and  N1_10 
REMARK    5  A    between atoms: N1_10  and  C9_11 
REMARK    6  A    between atoms: C15_18  and  C16_19 
REMARK    7  A    between atoms: C16_19  and  N2_20 
REMARK    8  A    between atoms: C20_25  and  O2_26 
ROOT
HETATM    1  C5  UNL     1      26.070   0.988  52.794  1.00  0.00     0.044 A 
HETATM    2  C6  UNL     1      24.703   1.198  52.623  1.00  0.00     0.034 A 
HETATM    3  C7  UNL     1      23.756   0.463  53.293  1.00  0.00     0.021 A 
HETATM    4  C8  UNL     1      22.394   0.640  53.152  1.00  0.00     0.054 A 
HETATM    5  C15 UNL     1      21.495  -0.134  53.857  1.00  0.00     0.015 A 
HETATM    6  C17 UNL     1      22.003  -1.101  54.719  1.00  0.00     0.128 A 
HETATM    7  N3  UNL     1      23.331  -1.303  54.884  1.00  0.00    -0.260 NA
HETATM    8  C18 UNL     1      24.172  -0.519  54.170  1.00  0.00     0.071 A 
HETATM    9  C19 UNL     1      25.521  -0.735  54.347  1.00  0.00     0.070 A 
HETATM   10  C20 UNL     1      26.469   0.004  53.672  1.00  0.00     0.081 A 
ENDROOT
BRANCH   4  11
HETATM   11  N1  UNL     1      21.922   1.630  52.268  1.00  0.00    -0.355 N 
HETATM   12  H9  UNL     1      21.496   2.303  52.936  1.00  0.00     0.166 HD
BRANCH  11  13
HETATM   13  C9  UNL     1      21.938   1.813  50.872  1.00  0.00     0.033 A 
HETATM   14  C10 UNL     1      21.481   0.782  50.071  1.00  0.00     0.029 A 
HETATM   15  C11 UNL     1      21.525   1.029  48.710  1.00  0.00     0.004 A 
HETATM   16  C12 UNL     1      21.969   2.174  48.120  1.00  0.00     0.019 A 
HETATM   17  C13 UNL     1      22.420   3.187  48.970  1.00  0.00     0.013 A 
HETATM   18 BR1  UNL     1      23.053   4.809  48.219  1.00  0.00    -0.051 Br
HETATM   19  C14 UNL     1      22.401   2.995  50.355  1.00  0.00     0.048 A 
ENDBRANCH  11  13
ENDBRANCH   4  11
BRANCH   5  20
HETATM   20  C16 UNL     1      20.031   0.076  53.687  1.00  0.00     0.309 C 
BRANCH  20  21
HETATM   21  N2  UNL     1      19.308  -1.191  53.817  1.00  0.00     0.082 N 
HETATM   22  H16 UNL     1      19.526  -1.824  53.013  1.00  0.00     0.313 HD
HETATM   23  H17 UNL     1      18.280  -1.016  53.899  1.00  0.00     0.313 HD
ENDBRANCH  20  21
ENDBRANCH   5  20
BRANCH   1  24
HETATM   24  C4  UNL     1      26.867   1.891  51.975  1.00  0.00     0.162 C 
HETATM   25  O1  UNL     1      27.918   2.501  52.280  1.00  0.00    -0.292 OA
BRANCH  24  26
HETATM   26  C3  UNL     1      26.443   2.177  50.577  1.00  0.00     0.084 C 
BRANCH  26  27
HETATM   27  C2  UNL     1      26.182   3.657  50.374  1.00  0.00     0.003 C 
HETATM   28  C1  UNL     1      26.924   4.182  49.177  1.00  0.00     0.005 C 
ENDBRANCH  26  27
ENDBRANCH  24  26
ENDBRANCH   1  24
BRANCH  10  29
HETATM   29  O2  UNL     1      27.848  -0.121  53.768  1.00  0.00    -0.360 OA
HETATM   30  H20 UNL     1      28.316  -0.981  53.515  1.00  0.00     0.217 HD
ENDBRANCH  10  29
TORSDOF 8
ENDMDL
MODEL 5
REMARK VINA RESULT:      -7.5      2.893      5.297
REMARK  8 active torsions:
REMARK  status: ('A' for Active; 'I' for Inactive)
REMARK    1  A    between atoms: C2_2  and  C3_3 
REMARK    2  A    between atoms: C3_3  and  C4_4 
REMARK    3  A    between atoms: C4_4  and  C5_6 
REMARK    4  A    between atoms: C8_9  and  N1_10 
REMARK    5  A    between atoms: N1_10  and  C9_11 
REMARK    6  A    between atoms: C15_18  and  C16_19 
REMARK    7  A    between atoms: C16_19  and  N2_20 
REMARK    8  A    between atoms: C20_25  and  O2_26 
ROOT
HETATM    1  C5  UNL     1      22.414  -0.393  53.395  1.00  0.00     0.044 A 
HETATM    2  C6  UNL     1      23.571   0.136  52.823  1.00  0.00     0.034 A 
HETATM    3  C7  UNL     1      24.788   0.099  53.458  1.00  0.00     0.021 A 
HETATM    4  C8  UNL     1      25.955   0.611  52.927  1.00  0.00     0.054 A 
HETATM    5  C15 UNL     1      27.148   0.540  53.619  1.00  0.00     0.015 A 
HETATM    6  C17 UNL     1      27.139  -0.065  54.872  1.00  0.00     0.128 A 
HETATM    7  N3  UNL     1      26.015  -0.578  55.424  1.00  0.00    -0.260 NA
HETATM    8  C18 UNL     1      24.872  -0.484  54.707  1.00  0.00     0.071 A 
HETATM    9  C19 UNL     1      23.734  -1.010  55.280  1.00  0.00     0.070 A 
HETATM   10  C20 UNL     1      22.514  -0.971  54.641  1.00  0.00     0.081 A 
ENDROOT
BRANCH   4  11
HETATM   11  N1  UNL     1      25.919   1.215  51.655  1.00  0.00    -0.355 N 
HETATM   12  H9  UNL     1      26.207   0.420  51.051  1.00  0.00     0.166 HD
BRANCH  11  13
HETATM   13  C9  UNL     1      25.609   2.499  51.168  1.00  0.00     0.033 A 
HETATM   14  C10 UNL     1      26.466   3.075  50.248  1.00  0.00     0.029 A 
HETATM   15  C11 UNL     1      26.101   4.337  49.811  1.00  0.00     0.004 A 
HETATM   16  C12 UNL     1      24.997   5.031  50.208  1.00  0.00     0.019 A 
HETATM   17  C13 UNL     1      24.162   4.408  51.137  1.00  0.00     0.013 A 
HETATM   18 BR1  UNL     1      22.607   5.314  51.735  1.00  0.00    -0.051 Br
HETATM   19  C14 UNL     1      24.479   3.133  51.616  1.00  0.00     0.048 A 
ENDBRANCH  11  13
ENDBRANCH   4  11
BRANCH   5  20
HETATM   20  C16 UNL     1      28.392   1.100  53.025  1.00  0.00     0.309 C 
BRANCH  20  21
HETATM   21  N2  UNL     1      29.356   1.446  54.072  1.00  0.00     0.082 N 
HETATM   22  H16 UNL     1      30.108   2.066  53.689  1.00  0.00     0.313 HD
HETATM   23  H17 UNL     1      29.754   0.580  54.501  1.00  0.00     0.313 HD
ENDBRANCH  20  21
ENDBRANCH   5  20
BRANCH   1  24
HETATM   24  C4  UNL     1      21.255  -0.231  52.528  1.00  0.00     0.162 C 
HETATM   25  O1  UNL     1      20.041  -0.330  52.820  1.00  0.00    -0.292 OA
BRANCH  24  26
HETATM   26  C3  UNL     1      21.457   0.095  51.089  1.00  0.00     0.084 C 
BRANCH  26  27
HETATM   27  C2  UNL     1      21.020   1.513  50.781  1.00  0.00     0.003 C 
HETATM   28  C1  UNL     1      21.660   2.019  49.519  1.00  0.00     0.005 C 
ENDBRANCH  26  27
ENDBRANCH  24  26
ENDBRANCH   1  24
BRANCH  10  29
HETATM   29  O2  UNL     1      21.307  -1.464  55.116  1.00  0.00    -0.360 OA
HETATM   30  H20 UNL     1      20.782  -2.156  54.597  1.00  0.00     0.217 HD
ENDBRANCH  10  29
TORSDOF 8
ENDMDL
MODEL 6
REMARK VINA RESULT:      -7.5      2.652      4.789
REMARK  8 active torsions:
REMARK  status: ('A' for Active; 'I' for Inactive)
REMARK    1  A    between atoms: C2_2  and  C3_3 
REMARK    2  A    between atoms: C3_3  and  C4_4 
REMARK    3  A    between atoms: C4_4  and  C5_6 
REMARK    4  A    between atoms: C8_9  and  N1_10 
REMARK    5  A    between atoms: N1_10  and  C9_11 
REMARK    6  A    between atoms: C15_18  and  C16_19 
REMARK    7  A    between atoms: C16_19  and  N2_20 
REMARK    8  A    between atoms: C20_25  and  O2_26 
ROOT
HETATM    1  C5  UNL     1      20.798  -0.176  52.675  1.00  0.00     0.044 A 
HETATM    2  C6  UNL     1      22.138   0.171  52.508  1.00  0.00     0.034 A 
HETATM    3  C7  UNL     1      23.110  -0.195  53.407  1.00  0.00     0.021 A 
HETATM    4  C8  UNL     1      24.445   0.128  53.278  1.00  0.00     0.054 A 
HETATM    5  C15 UNL     1      25.373  -0.272  54.219  1.00  0.00     0.015 A 
HETATM    6  C17 UNL     1      24.919  -1.014  55.305  1.00  0.00     0.128 A 
HETATM    7  N3  UNL     1      23.618  -1.349  55.465  1.00  0.00    -0.260 NA
HETATM    8  C18 UNL     1      22.748  -0.934  54.516  1.00  0.00     0.071 A 
HETATM    9  C19 UNL     1      21.426  -1.282  54.690  1.00  0.00     0.070 A 
HETATM   10  C20 UNL     1      20.453  -0.913  53.786  1.00  0.00     0.081 A 
ENDROOT
BRANCH   4  11
HETATM   11  N1  UNL     1      24.861   0.881  52.163  1.00  0.00    -0.355 N 
HETATM   12  H9  UNL     1      25.337   0.149  51.598  1.00  0.00     0.166 HD
BRANCH  11  13
HETATM   13  C9  UNL     1      24.751   2.228  51.769  1.00  0.00     0.033 A 
HETATM   14  C10 UNL     1      23.794   3.014  52.385  1.00  0.00     0.029 A 
HETATM   15  C11 UNL     1      23.740   4.327  51.950  1.00  0.00     0.004 A 
HETATM   16  C12 UNL     1      24.533   4.884  50.992  1.00  0.00     0.019 A 
HETATM   17  C13 UNL     1      25.484   4.052  50.399  1.00  0.00     0.013 A 
HETATM   18 BR1  UNL     1      26.622   4.758  49.057  1.00  0.00    -0.051 Br
HETATM   19  C14 UNL     1      25.586   2.715  50.796  1.00  0.00     0.048 A 
ENDBRANCH  11  13
ENDBRANCH   4  11
BRANCH   5  20
HETATM   20  C16 UNL     1      26.807   0.089  54.058  1.00  0.00     0.309 C 
BRANCH  20  21
HETATM   21  N2  UNL     1      27.620  -1.108  53.830  1.00  0.00     0.082 N 
HETATM   22  H16 UNL     1      28.138  -1.372  54.701  1.00  0.00     0.313 HD
HETATM   23  H17 UNL     1      28.272  -0.958  53.027  1.00  0.00     0.313 HD
ENDBRANCH  20  21
ENDBRANCH   5  20
BRANCH   1  24
HETATM   24  C4  UNL     1      19.965   0.328  51.591  1.00  0.00     0.162 C 
HETATM   25  O1  UNL     1      18.848  -0.088  51.205  1.00  0.00    -0.292 OA
BRANCH  24  26
HETATM   26  C3  UNL     1      20.434   1.490  50.787  1.00  0.00     0.084 C 
BRANCH  26  27
HETATM   27  C2  UNL     1      20.981   1.046  49.445  1.00  0.00     0.003 C 
HETATM   28  C1  UNL     1      22.202   1.833  49.066  1.00  0.00     0.005 C 
ENDBRANCH  26  27
ENDBRANCH  24  26
ENDBRANCH   1  24
BRANCH  10  29
HETATM   29  O2  UNL     1      19.098  -1.203  53.855  1.00  0.00    -0.360 OA
HETATM   30  H20 UNL     1      18.742  -2.114  53.596  1.00  0.00     0.217 HD
ENDBRANCH  10  29
TORSDOF 8
ENDMDL
MODEL 7
REMARK VINA RESULT:      -7.3      2.800      4.920
REMARK  8 active torsions:
REMARK  status: ('A' for Active; 'I' for Inactive)
REMARK    1  A    between atoms: C2_2  and  C3_3 
REMARK    2  A    between atoms: C3_3  and  C4_4 
REMARK    3  A    between atoms: C4_4  and  C5_6 
REMARK    4  A    between atoms: C8_9  and  N1_10 
REMARK    5  A    between atoms: N1_10  and  C9_11 
REMARK    6  A    between atoms: C15_18  and  C16_19 
REMARK    7  A    between atoms: C16_19  and  N2_20 
REMARK    8  A    between atoms: C20_25  and  O2_26 
ROOT
HETATM    1  C5  UNL     1      26.155   2.193  51.800  1.00  0.00     0.044 A 
HETATM    2  C6  UNL     1      24.952   1.503  51.948  1.00  0.00     0.034 A 
HETATM    3  C7  UNL     1      24.725   0.636  52.989  1.00  0.00     0.021 A 
HETATM    4  C8  UNL     1      23.550  -0.065  53.170  1.00  0.00     0.054 A 
HETATM    5  C15 UNL     1      23.385  -0.921  54.241  1.00  0.00     0.015 A 
HETATM    6  C17 UNL     1      24.442  -1.056  55.135  1.00  0.00     0.128 A 
HETATM    7  N3  UNL     1      25.608  -0.384  54.990  1.00  0.00    -0.260 NA
HETATM    8  C18 UNL     1      25.721   0.442  53.925  1.00  0.00     0.071 A 
HETATM    9  C19 UNL     1      26.913   1.120  53.788  1.00  0.00     0.070 A 
HETATM   10  C20 UNL     1      27.139   1.989  52.742  1.00  0.00     0.081 A 
ENDROOT
BRANCH   4  11
HETATM   11  N1  UNL     1      22.505   0.101  52.240  1.00  0.00    -0.355 N 
HETATM   12  H9  UNL     1      22.308  -0.888  51.987  1.00  0.00     0.166 HD
BRANCH  11  13
HETATM   13  C9  UNL     1      21.813   1.202  51.700  1.00  0.00     0.033 A 
HETATM   14  C10 UNL     1      21.170   2.062  52.571  1.00  0.00     0.029 A 
HETATM   15  C11 UNL     1      20.510   3.122  51.973  1.00  0.00     0.004 A 
HETATM   16  C12 UNL     1      20.450   3.372  50.635  1.00  0.00     0.019 A 
HETATM   17  C13 UNL     1      21.115   2.477  49.796  1.00  0.00     0.013 A 
HETATM   18 BR1  UNL     1      21.074   2.762  47.922  1.00  0.00    -0.051 Br
HETATM   19  C14 UNL     1      21.799   1.386  50.342  1.00  0.00     0.048 A 
ENDBRANCH  11  13
ENDBRANCH   4  11
BRANCH   5  20
HETATM   20  C16 UNL     1      22.109  -1.667  54.414  1.00  0.00     0.309 C 
BRANCH  20  21
HETATM   21  N2  UNL     1      21.070  -0.794  54.964  1.00  0.00     0.082 N 
HETATM   22  H16 UNL     1      20.808  -0.053  54.273  1.00  0.00     0.313 HD
HETATM   23  H17 UNL     1      21.385  -0.379  55.871  1.00  0.00     0.313 HD
ENDBRANCH  20  21
ENDBRANCH   5  20
BRANCH   1  24
HETATM   24  C4  UNL     1      26.152   3.048  50.620  1.00  0.00     0.162 C 
HETATM   25  O1  UNL     1      27.129   3.494  49.976  1.00  0.00    -0.292 OA
BRANCH  24  26
HETATM   26  C3  UNL     1      24.854   3.492  50.042  1.00  0.00     0.084 C 
BRANCH  26  27
HETATM   27  C2  UNL     1      24.577   4.947  50.366  1.00  0.00     0.003 C 
HETATM   28  C1  UNL     1      23.659   5.078  51.547  1.00  0.00     0.005 C 
ENDBRANCH  26  27
ENDBRANCH  24  26
ENDBRANCH   1  24
BRANCH  10  29
HETATM   29  O2  UNL     1      28.291   2.723  52.501  1.00  0.00    -0.360 OA
HETATM   30  H20 UNL     1      28.548   3.004  51.564  1.00  0.00     0.217 HD
ENDBRANCH  10  29
TORSDOF 8
ENDMDL
MODEL 8
REMARK VINA RESULT:      -7.2      2.734      5.249
REMARK  8 active torsions:
REMARK  status: ('A' for Active; 'I' for Inactive)
REMARK    1  A    between atoms: C2_2  and  C3_3 
REMARK    2  A    between atoms: C3_3  and  C4_4 
REMARK    3  A    between atoms: C4_4  and  C5_6 
REMARK    4  A    between atoms: C8_9  and  N1_10 
REMARK    5  A    between atoms: N1_10  and  C9_11 
REMARK    6  A    between atoms: C15_18  and  C16_19 
REMARK    7  A    between atoms: C16_19  and  N2_20 
REMARK    8  A    between atoms: C20_25  and  O2_26 
ROOT
HETATM    1  C5  UNL     1      24.841  -0.033  53.437  1.00  0.00     0.044 A 
HETATM    2  C6  UNL     1      24.194   1.030  52.808  1.00  0.00     0.034 A 
HETATM    3  C7  UNL     1      24.846   1.887  51.955  1.00  0.00     0.021 A 
HETATM    4  C8  UNL     1      24.243   2.950  51.314  1.00  0.00     0.054 A 
HETATM    5  C15 UNL     1      24.957   3.774  50.467  1.00  0.00     0.015 A 
HETATM    6  C17 UNL     1      26.309   3.501  50.280  1.00  0.00     0.128 A 
HETATM    7  N3  UNL     1      26.934   2.468  50.891  1.00  0.00    -0.260 NA
HETATM    8  C18 UNL     1      26.191   1.689  51.711  1.00  0.00     0.071 A 
HETATM    9  C19 UNL     1      26.839   0.641  52.328  1.00  0.00     0.070 A 
HETATM   10  C20 UNL     1      26.182  -0.217  53.183  1.00  0.00     0.081 A 
ENDROOT
BRANCH   4  11
HETATM   11  N1  UNL     1      22.873   3.191  51.533  1.00  0.00    -0.355 N 
HETATM   12  H9  UNL     1      22.917   3.958  52.233  1.00  0.00     0.166 HD
BRANCH  11  13
HETATM   13  C9  UNL     1      21.671   2.649  51.037  1.00  0.00     0.033 A 
HETATM   14  C10 UNL     1      21.744   1.555  50.194  1.00  0.00     0.029 A 
HETATM   15  C11 UNL     1      20.527   1.075  49.745  1.00  0.00     0.004 A 
HETATM   16  C12 UNL     1      19.302   1.583  50.059  1.00  0.00     0.019 A 
HETATM   17  C13 UNL     1      19.279   2.687  50.914  1.00  0.00     0.013 A 
HETATM   18 BR1  UNL     1      17.610   3.447  51.395  1.00  0.00    -0.051 Br
HETATM   19  C14 UNL     1      20.478   3.218  51.400  1.00  0.00     0.048 A 
ENDBRANCH  11  13
ENDBRANCH   4  11
BRANCH   5  20
HETATM   20  C16 UNL     1      24.284   4.914  49.788  1.00  0.00     0.309 C 
BRANCH  20  21
HETATM   21  N2  UNL     1      24.548   6.169  50.495  1.00  0.00     0.082 N 
HETATM   22  H16 UNL     1      24.878   5.979  51.470  1.00  0.00     0.313 HD
HETATM   23  H17 UNL     1      23.697   6.776  50.489  1.00  0.00     0.313 HD
ENDBRANCH  20  21
ENDBRANCH   5  20
BRANCH   1  24
HETATM   24  C4  UNL     1      23.937  -0.793  54.289  1.00  0.00     0.162 C 
HETATM   25  O1  UNL     1      24.154  -1.278  55.424  1.00  0.00    -0.292 OA
BRANCH  24  26
HETATM   26  C3  UNL     1      22.552  -1.075  53.820  1.00  0.00     0.084 C 
BRANCH  26  27
HETATM   27  C2  UNL     1      21.522  -0.457  54.744  1.00  0.00     0.003 C 
HETATM   28  C1  UNL     1      20.622   0.489  54.002  1.00  0.00     0.005 C 
ENDBRANCH  26  27
ENDBRANCH  24  26
ENDBRANCH   1  24
BRANCH  10  29
HETATM   29  O2  UNL     1      26.726  -1.300  53.858  1.00  0.00    -0.360 OA
HETATM   30  H20 UNL     1      26.192  -2.146  54.010  1.00  0.00     0.217 HD
ENDBRANCH  10  29
TORSDOF 8
ENDMDL
MODEL 9
REMARK VINA RESULT:      -7.1      3.528      6.274
REMARK  8 active torsions:
REMARK  status: ('A' for Active; 'I' for Inactive)
REMARK    1  A    between atoms: C2_2  and  C3_3 
REMARK    2  A    between atoms: C3_3  and  C4_4 
REMARK    3  A    between atoms: C4_4  and  C5_6 
REMARK    4  A    between atoms: C8_9  and  N1_10 
REMARK    5  A    between atoms: N1_10  and  C9_11 
REMARK    6  A    between atoms: C15_18  and  C16_19 
REMARK    7  A    between atoms: C16_19  and  N2_20 
REMARK    8  A    between atoms: C20_25  and  O2_26 
ROOT
HETATM    1  C5  UNL     1      25.074   3.358  50.919  1.00  0.00     0.044 A 
HETATM    2  C6  UNL     1      24.131   2.629  51.642  1.00  0.00     0.034 A 
HETATM    3  C7  UNL     1      24.461   1.500  52.351  1.00  0.00     0.021 A 
HETATM    4  C8  UNL     1      23.558   0.751  53.079  1.00  0.00     0.054 A 
HETATM    5  C15 UNL     1      23.956  -0.375  53.771  1.00  0.00     0.015 A 
HETATM    6  C17 UNL     1      25.299  -0.734  53.714  1.00  0.00     0.128 A 
HETATM    7  N3  UNL     1      26.212  -0.024  53.012  1.00  0.00    -0.260 NA
HETATM    8  C18 UNL     1      25.773   1.071  52.350  1.00  0.00     0.071 A 
HETATM    9  C19 UNL     1      26.713   1.785  51.639  1.00  0.00     0.070 A 
HETATM   10  C20 UNL     1      26.379   2.918  50.928  1.00  0.00     0.081 A 
ENDROOT
BRANCH   4  11
HETATM   11  N1  UNL     1      22.207   1.149  53.109  1.00  0.00    -0.355 N 
HETATM   12  H9  UNL     1      22.222   1.834  53.891  1.00  0.00     0.166 HD
BRANCH  11  13
HETATM   13  C9  UNL     1      21.052   0.821  52.375  1.00  0.00     0.033 A 
HETATM   14  C10 UNL     1      20.976   1.226  51.055  1.00  0.00     0.029 A 
HETATM   15  C11 UNL     1      19.814   0.869  50.394  1.00  0.00     0.004 A 
HETATM   16  C12 UNL     1      18.773   0.172  50.929  1.00  0.00     0.019 A 
HETATM   17  C13 UNL     1      18.895  -0.216  52.265  1.00  0.00     0.013 A 
HETATM   18 BR1  UNL     1      17.485  -1.190  53.076  1.00  0.00    -0.051 Br
HETATM   19  C14 UNL     1      20.046   0.116  52.985  1.00  0.00     0.048 A 
ENDBRANCH  11  13
ENDBRANCH   4  11
BRANCH   5  20
HETATM   20  C16 UNL     1      22.963  -1.166  54.548  1.00  0.00     0.309 C 
BRANCH  20  21
HETATM   21  N2  UNL     1      23.521  -1.570  55.841  1.00  0.00     0.082 N 
HETATM   22  H16 UNL     1      24.385  -1.021  56.058  1.00  0.00     0.313 HD
HETATM   23  H17 UNL     1      23.708  -2.599  55.851  1.00  0.00     0.313 HD
ENDBRANCH  20  21
ENDBRANCH   5  20
BRANCH   1  24
HETATM   24  C4  UNL     1      24.479   4.510  50.254  1.00  0.00     0.162 C 
HETATM   25  O1  UNL     1      24.996   5.625  50.010  1.00  0.00    -0.292 OA
BRANCH  24  26
HETATM   26  C3  UNL     1      23.074   4.430  49.770  1.00  0.00     0.084 C 
BRANCH  26  27
HETATM   27  C2  UNL     1      22.207   5.491  50.418  1.00  0.00     0.003 C 
HETATM   28  C1  UNL     1      21.128   4.874  51.261  1.00  0.00     0.005 C 
ENDBRANCH  26  27
ENDBRANCH  24  26
ENDBRANCH   1  24
BRANCH  10  29
HETATM   29  O2  UNL     1      27.233   3.714  50.178  1.00  0.00    -0.360 OA
HETATM   30  H20 UNL     1      27.230   4.721  50.272  1.00  0.00     0.217 HD
ENDBRANCH  10  29
TORSDOF 8
ENDMDL
