MODEL 1
REMARK VINA RESULT:      -9.0      0.000      0.000
REMARK  3 active torsions:
REMARK  status: ('A' for Active; 'I' for Inactive)
REMARK    1  A    between atoms: O1_2  and  C2_3 
REMARK       I    between atoms: N1_5  and  C4_6 
REMARK    2  A    between atoms: C8_11  and  O3_12 
REMARK    3  A    between atoms: O3_12  and  C9_13 
ROOT
HETATM    1  C9  UNL     1      23.156   2.689  49.488  1.00  0.00     0.104 A 
HETATM    2  C10 UNL     1      22.668   1.997  50.706  1.00  0.00     0.078 A 
HETATM    3  N2  UNL     1      22.774   1.898  52.087  1.00  0.00    -0.384 N 
HETATM    4  C11 UNL     1      23.814   0.919  52.621  1.00  0.00     0.111 C 
HETATM    5  C12 UNL     1      24.757   0.962  52.297  1.00  0.00     0.087 C 
HETATM    6 CL1  UNL     1      26.262   1.291  51.545  1.00  0.00    -0.080 Cl
HETATM    7  C13 UNL     1      25.275  -0.072  53.496  1.00  0.00     0.139 C 
HETATM    8  F1  UNL     1      26.330  -0.538  54.285  1.00  0.00    -0.204 F 
HETATM    9  C14 UNL     1      24.031  -0.676  54.184  1.00  0.00     0.045 C 
HETATM   10  C15 UNL     1      22.772  -0.893  54.437  1.00  0.00     0.020 C 
HETATM   11  C16 UNL     1      21.349  -1.037  54.570  1.00  0.00     0.083 C 
HETATM   12  N3  UNL     1      20.740  -0.381  53.448  1.00  0.00    -0.398 N 
HETATM   13  C17 UNL     1      19.958   0.497  52.459  1.00  0.00     0.124 C 
HETATM   14  C18 UNL     1      20.750   0.175  51.063  1.00  0.00     0.017 C 
HETATM   15  C19 UNL     1      21.495   1.042  50.455  1.00  0.00     0.038 A 
HETATM   16  C20 UNL     1      22.477   2.001  49.541  1.00  0.00     0.036 A 
HETATM   17  C21 UNL     1      22.204   1.936  48.302  1.00  0.00     0.046 A 
HETATM   18  H15 UNL     1      22.043   2.678  52.191  1.00  0.00     0.160 HD
HETATM   19  H20 UNL     1      21.212  -1.186  52.846  1.00  0.00     0.158 HD
ENDROOT
BRANCH   1  20
HETATM   20  O3  UNL     1      24.022   3.717  48.798  1.00  0.00    -0.368 OA
BRANCH  20  21
HETATM   21  C8  UNL     1      24.971   4.450  49.602  1.00  0.00     0.154 C 
HETATM   22  C2  UNL     1      24.460   5.832  49.537  1.00  0.00     0.167 C 
HETATM   23  C3  UNL     1      25.642   6.729  50.084  1.00  0.00     0.160 C 
HETATM   24  N1  UNL     1      26.497   6.771  48.969  1.00  0.00    -0.350 N 
HETATM   25  C4  UNL     1      26.928   8.035  48.275  1.00  0.00     0.215 C 
HETATM   26  C6  UNL     1      27.093   5.496  48.671  1.00  0.00     0.128 C 
HETATM   27  C5  UNL     1      27.036   9.359  49.064  1.00  0.00     0.117 C 
HETATM   28  O2  UNL     1      27.118   7.749  47.091  1.00  0.00    -0.274 OA
HETATM   29  C7  UNL     1      26.435   4.398  49.452  1.00  0.00     0.054 C 
BRANCH  22  30
HETATM   30  O1  UNL     1      23.376   6.089  50.380  1.00  0.00    -0.386 OA
HETATM   31  C1  UNL     1      23.752   5.661  51.690  1.00  0.00     0.202 C 
ENDBRANCH  22  30
ENDBRANCH  20  21
ENDBRANCH   1  20
TORSDOF 3
ENDMDL
MODEL 2
REMARK VINA RESULT:      -8.7      3.975      7.203
REMARK  3 active torsions:
REMARK  status: ('A' for Active; 'I' for Inactive)
REMARK    1  A    between atoms: O1_2  and  C2_3 
REMARK       I    between atoms: N1_5  and  C4_6 
REMARK    2  A    between atoms: C8_11  and  O3_12 
REMARK    3  A    between atoms: O3_12  and  C9_13 
ROOT
HETATM    1  C9  UNL     1      21.734  -0.024  53.201  1.00  0.00     0.104 A 
HETATM    2  C10 UNL     1      23.108   0.523  53.319  1.00  0.00     0.078 A 
HETATM    3  N2  UNL     1      23.896   1.665  53.256  1.00  0.00    -0.384 N 
HETATM    4  C11 UNL     1      24.469   2.021  51.888  1.00  0.00     0.111 C 
HETATM    5  C12 UNL     1      23.869   2.083  51.094  1.00  0.00     0.087 C 
HETATM    6 CL1  UNL     1      22.594   2.100  49.947  1.00  0.00    -0.080 Cl
HETATM    7  C13 UNL     1      25.064   2.796  50.177  1.00  0.00     0.139 C 
HETATM    8  F1  UNL     1      25.399   3.596  49.082  1.00  0.00    -0.204 F 
HETATM    9  C14 UNL     1      26.396   2.689  50.953  1.00  0.00     0.045 C 
HETATM   10  C15 UNL     1      27.214   2.387  51.920  1.00  0.00     0.020 C 
HETATM   11  C16 UNL     1      27.980   1.962  53.057  1.00  0.00     0.083 C 
HETATM   12  N3  UNL     1      27.140   1.115  53.856  1.00  0.00    -0.398 N 
HETATM   13  C17 UNL     1      26.283   0.421  54.926  1.00  0.00     0.124 C 
HETATM   14  C18 UNL     1      25.421  -0.622  54.005  1.00  0.00     0.017 C 
HETATM   15  C19 UNL     1      24.149  -0.498  53.795  1.00  0.00     0.038 A 
HETATM   16  C20 UNL     1      22.544  -0.509  53.417  1.00  0.00     0.036 A 
HETATM   17  C21 UNL     1      22.022  -1.661  53.543  1.00  0.00     0.046 A 
HETATM   18  H15 UNL     1      23.690   1.854  54.292  1.00  0.00     0.160 HD
HETATM   19  H20 UNL     1      27.197   0.414  52.996  1.00  0.00     0.158 HD
ENDROOT
BRANCH   1  20
HETATM   20  O3  UNL     1      20.251   0.143  52.969  1.00  0.00    -0.368 OA
BRANCH  20  21
HETATM   21  C8  UNL     1      19.828   0.880  51.802  1.00  0.00     0.154 C 
HETATM   22  C2  UNL     1      19.342   2.150  52.372  1.00  0.00     0.167 C 
HETATM   23  C3  UNL     1      18.539   2.842  51.200  1.00  0.00     0.160 C 
HETATM   24  N1  UNL     1      17.331   2.125  51.230  1.00  0.00    -0.350 N 
HETATM   25  C4  UNL     1      15.977   2.747  51.447  1.00  0.00     0.215 C 
HETATM   26  C6  UNL     1      17.483   0.752  50.828  1.00  0.00     0.128 C 
HETATM   27  C5  UNL     1      15.709   4.202  51.000  1.00  0.00     0.117 C 
HETATM   28  O2  UNL     1      15.278   1.901  52.007  1.00  0.00    -0.274 OA
HETATM   29  C7  UNL     1      18.931   0.372  50.751  1.00  0.00     0.054 C 
BRANCH  22  30
HETATM   30  O1  UNL     1      20.351   3.054  52.718  1.00  0.00    -0.386 OA
HETATM   31  C1  UNL     1      20.380   4.058  51.702  1.00  0.00     0.202 C 
ENDBRANCH  22  30
ENDBRANCH  20  21
ENDBRANCH   1  20
TORSDOF 3
ENDMDL
MODEL 3
REMARK VINA RESULT:      -8.3      3.232      7.592
REMARK  3 active torsions:
REMARK  status: ('A' for Active; 'I' for Inactive)
REMARK    1  A    between atoms: O1_2  and  C2_3 
REMARK       I    between atoms: N1_5  and  C4_6 
REMARK    2  A    between atoms: C8_11  and  O3_12 
REMARK    3  A    between atoms: O3_12  and  C9_13 
ROOT
HETATM    1  C9  UNL     1      26.025   3.792  50.164  1.00  0.00     0.104 A 
HETATM    2  C10 UNL     1      25.142   4.982  50.122  1.00  0.00     0.078 A 
HETATM    3  N2  UNL     1      23.999   5.579  50.638  1.00  0.00    -0.384 N 
HETATM    4  C11 UNL     1      22.688   5.271  49.922  1.00  0.00     0.111 C 
HETATM    5  C12 UNL     1      22.423   4.326  49.746  1.00  0.00     0.087 C 
HETATM    6 CL1  UNL     1      22.263   2.625  49.593  1.00  0.00    -0.080 Cl
HETATM    7  C13 UNL     1      20.879   4.781  49.315  1.00  0.00     0.139 C 
HETATM    8  F1  UNL     1      19.536   4.425  49.169  1.00  0.00    -0.204 F 
HETATM    9  C14 UNL     1      20.851   6.319  49.174  1.00  0.00     0.045 C 
HETATM   10  C15 UNL     1      21.289   7.545  49.187  1.00  0.00     0.020 C 
HETATM   11  C16 UNL     1      21.934   8.827  49.224  1.00  0.00     0.083 C 
HETATM   12  N3  UNL     1      23.345   8.599  49.358  1.00  0.00    -0.398 N 
HETATM   13  C17 UNL     1      24.825   8.510  49.763  1.00  0.00     0.124 C 
HETATM   14  C18 UNL     1      25.338   7.292  48.797  1.00  0.00     0.017 C 
HETATM   15  C19 UNL     1      25.672   6.124  49.246  1.00  0.00     0.038 A 
HETATM   16  C20 UNL     1      26.136   4.587  49.624  1.00  0.00     0.036 A 
HETATM   17  C21 UNL     1      27.210   4.245  49.037  1.00  0.00     0.046 A 
HETATM   18  H15 UNL     1      24.586   5.995  51.435  1.00  0.00     0.160 HD
HETATM   19  H20 UNL     1      23.274   8.169  48.337  1.00  0.00     0.158 HD
ENDROOT
BRANCH   1  20
HETATM   20  O3  UNL     1      26.407   2.436  50.711  1.00  0.00    -0.368 OA
BRANCH  20  21
HETATM   21  C8  UNL     1      26.002   2.113  52.059  1.00  0.00     0.154 C 
HETATM   22  C2  UNL     1      25.747   0.662  51.987  1.00  0.00     0.167 C 
HETATM   23  C3  UNL     1      24.961   0.320  53.315  1.00  0.00     0.160 C 
HETATM   24  N1  UNL     1      23.669   0.774  52.997  1.00  0.00    -0.350 N 
HETATM   25  C4  UNL     1      22.438  -0.093  52.997  1.00  0.00     0.215 C 
HETATM   26  C6  UNL     1      23.593   2.205  52.867  1.00  0.00     0.128 C 
HETATM   27  C5  UNL     1      22.345  -1.311  53.943  1.00  0.00     0.117 C 
HETATM   28  O2  UNL     1      21.672   0.370  52.150  1.00  0.00    -0.274 OA
HETATM   29  C7  UNL     1      24.961   2.815  52.829  1.00  0.00     0.054 C 
BRANCH  22  30
HETATM   30  O1  UNL     1      26.898  -0.131  52.021  1.00  0.00    -0.386 OA
HETATM   31  C1  UNL     1      26.564  -1.325  52.732  1.00  0.00     0.202 C 
ENDBRANCH  22  30
ENDBRANCH  20  21
ENDBRANCH   1  20
TORSDOF 3
ENDMDL
MODEL 4
REMARK VINA RESULT:      -8.2      1.581      1.935
REMARK  3 active torsions:
REMARK  status: ('A' for Active; 'I' for Inactive)
REMARK    1  A    between atoms: O1_2  and  C2_3 
REMARK       I    between atoms: N1_5  and  C4_6 
REMARK    2  A    between atoms: C8_11  and  O3_12 
REMARK    3  A    between atoms: O3_12  and  C9_13 
ROOT
HETATM    1  C9  UNL     1      23.103   2.655  50.097  1.00  0.00     0.104 A 
HETATM    2  C10 UNL     1      22.968   1.897  51.364  1.00  0.00     0.078 A 
HETATM    3  N2  UNL     1      23.380   1.793  52.687  1.00  0.00    -0.384 N 
HETATM    4  C11 UNL     1      24.611   0.930  52.950  1.00  0.00     0.111 C 
HETATM    5  C12 UNL     1      25.450   1.085  52.434  1.00  0.00     0.087 C 
HETATM    6 CL1  UNL     1      26.713   1.591  51.390  1.00  0.00    -0.080 Cl
HETATM    7  C13 UNL     1      26.324   0.100  53.456  1.00  0.00     0.139 C 
HETATM    8  F1  UNL     1      27.568  -0.254  53.983  1.00  0.00    -0.204 F 
HETATM    9  C14 UNL     1      25.330  -0.649  54.371  1.00  0.00     0.045 C 
HETATM   10  C15 UNL     1      24.187  -1.010  54.879  1.00  0.00     0.020 C 
HETATM   11  C16 UNL     1      22.851  -1.316  55.307  1.00  0.00     0.083 C 
HETATM   12  N3  UNL     1      21.946  -0.719  54.366  1.00  0.00    -0.398 N 
HETATM   13  C17 UNL     1      20.878   0.078  53.600  1.00  0.00     0.124 C 
HETATM   14  C18 UNL     1      21.380  -0.135  52.056  1.00  0.00     0.017 C 
HETATM   15  C19 UNL     1      21.878   0.818  51.335  1.00  0.00     0.038 A 
HETATM   16  C20 UNL     1      22.530   1.894  50.269  1.00  0.00     0.036 A 
HETATM   17  C21 UNL     1      22.004   1.815  49.115  1.00  0.00     0.046 A 
HETATM   18  H15 UNL     1      22.609   2.483  52.973  1.00  0.00     0.160 HD
HETATM   19  H20 UNL     1      22.361  -1.458  53.647  1.00  0.00     0.158 HD
ENDROOT
BRANCH   1  20
HETATM   20  O3  UNL     1      23.683   3.783  49.277  1.00  0.00    -0.368 OA
BRANCH  20  21
HETATM   21  C8  UNL     1      23.237   5.126  49.562  1.00  0.00     0.154 C 
HETATM   22  C2  UNL     1      23.724   5.889  48.398  1.00  0.00     0.167 C 
HETATM   23  C3  UNL     1      23.589   7.407  48.820  1.00  0.00     0.160 C 
HETATM   24  N1  UNL     1      24.709   7.563  49.655  1.00  0.00    -0.350 N 
HETATM   25  C4  UNL     1      25.814   8.559  49.420  1.00  0.00     0.215 C 
HETATM   26  C6  UNL     1      24.605   6.816  50.880  1.00  0.00     0.128 C 
HETATM   27  C5  UNL     1      25.520   9.888  48.688  1.00  0.00     0.117 C 
HETATM   28  O2  UNL     1      26.844   8.071  49.889  1.00  0.00    -0.274 OA
HETATM   29  C7  UNL     1      23.460   5.849  50.825  1.00  0.00     0.054 C 
BRANCH  22  30
HETATM   30  O1  UNL     1      22.943   5.752  47.247  1.00  0.00    -0.386 OA
HETATM   31  C1  UNL     1      21.622   6.182  47.581  1.00  0.00     0.202 C 
ENDBRANCH  22  30
ENDBRANCH  20  21
ENDBRANCH   1  20
TORSDOF 3
ENDMDL
MODEL 5
REMARK VINA RESULT:      -8.1      3.469      7.946
REMARK  3 active torsions:
REMARK  status: ('A' for Active; 'I' for Inactive)
REMARK    1  A    between atoms: O1_2  and  C2_3 
REMARK       I    between atoms: N1_5  and  C4_6 
REMARK    2  A    between atoms: C8_11  and  O3_12 
REMARK    3  A    between atoms: O3_12  and  C9_13 
ROOT
HETATM    1  C9  UNL     1      24.613   2.191  51.207  1.00  0.00     0.104 A 
HETATM    2  C10 UNL     1      24.362   3.438  50.445  1.00  0.00     0.078 A 
HETATM    3  N2  UNL     1      23.398   4.324  49.982  1.00  0.00    -0.384 N 
HETATM    4  C11 UNL     1      22.801   4.024  48.610  1.00  0.00     0.111 C 
HETATM    5  C12 UNL     1      22.430   3.120  48.412  1.00  0.00     0.087 C 
HETATM    6 CL1  UNL     1      21.892   1.492  48.387  1.00  0.00    -0.080 Cl
HETATM    7  C13 UNL     1      21.720   3.659  47.005  1.00  0.00     0.139 C 
HETATM    8  F1  UNL     1      20.731   3.484  46.033  1.00  0.00    -0.204 F 
HETATM    9  C14 UNL     1      22.255   5.077  46.706  1.00  0.00     0.045 C 
HETATM   10  C15 UNL     1      22.938   6.174  46.871  1.00  0.00     0.020 C 
HETATM   11  C16 UNL     1      23.772   7.300  47.186  1.00  0.00     0.083 C 
HETATM   12  N3  UNL     1      24.639   6.910  48.262  1.00  0.00    -0.398 N 
HETATM   13  C17 UNL     1      25.430   6.718  49.565  1.00  0.00     0.124 C 
HETATM   14  C18 UNL     1      26.030   5.211  49.346  1.00  0.00     0.017 C 
HETATM   15  C19 UNL     1      25.637   4.185  50.031  1.00  0.00     0.038 A 
HETATM   16  C20 UNL     1      25.270   2.771  50.797  1.00  0.00     0.036 A 
HETATM   17  C21 UNL     1      26.306   2.116  51.131  1.00  0.00     0.046 A 
HETATM   18  H15 UNL     1      23.455   4.858  50.912  1.00  0.00     0.160 HD
HETATM   19  H20 UNL     1      25.090   6.219  47.517  1.00  0.00     0.158 HD
ENDROOT
BRANCH   1  20
HETATM   20  O3  UNL     1      24.136   1.009  52.018  1.00  0.00    -0.368 OA
BRANCH  20  21
HETATM   21  C8  UNL     1      22.938   1.170  52.807  1.00  0.00     0.154 C 
HETATM   22  C2  UNL     1      22.270  -0.137  52.662  1.00  0.00     0.167 C 
HETATM   23  C3  UNL     1      20.799   0.096  53.193  1.00  0.00     0.160 C 
HETATM   24  N1  UNL     1      20.211   0.753  52.098  1.00  0.00    -0.350 N 
HETATM   25  C4  UNL     1      19.003   0.250  51.353  1.00  0.00     0.215 C 
HETATM   26  C6  UNL     1      20.749   2.069  51.878  1.00  0.00     0.128 C 
HETATM   27  C5  UNL     1      17.942  -0.607  52.079  1.00  0.00     0.117 C 
HETATM   28  O2  UNL     1      19.109   0.644  50.189  1.00  0.00    -0.274 OA
HETATM   29  C7  UNL     1      21.986   2.288  52.695  1.00  0.00     0.054 C 
BRANCH  22  30
HETATM   30  O1  UNL     1      22.799  -1.151  53.465  1.00  0.00    -0.386 OA
HETATM   31  C1  UNL     1      21.845  -1.412  54.496  1.00  0.00     0.202 C 
ENDBRANCH  22  30
ENDBRANCH  20  21
ENDBRANCH   1  20
TORSDOF 3
ENDMDL
MODEL 6
REMARK VINA RESULT:      -8.0      1.967      2.340
REMARK  3 active torsions:
REMARK  status: ('A' for Active; 'I' for Inactive)
REMARK    1  A    between atoms: O1_2  and  C2_3 
REMARK       I    between atoms: N1_5  and  C4_6 
REMARK    2  A    between atoms: C8_11  and  O3_12 
REMARK    3  A    between atoms: O3_12  and  C9_13 
ROOT
HETATM    1  C9  UNL     1      22.601   2.096  50.191  1.00  0.00     0.104 A 
HETATM    2  C10 UNL     1      22.727   1.451  51.521  1.00  0.00     0.078 A 
HETATM    3  N2  UNL     1      23.313   1.521  52.778  1.00  0.00    -0.384 N 
HETATM    4  C11 UNL     1      24.668   0.838  52.936  1.00  0.00     0.111 C 
HETATM    5  C12 UNL     1      25.408   1.039  52.299  1.00  0.00     0.087 C 
HETATM    6 CL1  UNL     1      26.453   1.589  51.055  1.00  0.00    -0.080 Cl
HETATM    7  C13 UNL     1      26.523   0.265  53.265  1.00  0.00     0.139 C 
HETATM    8  F1  UNL     1      27.860   0.111  53.642  1.00  0.00    -0.204 F 
HETATM    9  C14 UNL     1      25.759  -0.505  54.364  1.00  0.00     0.045 C 
HETATM   10  C15 UNL     1      24.745  -0.948  55.050  1.00  0.00     0.020 C 
HETATM   11  C16 UNL     1      23.524  -1.367  55.681  1.00  0.00     0.083 C 
HETATM   12  N3  UNL     1      22.438  -0.972  54.829  1.00  0.00    -0.398 N 
HETATM   13  C17 UNL     1      21.189  -0.381  54.158  1.00  0.00     0.124 C 
HETATM   14  C18 UNL     1      21.514  -0.679  52.581  1.00  0.00     0.017 C 
HETATM   15  C19 UNL     1      21.789   0.253  51.726  1.00  0.00     0.038 A 
HETATM   16  C20 UNL     1      22.157   1.293  50.499  1.00  0.00     0.036 A 
HETATM   17  C21 UNL     1      21.504   1.044  49.438  1.00  0.00     0.046 A 
HETATM   18  H15 UNL     1      22.502   2.140  53.112  1.00  0.00     0.160 HD
HETATM   19  H20 UNL     1      22.850  -1.721  54.121  1.00  0.00     0.158 HD
ENDROOT
BRANCH   1  20
HETATM   20  O3  UNL     1      22.923   3.201  49.213  1.00  0.00    -0.368 OA
BRANCH  20  21
HETATM   21  C8  UNL     1      23.410   4.453  49.744  1.00  0.00     0.154 C 
HETATM   22  C2  UNL     1      22.190   5.278  49.813  1.00  0.00     0.167 C 
HETATM   23  C3  UNL     1      22.710   6.755  50.035  1.00  0.00     0.160 C 
HETATM   24  N1  UNL     1      23.122   7.102  48.737  1.00  0.00    -0.350 N 
HETATM   25  C4  UNL     1      22.578   8.268  47.954  1.00  0.00     0.215 C 
HETATM   26  C6  UNL     1      24.270   6.357  48.295  1.00  0.00     0.128 C 
HETATM   27  C5  UNL     1      22.057   9.523  48.689  1.00  0.00     0.117 C 
HETATM   28  O2  UNL     1      22.644   7.962  46.762  1.00  0.00    -0.274 OA
HETATM   29  C7  UNL     1      24.558   5.212  49.219  1.00  0.00     0.054 C 
BRANCH  22  30
HETATM   30  O1  UNL     1      21.366   5.004  50.908  1.00  0.00    -0.386 OA
HETATM   31  C1  UNL     1      22.176   5.115  52.081  1.00  0.00     0.202 C 
ENDBRANCH  22  30
ENDBRANCH  20  21
ENDBRANCH   1  20
TORSDOF 3
ENDMDL
MODEL 7
REMARK VINA RESULT:      -7.8      1.990      3.001
REMARK  3 active torsions:
REMARK  status: ('A' for Active; 'I' for Inactive)
REMARK    1  A    between atoms: O1_2  and  C2_3 
REMARK       I    between atoms: N1_5  and  C4_6 
REMARK    2  A    between atoms: C8_11  and  O3_12 
REMARK    3  A    between atoms: O3_12  and  C9_13 
ROOT
HETATM    1  C9  UNL     1      23.477   3.084  49.448  1.00  0.00     0.104 A 
HETATM    2  C10 UNL     1      22.681   2.387  50.487  1.00  0.00     0.078 A 
HETATM    3  N2  UNL     1      22.493   2.195  51.850  1.00  0.00    -0.384 N 
HETATM    4  C11 UNL     1      23.292   1.067  52.495  1.00  0.00     0.111 C 
HETATM    5  C12 UNL     1      24.280   1.015  52.365  1.00  0.00     0.087 C 
HETATM    6 CL1  UNL     1      25.933   1.202  51.950  1.00  0.00    -0.080 Cl
HETATM    7  C13 UNL     1      24.430  -0.142  53.554  1.00  0.00     0.139 C 
HETATM    8  F1  UNL     1      25.247  -0.778  54.493  1.00  0.00    -0.204 F 
HETATM    9  C14 UNL     1      23.014  -0.630  53.935  1.00  0.00     0.045 C 
HETATM   10  C15 UNL     1      21.714  -0.707  53.919  1.00  0.00     0.020 C 
HETATM   11  C16 UNL     1      20.288  -0.686  53.760  1.00  0.00     0.083 C 
HETATM   12  N3  UNL     1      19.993   0.104  52.597  1.00  0.00    -0.398 N 
HETATM   13  C17 UNL     1      19.526   1.127  51.550  1.00  0.00     0.124 C 
HETATM   14  C18 UNL     1      20.546   0.792  50.314  1.00  0.00     0.017 C 
HETATM   15  C19 UNL     1      21.487   1.597  49.935  1.00  0.00     0.038 A 
HETATM   16  C20 UNL     1      22.732   2.482  49.312  1.00  0.00     0.036 A 
HETATM   17  C21 UNL     1      22.711   2.523  48.042  1.00  0.00     0.046 A 
HETATM   18  H15 UNL     1      21.844   3.050  51.872  1.00  0.00     0.160 HD
HETATM   19  H20 UNL     1      20.488  -0.716  52.036  1.00  0.00     0.158 HD
ENDROOT
BRANCH   1  20
HETATM   20  O3  UNL     1      24.570   4.038  49.026  1.00  0.00    -0.368 OA
BRANCH  20  21
HETATM   21  C8  UNL     1      24.201   5.403  48.732  1.00  0.00     0.154 C 
HETATM   22  C2  UNL     1      23.633   5.872  50.010  1.00  0.00     0.167 C 
HETATM   23  C3  UNL     1      22.887   7.219  49.653  1.00  0.00     0.160 C 
HETATM   24  N1  UNL     1      21.705   6.735  49.066  1.00  0.00    -0.350 N 
HETATM   25  C4  UNL     1      20.319   7.038  49.569  1.00  0.00     0.215 C 
HETATM   26  C6  UNL     1      21.932   6.080  47.805  1.00  0.00     0.128 C 
HETATM   27  C5  UNL     1      20.030   8.368  50.300  1.00  0.00     0.117 C 
HETATM   28  O2  UNL     1      19.614   6.068  49.287  1.00  0.00    -0.274 OA
HETATM   29  C7  UNL     1      23.395   5.839  47.580  1.00  0.00     0.054 C 
BRANCH  22  30
HETATM   30  O1  UNL     1      24.584   6.217  50.975  1.00  0.00    -0.386 OA
HETATM   31  C1  UNL     1      25.415   7.229  50.403  1.00  0.00     0.202 C 
ENDBRANCH  22  30
ENDBRANCH  20  21
ENDBRANCH   1  20
TORSDOF 3
ENDMDL
MODEL 8
REMARK VINA RESULT:      -7.8      1.449      2.276
REMARK  3 active torsions:
REMARK  status: ('A' for Active; 'I' for Inactive)
REMARK    1  A    between atoms: O1_2  and  C2_3 
REMARK       I    between atoms: N1_5  and  C4_6 
REMARK    2  A    between atoms: C8_11  and  O3_12 
REMARK    3  A    between atoms: O3_12  and  C9_13 
ROOT
HETATM    1  C9  UNL     1      24.356   3.470  50.367  1.00  0.00     0.104 A 
HETATM    2  C10 UNL     1      23.395   2.668  51.163  1.00  0.00     0.078 A 
HETATM    3  N2  UNL     1      22.995   2.295  52.440  1.00  0.00    -0.384 N 
HETATM    4  C11 UNL     1      23.660   1.053  53.025  1.00  0.00     0.111 C 
HETATM    5  C12 UNL     1      24.654   0.976  53.038  1.00  0.00     0.087 C 
HETATM    6 CL1  UNL     1      26.355   1.146  52.906  1.00  0.00    -0.080 Cl
HETATM    7  C13 UNL     1      24.594  -0.343  54.054  1.00  0.00     0.139 C 
HETATM    8  F1  UNL     1      25.242  -1.140  55.001  1.00  0.00    -0.204 F 
HETATM    9  C14 UNL     1      23.126  -0.817  54.144  1.00  0.00     0.045 C 
HETATM   10  C15 UNL     1      21.843  -0.833  53.923  1.00  0.00     0.020 C 
HETATM   11  C16 UNL     1      20.458  -0.727  53.558  1.00  0.00     0.083 C 
HETATM   12  N3  UNL     1      20.363   0.231  52.493  1.00  0.00    -0.398 N 
HETATM   13  C17 UNL     1      20.086   1.411  51.548  1.00  0.00     0.124 C 
HETATM   14  C18 UNL     1      21.277   1.210  50.442  1.00  0.00     0.017 C 
HETATM   15  C19 UNL     1      22.283   2.017  50.330  1.00  0.00     0.038 A 
HETATM   16  C20 UNL     1      23.627   2.926  50.035  1.00  0.00     0.036 A 
HETATM   17  C21 UNL     1      23.803   3.146  48.796  1.00  0.00     0.046 A 
HETATM   18  H15 UNL     1      22.369   3.166  52.489  1.00  0.00     0.160 HD
HETATM   19  H20 UNL     1      20.921  -0.522  51.897  1.00  0.00     0.158 HD
ENDROOT
BRANCH   1  20
HETATM   20  O3  UNL     1      25.522   4.424  50.257  1.00  0.00    -0.368 OA
BRANCH  20  21
HETATM   21  C8  UNL     1      25.482   5.422  49.214  1.00  0.00     0.154 C 
HETATM   22  C2  UNL     1      26.902   5.791  49.058  1.00  0.00     0.167 C 
HETATM   23  C3  UNL     1      26.884   7.121  48.204  1.00  0.00     0.160 C 
HETATM   24  N1  UNL     1      26.528   8.071  49.177  1.00  0.00    -0.350 N 
HETATM   25  C4  UNL     1      27.364   9.268  49.545  1.00  0.00     0.215 C 
HETATM   26  C6  UNL     1      25.181   7.908  49.654  1.00  0.00     0.128 C 
HETATM   27  C5  UNL     1      28.293   9.919  48.496  1.00  0.00     0.117 C 
HETATM   28  O2  UNL     1      27.137   9.515  50.731  1.00  0.00    -0.274 OA
HETATM   29  C7  UNL     1      24.603   6.603  49.196  1.00  0.00     0.054 C 
BRANCH  22  30
HETATM   30  O1  UNL     1      27.659   4.881  48.316  1.00  0.00    -0.386 OA
HETATM   31  C1  UNL     1      28.995   5.386  48.271  1.00  0.00     0.202 C 
ENDBRANCH  22  30
ENDBRANCH  20  21
ENDBRANCH   1  20
TORSDOF 3
ENDMDL
MODEL 9
REMARK VINA RESULT:      -7.7      7.179      9.773
REMARK  3 active torsions:
REMARK  status: ('A' for Active; 'I' for Inactive)
REMARK    1  A    between atoms: O1_2  and  C2_3 
REMARK       I    between atoms: N1_5  and  C4_6 
REMARK    2  A    between atoms: C8_11  and  O3_12 
REMARK    3  A    between atoms: O3_12  and  C9_13 
ROOT
HETATM    1  C9  UNL     1      27.638   6.411  48.273  1.00  0.00     0.104 A 
HETATM    2  C10 UNL     1      29.060   6.748  48.020  1.00  0.00     0.078 A 
HETATM    3  N2  UNL     1      29.964   7.764  47.736  1.00  0.00    -0.384 N 
HETATM    4  C11 UNL     1      30.208   8.066  46.261  1.00  0.00     0.111 C 
HETATM    5  C12 UNL     1      29.438   8.234  45.650  1.00  0.00     0.087 C 
HETATM    6 CL1  UNL     1      27.925   8.466  44.876  1.00  0.00    -0.080 Cl
HETATM    7  C13 UNL     1      30.445   8.786  44.444  1.00  0.00     0.139 C 
HETATM    8  F1  UNL     1      30.598   9.556  43.287  1.00  0.00    -0.204 F 
HETATM    9  C14 UNL     1      31.902   8.467  44.846  1.00  0.00     0.045 C 
HETATM   10  C15 UNL     1      32.889   8.024  45.571  1.00  0.00     0.020 C 
HETATM   11  C16 UNL     1      33.854   7.465  46.475  1.00  0.00     0.083 C 
HETATM   12  N3  UNL     1      33.135   6.731  47.478  1.00  0.00    -0.398 N 
HETATM   13  C17 UNL     1      32.493   6.144  48.744  1.00  0.00     0.124 C 
HETATM   14  C18 UNL     1      31.276   5.260  48.095  1.00  0.00     0.017 C 
HETATM   15  C19 UNL     1      30.027   5.575  48.223  1.00  0.00     0.038 A 
HETATM   16  C20 UNL     1      28.395   5.808  48.277  1.00  0.00     0.036 A 
HETATM   17  C21 UNL     1      27.760   4.742  48.552  1.00  0.00     0.046 A 
HETATM   18  H15 UNL     1      30.066   7.955  48.788  1.00  0.00     0.160 HD
HETATM   19  H20 UNL     1      32.862   6.050  46.644  1.00  0.00     0.158 HD
ENDROOT
BRANCH   1  20
HETATM   20  O3  UNL     1      26.187   6.799  48.433  1.00  0.00    -0.368 OA
BRANCH  20  21
HETATM   21  C8  UNL     1      25.892   8.081  49.030  1.00  0.00     0.154 C 
HETATM   22  C2  UNL     1      26.127   9.023  47.919  1.00  0.00     0.167 C 
HETATM   23  C3  UNL     1      26.176  10.449  48.599  1.00  0.00     0.160 C 
HETATM   24  N1  UNL     1      27.470  10.450  49.149  1.00  0.00    -0.350 N 
HETATM   25  C4  UNL     1      28.536  11.459  48.814  1.00  0.00     0.215 C 
HETATM   26  C6  UNL     1      27.622   9.509  50.227  1.00  0.00     0.128 C 
HETATM   27  C5  UNL     1      28.146  12.894  48.398  1.00  0.00     0.117 C 
HETATM   28  O2  UNL     1      29.622  10.887  48.933  1.00  0.00    -0.274 OA
HETATM   29  C7  UNL     1      26.448   8.580  50.299  1.00  0.00     0.054 C 
BRANCH  22  30
HETATM   30  O1  UNL     1      25.088   9.090  46.987  1.00  0.00    -0.386 OA
HETATM   31  C1  UNL     1      23.968   9.681  47.648  1.00  0.00     0.202 C 
ENDBRANCH  22  30
ENDBRANCH  20  21
ENDBRANCH   1  20
TORSDOF 3
ENDMDL
