MODEL 1
REMARK VINA RESULT:      -7.2      0.000      0.000
REMARK  6 active torsions:
REMARK  status: ('A' for Active; 'I' for Inactive)
REMARK    1  A    between atoms: C2_2  and  N1_3 
REMARK    2  A    between atoms: C5_7  and  N3_8 
REMARK    3  A    between atoms: N3_8  and  C6_9 
REMARK    4  A    between atoms: C12_17  and  O1_18 
REMARK    5  A    between atoms: O1_18  and  C13_19 
REMARK    6  A    between atoms: C13_19  and  P1_20 
ROOT
HETATM    1  N1  UNL     1      28.008   0.644  53.867  1.00  0.00    -0.324 N 
HETATM    2  C3  UNL     1      27.285   0.215  54.916  1.00  0.00     0.212 A 
HETATM    3  N2  UNL     1      25.963   0.484  54.703  1.00  0.00    -0.236 NA
HETATM    4  C4  UNL     1      25.844   1.096  53.494  1.00  0.00     0.150 A 
HETATM    5  C5  UNL     1      24.786   1.591  52.758  1.00  0.00     0.165 A 
HETATM    6  N4  UNL     1      25.074   2.150  51.558  1.00  0.00    -0.187 NA
HETATM    7  C12 UNL     1      26.323   2.240  51.064  1.00  0.00     0.272 A 
HETATM    8  N5  UNL     1      27.335   1.751  51.800  1.00  0.00    -0.186 NA
HETATM    9  C15 UNL     1      27.137   1.183  52.993  1.00  0.00     0.168 A 
ENDROOT
BRANCH   5  10
HETATM   10  N3  UNL     1      23.462   1.497  53.262  1.00  0.00    -0.339 N 
HETATM   11  H7  UNL     1      23.392   2.500  53.532  1.00  0.00     0.167 HD
BRANCH  10  12
HETATM   12  C6  UNL     1      22.447   0.541  53.438  1.00  0.00     0.035 A 
HETATM   13  C7  UNL     1      22.723  -0.501  54.294  1.00  0.00     0.029 A 
HETATM   14  C8  UNL     1      21.733  -1.433  54.474  1.00  0.00     0.004 A 
HETATM   15  C9  UNL     1      20.518  -1.295  53.802  1.00  0.00     0.024 A 
HETATM   16  C10 UNL     1      20.261  -0.251  52.953  1.00  0.00     0.036 A 
HETATM   17 CL1  UNL     1      18.704  -0.204  52.183  1.00  0.00    -0.084 Cl
HETATM   18  C11 UNL     1      21.257   0.702  52.761  1.00  0.00     0.053 A 
ENDBRANCH  10  12
ENDBRANCH   5  10
BRANCH   7  19
HETATM   19  O1  UNL     1      26.395   2.846  49.819  1.00  0.00    -0.315 OA
BRANCH  19  20
HETATM   20  C13 UNL     1      26.687   4.206  49.614  1.00  0.00     0.209 C 
BRANCH  20  21
HETATM   21  P1  UNL     1      25.158   5.204  49.293  1.00  0.00    -0.107 P 
HETATM   22  C14 UNL     1      24.314   5.693  50.875  1.00  0.00     0.043 C 
HETATM   23  H14 UNL     1      25.377   6.326  48.432  1.00  0.00     0.059 HD
ENDBRANCH  20  21
ENDBRANCH  19  20
ENDBRANCH   7  19
BRANCH   1  24
HETATM   24  C2  UNL     1      29.451   0.578  53.643  1.00  0.00     0.127 C 
HETATM   25  C1  UNL     1      29.910  -0.847  53.496  1.00  0.00     0.027 C 
ENDBRANCH   1  24
TORSDOF 6
ENDMDL
MODEL 2
REMARK VINA RESULT:      -7.1      3.053      6.227
REMARK  6 active torsions:
REMARK  status: ('A' for Active; 'I' for Inactive)
REMARK    1  A    between atoms: C2_2  and  N1_3 
REMARK    2  A    between atoms: C5_7  and  N3_8 
REMARK    3  A    between atoms: N3_8  and  C6_9 
REMARK    4  A    between atoms: C12_17  and  O1_18 
REMARK    5  A    between atoms: O1_18  and  C13_19 
REMARK    6  A    between atoms: C13_19  and  P1_20 
ROOT
HETATM    1  N1  UNL     1      20.652  -0.571  53.315  1.00  0.00    -0.324 N 
HETATM    2  C3  UNL     1      21.056  -1.437  54.261  1.00  0.00     0.212 A 
HETATM    3  N2  UNL     1      22.416  -1.387  54.380  1.00  0.00    -0.236 NA
HETATM    4  C4  UNL     1      22.885  -0.469  53.491  1.00  0.00     0.150 A 
HETATM    5  C5  UNL     1      24.138   0.006  53.160  1.00  0.00     0.165 A 
HETATM    6  N4  UNL     1      24.206   0.951  52.191  1.00  0.00    -0.187 NA
HETATM    7  C12 UNL     1      23.124   1.436  51.553  1.00  0.00     0.272 A 
HETATM    8  N5  UNL     1      21.916   0.957  51.895  1.00  0.00    -0.186 NA
HETATM    9  C15 UNL     1      21.762   0.026  52.840  1.00  0.00     0.168 A 
ENDROOT
BRANCH   5  10
HETATM   10  N3  UNL     1      25.288  -0.491  53.828  1.00  0.00    -0.339 N 
HETATM   11  H7  UNL     1      24.757  -1.053  54.525  1.00  0.00     0.167 HD
BRANCH  10  12
HETATM   12  C6  UNL     1      26.689  -0.402  53.762  1.00  0.00     0.035 A 
HETATM   13  C7  UNL     1      27.349  -1.472  53.200  1.00  0.00     0.029 A 
HETATM   14  C8  UNL     1      28.716  -1.387  53.127  1.00  0.00     0.004 A 
HETATM   15  C9  UNL     1      29.369  -0.253  53.612  1.00  0.00     0.024 A 
HETATM   16  C10 UNL     1      28.695   0.802  54.169  1.00  0.00     0.036 A 
HETATM   17 CL1  UNL     1      29.637   2.151  54.730  1.00  0.00    -0.084 Cl
HETATM   18  C11 UNL     1      27.308   0.729  54.249  1.00  0.00     0.053 A 
ENDBRANCH  10  12
ENDBRANCH   5  10
BRANCH   7  19
HETATM   19  O1  UNL     1      23.417   2.397  50.598  1.00  0.00    -0.315 OA
BRANCH  19  20
HETATM   20  C13 UNL     1      24.313   3.463  50.793  1.00  0.00     0.209 C 
BRANCH  20  21
HETATM   21  P1  UNL     1      23.531   4.867  51.718  1.00  0.00    -0.107 P 
HETATM   22  C14 UNL     1      24.066   6.514  51.046  1.00  0.00     0.043 C 
HETATM   23  H14 UNL     1      22.107   4.763  51.817  1.00  0.00     0.059 HD
ENDBRANCH  20  21
ENDBRANCH  19  20
ENDBRANCH   7  19
BRANCH   1  24
HETATM   24  C2  UNL     1      19.302  -0.277  52.839  1.00  0.00     0.127 C 
HETATM   25  C1  UNL     1      18.333  -1.342  53.271  1.00  0.00     0.027 C 
ENDBRANCH   1  24
TORSDOF 6
ENDMDL
MODEL 3
REMARK VINA RESULT:      -7.1      3.391      6.872
REMARK  6 active torsions:
REMARK  status: ('A' for Active; 'I' for Inactive)
REMARK    1  A    between atoms: C2_2  and  N1_3 
REMARK    2  A    between atoms: C5_7  and  N3_8 
REMARK    3  A    between atoms: N3_8  and  C6_9 
REMARK    4  A    between atoms: C12_17  and  O1_18 
REMARK    5  A    between atoms: O1_18  and  C13_19 
REMARK    6  A    between atoms: C13_19  and  P1_20 
ROOT
HETATM    1  N1  UNL     1      21.662   0.676  53.555  1.00  0.00    -0.324 N 
HETATM    2  C3  UNL     1      20.906   1.448  52.754  1.00  0.00     0.212 A 
HETATM    3  N2  UNL     1      21.690   2.023  51.795  1.00  0.00    -0.236 NA
HETATM    4  C4  UNL     1      22.971   1.607  51.990  1.00  0.00     0.150 A 
HETATM    5  C5  UNL     1      24.174   1.845  51.356  1.00  0.00     0.165 A 
HETATM    6  N4  UNL     1      25.272   1.231  51.860  1.00  0.00    -0.187 NA
HETATM    7  C12 UNL     1      25.237   0.415  52.931  1.00  0.00     0.272 A 
HETATM    8  N5  UNL     1      24.054   0.201  53.530  1.00  0.00    -0.186 NA
HETATM    9  C15 UNL     1      22.924   0.766  53.096  1.00  0.00     0.168 A 
ENDROOT
BRANCH   5  10
HETATM   10  N3  UNL     1      24.225   2.697  50.222  1.00  0.00    -0.339 N 
HETATM   11  H7  UNL     1      23.538   2.152  49.663  1.00  0.00     0.167 HD
BRANCH  10  12
HETATM   12  C6  UNL     1      24.870   3.868  49.789  1.00  0.00     0.035 A 
HETATM   13  C7  UNL     1      24.123   5.025  49.808  1.00  0.00     0.029 A 
HETATM   14  C8  UNL     1      24.750   6.172  49.393  1.00  0.00     0.004 A 
HETATM   15  C9  UNL     1      26.081   6.126  48.977  1.00  0.00     0.024 A 
HETATM   16  C10 UNL     1      26.808   4.965  48.964  1.00  0.00     0.036 A 
HETATM   17 CL1  UNL     1      28.457   5.054  48.423  1.00  0.00    -0.084 Cl
HETATM   18  C11 UNL     1      26.184   3.794  49.383  1.00  0.00     0.053 A 
ENDBRANCH  10  12
ENDBRANCH   5  10
BRANCH   7  19
HETATM   19  O1  UNL     1      26.473  -0.109  53.279  1.00  0.00    -0.315 OA
BRANCH  19  20
HETATM   20  C13 UNL     1      27.163   0.204  54.463  1.00  0.00     0.209 C 
BRANCH  20  21
HETATM   21  P1  UNL     1      28.942   0.618  54.142  1.00  0.00    -0.107 P 
HETATM   22  C14 UNL     1      29.913  -0.880  53.627  1.00  0.00     0.043 C 
HETATM   23  H14 UNL     1      29.119   1.712  53.236  1.00  0.00     0.059 HD
ENDBRANCH  20  21
ENDBRANCH  19  20
ENDBRANCH   7  19
BRANCH   1  24
HETATM   24  C2  UNL     1      21.271  -0.129  54.710  1.00  0.00     0.127 C 
HETATM   25  C1  UNL     1      21.077  -1.570  54.324  1.00  0.00     0.027 C 
ENDBRANCH   1  24
TORSDOF 6
ENDMDL
MODEL 4
REMARK VINA RESULT:      -7.0      3.251      5.935
REMARK  6 active torsions:
REMARK  status: ('A' for Active; 'I' for Inactive)
REMARK    1  A    between atoms: C2_2  and  N1_3 
REMARK    2  A    between atoms: C5_7  and  N3_8 
REMARK    3  A    between atoms: N3_8  and  C6_9 
REMARK    4  A    between atoms: C12_17  and  O1_18 
REMARK    5  A    between atoms: O1_18  and  C13_19 
REMARK    6  A    between atoms: C13_19  and  P1_20 
ROOT
HETATM    1  N1  UNL     1      27.938   0.942  53.699  1.00  0.00    -0.324 N 
HETATM    2  C3  UNL     1      28.476   1.980  53.034  1.00  0.00     0.212 A 
HETATM    3  N2  UNL     1      27.547   2.516  52.189  1.00  0.00    -0.236 NA
HETATM    4  C4  UNL     1      26.395   1.804  52.319  1.00  0.00     0.150 A 
HETATM    5  C5  UNL     1      25.143   1.873  51.741  1.00  0.00     0.165 A 
HETATM    6  N4  UNL     1      24.226   0.959  52.141  1.00  0.00    -0.187 NA
HETATM    7  C12 UNL     1      24.479   0.009  53.060  1.00  0.00     0.272 A 
HETATM    8  N5  UNL     1      25.706  -0.036  53.607  1.00  0.00    -0.186 NA
HETATM    9  C15 UNL     1      26.667   0.828  53.270  1.00  0.00     0.168 A 
ENDROOT
BRANCH   5  10
HETATM   10  N3  UNL     1      24.858   2.874  50.776  1.00  0.00    -0.339 N 
HETATM   11  H7  UNL     1      23.919   2.502  50.528  1.00  0.00     0.167 HD
BRANCH  10  12
HETATM   12  C6  UNL     1      25.451   4.014  50.206  1.00  0.00     0.035 A 
HETATM   13  C7  UNL     1      26.505   3.795  49.346  1.00  0.00     0.029 A 
HETATM   14  C8  UNL     1      27.082   4.904  48.781  1.00  0.00     0.004 A 
HETATM   15  C9  UNL     1      26.596   6.175  49.091  1.00  0.00     0.024 A 
HETATM   16  C10 UNL     1      25.547   6.372  49.950  1.00  0.00     0.036 A 
HETATM   17 CL1  UNL     1      25.046   8.010  50.243  1.00  0.00    -0.084 Cl
HETATM   18  C11 UNL     1      24.952   5.256  50.529  1.00  0.00     0.053 A 
ENDBRANCH  10  12
ENDBRANCH   5  10
BRANCH   7  19
HETATM   19  O1  UNL     1      23.401  -0.823  53.324  1.00  0.00    -0.315 OA
BRANCH  19  20
HETATM   20  C13 UNL     1      22.522  -0.662  54.409  1.00  0.00     0.209 C 
BRANCH  20  21
HETATM   21  P1  UNL     1      20.821  -0.171  53.858  1.00  0.00    -0.107 P 
HETATM   22  C14 UNL     1      20.761   0.165  52.032  1.00  0.00     0.043 C 
HETATM   23  H14 UNL     1      19.800  -1.086  54.270  1.00  0.00     0.059 HD
ENDBRANCH  20  21
ENDBRANCH  19  20
ENDBRANCH   7  19
BRANCH   1  24
HETATM   24  C2  UNL     1      28.542   0.065  54.700  1.00  0.00     0.127 C 
HETATM   25  C1  UNL     1      29.561  -0.847  54.075  1.00  0.00     0.027 C 
ENDBRANCH   1  24
TORSDOF 6
ENDMDL
MODEL 5
REMARK VINA RESULT:      -6.9      2.955      5.938
REMARK  6 active torsions:
REMARK  status: ('A' for Active; 'I' for Inactive)
REMARK    1  A    between atoms: C2_2  and  N1_3 
REMARK    2  A    between atoms: C5_7  and  N3_8 
REMARK    3  A    between atoms: N3_8  and  C6_9 
REMARK    4  A    between atoms: C12_17  and  O1_18 
REMARK    5  A    between atoms: O1_18  and  C13_19 
REMARK    6  A    between atoms: C13_19  and  P1_20 
ROOT
HETATM    1  N1  UNL     1      21.950   0.396  53.418  1.00  0.00    -0.324 N 
HETATM    2  C3  UNL     1      22.777  -0.655  53.558  1.00  0.00     0.212 A 
HETATM    3  N2  UNL     1      24.027  -0.319  53.122  1.00  0.00    -0.236 NA
HETATM    4  C4  UNL     1      23.993   0.973  52.695  1.00  0.00     0.150 A 
HETATM    5  C5  UNL     1      24.924   1.842  52.162  1.00  0.00     0.165 A 
HETATM    6  N4  UNL     1      24.499   3.090  51.851  1.00  0.00    -0.187 NA
HETATM    7  C12 UNL     1      23.233   3.509  52.037  1.00  0.00     0.272 A 
HETATM    8  N5  UNL     1      22.347   2.644  52.557  1.00  0.00    -0.186 NA
HETATM    9  C15 UNL     1      22.684   1.395  52.892  1.00  0.00     0.168 A 
ENDROOT
BRANCH   5  10
HETATM   10  N3  UNL     1      26.264   1.417  51.967  1.00  0.00    -0.339 N 
HETATM   11  H7  UNL     1      26.272   1.595  50.941  1.00  0.00     0.167 HD
BRANCH  10  12
HETATM   12  C6  UNL     1      27.349   0.914  52.706  1.00  0.00     0.035 A 
HETATM   13  C7  UNL     1      28.049   1.823  53.468  1.00  0.00     0.029 A 
HETATM   14  C8  UNL     1      29.104   1.336  54.197  1.00  0.00     0.004 A 
HETATM   15  C9  UNL     1      29.420  -0.022  54.141  1.00  0.00     0.024 A 
HETATM   16  C10 UNL     1      28.712  -0.911  53.376  1.00  0.00     0.036 A 
HETATM   17 CL1  UNL     1      29.217  -2.574  53.402  1.00  0.00    -0.084 Cl
HETATM   18  C11 UNL     1      27.639  -0.431  52.632  1.00  0.00     0.053 A 
ENDBRANCH  10  12
ENDBRANCH   5  10
BRANCH   7  19
HETATM   19  O1  UNL     1      23.012   4.823  51.652  1.00  0.00    -0.315 OA
BRANCH  19  20
HETATM   20  C13 UNL     1      23.995   5.666  51.106  1.00  0.00     0.209 C 
BRANCH  20  21
HETATM   21  P1  UNL     1      23.296   7.305  50.590  1.00  0.00    -0.107 P 
HETATM   22  C14 UNL     1      21.450   7.359  50.798  1.00  0.00     0.043 C 
HETATM   23  H14 UNL     1      23.939   8.422  51.210  1.00  0.00     0.059 HD
ENDBRANCH  20  21
ENDBRANCH  19  20
ENDBRANCH   7  19
BRANCH   1  24
HETATM   24  C2  UNL     1      20.531   0.513  53.744  1.00  0.00     0.127 C 
HETATM   25  C1  UNL     1      19.673   0.013  52.614  1.00  0.00     0.027 C 
ENDBRANCH   1  24
TORSDOF 6
ENDMDL
MODEL 6
REMARK VINA RESULT:      -6.8      3.679      6.808
REMARK  6 active torsions:
REMARK  status: ('A' for Active; 'I' for Inactive)
REMARK    1  A    between atoms: C2_2  and  N1_3 
REMARK    2  A    between atoms: C5_7  and  N3_8 
REMARK    3  A    between atoms: N3_8  and  C6_9 
REMARK    4  A    between atoms: C12_17  and  O1_18 
REMARK    5  A    between atoms: O1_18  and  C13_19 
REMARK    6  A    between atoms: C13_19  and  P1_20 
ROOT
HETATM    1  N1  UNL     1      23.584   2.970  49.664  1.00  0.00    -0.324 N 
HETATM    2  C3  UNL     1      24.819   3.499  49.726  1.00  0.00     0.212 A 
HETATM    3  N2  UNL     1      25.462   3.033  50.837  1.00  0.00    -0.236 NA
HETATM    4  C4  UNL     1      24.619   2.192  51.494  1.00  0.00     0.150 A 
HETATM    5  C5  UNL     1      24.706   1.439  52.648  1.00  0.00     0.165 A 
HETATM    6  N4  UNL     1      23.620   0.704  52.991  1.00  0.00    -0.187 NA
HETATM    7  C12 UNL     1      22.486   0.676  52.266  1.00  0.00     0.272 A 
HETATM    8  N5  UNL     1      22.428   1.418  51.147  1.00  0.00    -0.186 NA
HETATM    9  C15 UNL     1      23.453   2.171  50.739  1.00  0.00     0.168 A 
ENDROOT
BRANCH   5  10
HETATM   10  N3  UNL     1      25.898   1.452  53.419  1.00  0.00    -0.339 N 
HETATM   11  H7  UNL     1      25.584   2.204  54.066  1.00  0.00     0.167 HD
BRANCH  10  12
HETATM   12  C6  UNL     1      27.144   0.804  53.478  1.00  0.00     0.035 A 
HETATM   13  C7  UNL     1      28.232   1.589  53.788  1.00  0.00     0.029 A 
HETATM   14  C8  UNL     1      29.449   0.960  53.854  1.00  0.00     0.004 A 
HETATM   15  C9  UNL     1      29.537  -0.411  53.610  1.00  0.00     0.024 A 
HETATM   16  C10 UNL     1      28.443  -1.175  53.302  1.00  0.00     0.036 A 
HETATM   17 CL1  UNL     1      28.700  -2.872  53.024  1.00  0.00    -0.084 Cl
HETATM   18  C11 UNL     1      27.202  -0.550  53.232  1.00  0.00     0.053 A 
ENDBRANCH  10  12
ENDBRANCH   5  10
BRANCH   7  19
HETATM   19  O1  UNL     1      21.499  -0.143  52.794  1.00  0.00    -0.315 OA
BRANCH  19  20
HETATM   20  C13 UNL     1      20.257   0.314  53.267  1.00  0.00     0.209 C 
BRANCH  20  21
HETATM   21  P1  UNL     1      18.886  -0.041  52.070  1.00  0.00    -0.107 P 
HETATM   22  C14 UNL     1      17.633  -1.209  52.790  1.00  0.00     0.043 C 
HETATM   23  H14 UNL     1      18.276   1.137  51.534  1.00  0.00     0.059 HD
ENDBRANCH  20  21
ENDBRANCH  19  20
ENDBRANCH   7  19
BRANCH   1  24
HETATM   24  C2  UNL     1      22.536   3.172  48.665  1.00  0.00     0.127 C 
HETATM   25  C1  UNL     1      22.522   2.053  47.661  1.00  0.00     0.027 C 
ENDBRANCH   1  24
TORSDOF 6
ENDMDL
MODEL 7
REMARK VINA RESULT:      -6.7      3.405      6.777
REMARK  6 active torsions:
REMARK  status: ('A' for Active; 'I' for Inactive)
REMARK    1  A    between atoms: C2_2  and  N1_3 
REMARK    2  A    between atoms: C5_7  and  N3_8 
REMARK    3  A    between atoms: N3_8  and  C6_9 
REMARK    4  A    between atoms: C12_17  and  O1_18 
REMARK    5  A    between atoms: O1_18  and  C13_19 
REMARK    6  A    between atoms: C13_19  and  P1_20 
ROOT
HETATM    1  N1  UNL     1      23.790   5.062  49.181  1.00  0.00    -0.324 N 
HETATM    2  C3  UNL     1      25.089   5.332  48.961  1.00  0.00     0.212 A 
HETATM    3  N2  UNL     1      25.860   4.630  49.843  1.00  0.00    -0.236 NA
HETATM    4  C4  UNL     1      25.033   3.900  50.641  1.00  0.00     0.150 A 
HETATM    5  C5  UNL     1      25.225   3.021  51.688  1.00  0.00     0.165 A 
HETATM    6  N4  UNL     1      24.118   2.476  52.249  1.00  0.00    -0.187 NA
HETATM    7  C12 UNL     1      22.867   2.749  51.834  1.00  0.00     0.272 A 
HETATM    8  N5  UNL     1      22.708   3.608  50.813  1.00  0.00    -0.186 NA
HETATM    9  C15 UNL     1      23.746   4.188  50.204  1.00  0.00     0.168 A 
ENDROOT
BRANCH   5  10
HETATM   10  N3  UNL     1      26.539   2.718  52.132  1.00  0.00    -0.339 N 
HETATM   11  H7  UNL     1      26.922   3.668  51.950  1.00  0.00     0.167 HD
BRANCH  10  12
HETATM   12  C6  UNL     1      27.272   1.637  52.651  1.00  0.00     0.035 A 
HETATM   13  C7  UNL     1      28.345   1.951  53.456  1.00  0.00     0.029 A 
HETATM   14  C8  UNL     1      29.060   0.900  53.971  1.00  0.00     0.004 A 
HETATM   15  C9  UNL     1      28.686  -0.410  53.668  1.00  0.00     0.024 A 
HETATM   16  C10 UNL     1      27.615  -0.703  52.865  1.00  0.00     0.036 A 
HETATM   17 CL1  UNL     1      27.263  -2.380  52.575  1.00  0.00    -0.084 Cl
HETATM   18  C11 UNL     1      26.881   0.354  52.336  1.00  0.00     0.053 A 
ENDBRANCH  10  12
ENDBRANCH   5  10
BRANCH   7  19
HETATM   19  O1  UNL     1      21.880   2.082  52.545  1.00  0.00    -0.315 OA
BRANCH  19  20
HETATM   20  C13 UNL     1      21.569   0.721  52.385  1.00  0.00     0.209 C 
BRANCH  20  21
HETATM   21  P1  UNL     1      20.801  -0.000  53.911  1.00  0.00    -0.107 P 
HETATM   22  C14 UNL     1      22.015  -1.030  54.869  1.00  0.00     0.043 C 
HETATM   23  H14 UNL     1      20.150   0.971  54.736  1.00  0.00     0.059 HD
ENDBRANCH  20  21
ENDBRANCH  19  20
ENDBRANCH   7  19
BRANCH   1  24
HETATM   24  C2  UNL     1      22.605   5.573  48.494  1.00  0.00     0.127 C 
HETATM   25  C1  UNL     1      22.266   4.725  47.299  1.00  0.00     0.027 C 
ENDBRANCH   1  24
TORSDOF 6
ENDMDL
MODEL 8
REMARK VINA RESULT:      -6.7      3.556      6.641
REMARK  6 active torsions:
REMARK  status: ('A' for Active; 'I' for Inactive)
REMARK    1  A    between atoms: C2_2  and  N1_3 
REMARK    2  A    between atoms: C5_7  and  N3_8 
REMARK    3  A    between atoms: N3_8  and  C6_9 
REMARK    4  A    between atoms: C12_17  and  O1_18 
REMARK    5  A    between atoms: O1_18  and  C13_19 
REMARK    6  A    between atoms: C13_19  and  P1_20 
ROOT
HETATM    1  N1  UNL     1      25.117   4.370  50.210  1.00  0.00    -0.324 N 
HETATM    2  C3  UNL     1      26.396   4.016  49.993  1.00  0.00     0.212 A 
HETATM    3  N2  UNL     1      26.645   2.810  50.583  1.00  0.00    -0.236 NA
HETATM    4  C4  UNL     1      25.501   2.388  51.187  1.00  0.00     0.150 A 
HETATM    5  C5  UNL     1      25.146   1.274  51.920  1.00  0.00     0.165 A 
HETATM    6  N4  UNL     1      23.869   1.209  52.370  1.00  0.00    -0.187 NA
HETATM    7  C12 UNL     1      22.953   2.166  52.134  1.00  0.00     0.272 A 
HETATM    8  N5  UNL     1      23.324   3.241  51.418  1.00  0.00    -0.186 NA
HETATM    9  C15 UNL     1      24.562   3.382  50.937  1.00  0.00     0.168 A 
ENDROOT
BRANCH   5  10
HETATM   10  N3  UNL     1      26.100   0.253  52.171  1.00  0.00    -0.339 N 
HETATM   11  H7  UNL     1      25.586  -0.487  51.650  1.00  0.00     0.167 HD
BRANCH  10  12
HETATM   12  C6  UNL     1      27.327   0.070  52.832  1.00  0.00     0.035 A 
HETATM   13  C7  UNL     1      27.866  -1.196  52.790  1.00  0.00     0.029 A 
HETATM   14  C8  UNL     1      29.067  -1.378  53.427  1.00  0.00     0.004 A 
HETATM   15  C9  UNL     1      29.679  -0.306  54.078  1.00  0.00     0.024 A 
HETATM   16  C10 UNL     1      29.126   0.948  54.109  1.00  0.00     0.036 A 
HETATM   17 CL1  UNL     1      29.999   2.190  54.955  1.00  0.00    -0.084 Cl
HETATM   18  C11 UNL     1      27.908   1.146  53.466  1.00  0.00     0.053 A 
ENDBRANCH  10  12
ENDBRANCH   5  10
BRANCH   7  19
HETATM   19  O1  UNL     1      21.707   1.901  52.684  1.00  0.00    -0.315 OA
BRANCH  19  20
HETATM   20  C13 UNL     1      21.038   0.669  52.577  1.00  0.00     0.209 C 
BRANCH  20  21
HETATM   21  P1  UNL     1      20.773  -0.123  54.233  1.00  0.00    -0.107 P 
HETATM   22  C14 UNL     1      22.298  -1.006  54.823  1.00  0.00     0.043 C 
HETATM   23  H14 UNL     1      20.256   0.775  55.219  1.00  0.00     0.059 HD
ENDBRANCH  20  21
ENDBRANCH  19  20
ENDBRANCH   7  19
BRANCH   1  24
HETATM   24  C2  UNL     1      24.397   5.567  49.779  1.00  0.00     0.127 C 
HETATM   25  C1  UNL     1      23.684   5.329  48.476  1.00  0.00     0.027 C 
ENDBRANCH   1  24
TORSDOF 6
ENDMDL
MODEL 9
REMARK VINA RESULT:      -6.7      4.061      6.470
REMARK  6 active torsions:
REMARK  status: ('A' for Active; 'I' for Inactive)
REMARK    1  A    between atoms: C2_2  and  N1_3 
REMARK    2  A    between atoms: C5_7  and  N3_8 
REMARK    3  A    between atoms: N3_8  and  C6_9 
REMARK    4  A    between atoms: C12_17  and  O1_18 
REMARK    5  A    between atoms: O1_18  and  C13_19 
REMARK    6  A    between atoms: C13_19  and  P1_20 
ROOT
HETATM    1  N1  UNL     1      26.543   5.989  48.863  1.00  0.00    -0.324 N 
HETATM    2  C3  UNL     1      27.512   5.101  48.579  1.00  0.00     0.212 A 
HETATM    3  N2  UNL     1      27.287   3.941  49.263  1.00  0.00    -0.236 NA
HETATM    4  C4  UNL     1      26.151   4.094  49.997  1.00  0.00     0.150 A 
HETATM    5  C5  UNL     1      25.442   3.288  50.863  1.00  0.00     0.165 A 
HETATM    6  N4  UNL     1      24.322   3.811  51.419  1.00  0.00    -0.187 NA
HETATM    7  C12 UNL     1      23.883   5.058  51.165  1.00  0.00     0.272 A 
HETATM    8  N5  UNL     1      24.593   5.823  50.318  1.00  0.00    -0.186 NA
HETATM    9  C15 UNL     1      25.707   5.383  49.727  1.00  0.00     0.168 A 
ENDROOT
BRANCH   5  10
HETATM   10  N3  UNL     1      25.888   1.968  51.135  1.00  0.00    -0.339 N 
HETATM   11  H7  UNL     1      25.326   1.521  50.382  1.00  0.00     0.167 HD
BRANCH  10  12
HETATM   12  C6  UNL     1      26.743   1.286  52.018  1.00  0.00     0.035 A 
HETATM   13  C7  UNL     1      26.636  -0.087  52.041  1.00  0.00     0.029 A 
HETATM   14  C8  UNL     1      27.473  -0.758  52.895  1.00  0.00     0.004 A 
HETATM   15  C9  UNL     1      28.375  -0.046  53.687  1.00  0.00     0.024 A 
HETATM   16  C10 UNL     1      28.466   1.320  53.651  1.00  0.00     0.036 A 
HETATM   17 CL1  UNL     1      29.636   2.075  54.692  1.00  0.00    -0.084 Cl
HETATM   18  C11 UNL     1      27.623   2.013  52.789  1.00  0.00     0.053 A 
ENDBRANCH  10  12
ENDBRANCH   5  10
BRANCH   7  19
HETATM   19  O1  UNL     1      22.717   5.393  51.838  1.00  0.00    -0.315 OA
BRANCH  19  20
HETATM   20  C13 UNL     1      21.505   5.725  51.209  1.00  0.00     0.209 C 
BRANCH  20  21
HETATM   21  P1  UNL     1      20.671   4.237  50.481  1.00  0.00    -0.107 P 
HETATM   22  C14 UNL     1      19.133   3.785  51.422  1.00  0.00     0.043 C 
HETATM   23  H14 UNL     1      20.427   4.348  49.076  1.00  0.00     0.059 HD
ENDBRANCH  20  21
ENDBRANCH  19  20
ENDBRANCH   7  19
BRANCH   1  24
HETATM   24  C2  UNL     1      26.360   7.355  48.375  1.00  0.00     0.127 C 
HETATM   25  C1  UNL     1      27.253   8.315  49.112  1.00  0.00     0.027 C 
ENDBRANCH   1  24
TORSDOF 6
ENDMDL
