MODEL 1
REMARK VINA RESULT:      -8.8      0.000      0.000
REMARK  7 active torsions:
REMARK  status: ('A' for Active; 'I' for Inactive)
REMARK    1  A    between atoms: O1_2  and  C2_3 
REMARK    2  A    between atoms: C6_9  and  N3_10 
REMARK    3  A    between atoms: N3_10  and  C7_11 
REMARK    4  A    between atoms: C15_22  and  O2_23 
REMARK    5  A    between atoms: O2_23  and  C16_24 
REMARK    6  A    between atoms: C16_24  and  C17_25 
REMARK    7  A    between atoms: C17_25  and  N4_26 
ROOT
HETATM    1  C2  UNL     1      22.338   0.015  52.958  1.00  0.00     0.103 A 
HETATM    2  C3  UNL     1      21.220   0.782  52.638  1.00  0.00     0.072 A 
HETATM    3  C4  UNL     1      21.345   2.096  52.258  1.00  0.00     0.075 A 
HETATM    4  N1  UNL     1      20.344   2.913  51.931  1.00  0.00    -0.241 NA
HETATM    5  C5  UNL     1      20.503   4.197  51.563  1.00  0.00     0.236 A 
HETATM    6  N2  UNL     1      21.763   4.727  51.510  1.00  0.00    -0.224 NA
HETATM    7  C6  UNL     1      22.803   3.940  51.830  1.00  0.00     0.141 A 
HETATM    8  C13 UNL     1      22.615   2.629  52.204  1.00  0.00     0.042 A 
HETATM    9  C14 UNL     1      23.699   1.848  52.526  1.00  0.00     0.057 A 
HETATM   10  C15 UNL     1      23.636   0.531  52.912  1.00  0.00     0.103 A 
ENDROOT
BRANCH   7  11
HETATM   11  N3  UNL     1      24.082   4.550  51.754  1.00  0.00    -0.349 N 
HETATM   12  H6  UNL     1      25.028   4.246  52.064  1.00  0.00     0.167 HD
BRANCH  11  13
HETATM   13  C7  UNL     1      24.221   5.830  51.158  1.00  0.00     0.102 C 
HETATM   14  C8  UNL     1      25.108   6.123  50.246  1.00  0.00    -0.003 C 
HETATM   15  C9  UNL     1      26.067   5.152  49.730  1.00  0.00     0.058 C 
HETATM   16  P1  UNL     1      25.191   7.815  49.546  1.00  0.00    -0.007 P 
HETATM   17  C10 UNL     1      26.935   5.519  48.801  1.00  0.00     0.140 C 
HETATM   18  F1  UNL     1      27.842   4.606  48.313  1.00  0.00    -0.204 F 
HETATM   19  C11 UNL     1      27.026   6.835  48.230  1.00  0.00     0.085 C 
HETATM   20 CL1  UNL     1      28.267   7.317  47.095  1.00  0.00    -0.080 Cl
HETATM   21  C12 UNL     1      26.330   7.949  48.342  1.00  0.00     0.017 C 
ENDBRANCH  11  13
ENDBRANCH   7  11
BRANCH  10  22
HETATM   22  O2  UNL     1      24.562  -0.380  53.257  1.00  0.00    -0.347 OA
BRANCH  22  23
HETATM   23  C16 UNL     1      25.240  -0.550  54.461  1.00  0.00     0.206 C 
BRANCH  23  24
HETATM   24  C17 UNL     1      26.441   0.319  54.609  1.00  0.00     0.299 C 
BRANCH  24  25
HETATM   25  N4  UNL     1      27.177   0.515  53.401  1.00  0.00     0.094 N 
HETATM   26  C18 UNL     1      27.401   1.851  52.985  1.00  0.00     0.298 C 
HETATM   27  C19 UNL     1      28.643   2.399  53.647  1.00  0.00     0.198 C 
HETATM   28  O3  UNL     1      29.106   1.581  54.678  1.00  0.00    -0.388 OA
HETATM   29  C20 UNL     1      29.429   0.308  54.209  1.00  0.00     0.198 C 
HETATM   30  C21 UNL     1      28.390  -0.253  53.295  1.00  0.00     0.298 C 
ENDBRANCH  24  25
ENDBRANCH  23  24
ENDBRANCH  22  23
ENDBRANCH  10  22
BRANCH   1  31
HETATM   31  O1  UNL     1      22.047  -1.286  53.321  1.00  0.00    -0.353 OA
HETATM   32  C1  UNL     1      21.481  -1.673  54.531  1.00  0.00     0.210 C 
ENDBRANCH   1  31
TORSDOF 7
ENDMDL
MODEL 2
REMARK VINA RESULT:      -8.1      3.489      6.523
REMARK  7 active torsions:
REMARK  status: ('A' for Active; 'I' for Inactive)
REMARK    1  A    between atoms: O1_2  and  C2_3 
REMARK    2  A    between atoms: C6_9  and  N3_10 
REMARK    3  A    between atoms: N3_10  and  C7_11 
REMARK    4  A    between atoms: C15_22  and  O2_23 
REMARK    5  A    between atoms: O2_23  and  C16_24 
REMARK    6  A    between atoms: C16_24  and  C17_25 
REMARK    7  A    between atoms: C17_25  and  N4_26 
ROOT
HETATM    1  C2  UNL     1      27.049   0.799  53.169  1.00  0.00     0.103 A 
HETATM    2  C3  UNL     1      26.774   0.118  54.353  1.00  0.00     0.072 A 
HETATM    3  C4  UNL     1      25.522  -0.386  54.607  1.00  0.00     0.075 A 
HETATM    4  N1  UNL     1      25.155  -1.050  55.704  1.00  0.00    -0.241 NA
HETATM    5  C5  UNL     1      23.918  -1.530  55.921  1.00  0.00     0.236 A 
HETATM    6  N2  UNL     1      22.951  -1.340  54.973  1.00  0.00    -0.224 NA
HETATM    7  C6  UNL     1      23.274  -0.676  53.851  1.00  0.00     0.141 A 
HETATM    8  C13 UNL     1      24.547  -0.195  53.652  1.00  0.00     0.042 A 
HETATM    9  C14 UNL     1      24.849   0.481  52.494  1.00  0.00     0.057 A 
HETATM   10  C15 UNL     1      26.081   1.006  52.184  1.00  0.00     0.103 A 
ENDROOT
BRANCH   7  11
HETATM   11  N3  UNL     1      22.226  -0.515  52.908  1.00  0.00    -0.349 N 
HETATM   12  H6  UNL     1      21.850  -1.132  52.160  1.00  0.00     0.167 HD
BRANCH  11  13
HETATM   13  C7  UNL     1      21.471   0.686  52.888  1.00  0.00     0.102 C 
HETATM   14  C8  UNL     1      21.122   1.316  51.799  1.00  0.00    -0.003 C 
HETATM   15  C9  UNL     1      21.473   0.846  50.463  1.00  0.00     0.058 C 
HETATM   16  P1  UNL     1      20.142   2.862  51.898  1.00  0.00    -0.007 P 
HETATM   17  C10 UNL     1      21.082   1.535  49.403  1.00  0.00     0.140 C 
HETATM   18  F1  UNL     1      21.412   1.096  48.142  1.00  0.00    -0.204 F 
HETATM   19  C11 UNL     1      20.312   2.748  49.445  1.00  0.00     0.085 C 
HETATM   20 CL1  UNL     1      19.918   3.697  48.029  1.00  0.00    -0.080 Cl
HETATM   21  C12 UNL     1      19.733   3.451  50.398  1.00  0.00     0.017 C 
ENDBRANCH  11  13
ENDBRANCH   7  11
BRANCH  10  22
HETATM   22  O2  UNL     1      26.561   1.682  51.126  1.00  0.00    -0.347 OA
BRANCH  22  23
HETATM   23  C16 UNL     1      26.521   3.045  50.846  1.00  0.00     0.206 C 
BRANCH  23  24
HETATM   24  C17 UNL     1      25.736   3.393  49.630  1.00  0.00     0.299 C 
BRANCH  24  25
HETATM   25  N4  UNL     1      24.327   3.474  49.844  1.00  0.00     0.094 N 
HETATM   26  C18 UNL     1      23.885   3.887  51.126  1.00  0.00     0.298 C 
HETATM   27  C19 UNL     1      23.825   5.394  51.193  1.00  0.00     0.198 C 
HETATM   28  O3  UNL     1      24.451   6.005  50.105  1.00  0.00    -0.388 OA
HETATM   29  C20 UNL     1      23.854   5.632  48.901  1.00  0.00     0.198 C 
HETATM   30  C21 UNL     1      23.593   4.164  48.815  1.00  0.00     0.298 C 
ENDBRANCH  24  25
ENDBRANCH  23  24
ENDBRANCH  22  23
ENDBRANCH  10  22
BRANCH   1  31
HETATM   31  O1  UNL     1      28.354   1.244  53.062  1.00  0.00    -0.353 OA
HETATM   32  C1  UNL     1      28.894   2.316  53.762  1.00  0.00     0.210 C 
ENDBRANCH   1  31
TORSDOF 7
ENDMDL
MODEL 3
REMARK VINA RESULT:      -8.1      4.135      5.910
REMARK  7 active torsions:
REMARK  status: ('A' for Active; 'I' for Inactive)
REMARK    1  A    between atoms: O1_2  and  C2_3 
REMARK    2  A    between atoms: C6_9  and  N3_10 
REMARK    3  A    between atoms: N3_10  and  C7_11 
REMARK    4  A    between atoms: C15_22  and  O2_23 
REMARK    5  A    between atoms: O2_23  and  C16_24 
REMARK    6  A    between atoms: C16_24  and  C17_25 
REMARK    7  A    between atoms: C17_25  and  N4_26 
ROOT
HETATM    1  C2  UNL     1      24.617   4.161  49.683  1.00  0.00     0.103 A 
HETATM    2  C3  UNL     1      24.486   5.362  48.989  1.00  0.00     0.072 A 
HETATM    3  C4  UNL     1      25.589   6.047  48.541  1.00  0.00     0.075 A 
HETATM    4  N1  UNL     1      25.573   7.199  47.870  1.00  0.00    -0.241 NA
HETATM    5  C5  UNL     1      26.675   7.844  47.446  1.00  0.00     0.236 A 
HETATM    6  N2  UNL     1      27.906   7.306  47.703  1.00  0.00    -0.224 NA
HETATM    7  C6  UNL     1      27.971   6.146  48.376  1.00  0.00     0.141 A 
HETATM    8  C13 UNL     1      26.830   5.505  48.800  1.00  0.00     0.042 A 
HETATM    9  C14 UNL     1      26.927   4.319  49.487  1.00  0.00     0.057 A 
HETATM   10  C15 UNL     1      25.862   3.589  49.958  1.00  0.00     0.103 A 
ENDROOT
BRANCH   7  11
HETATM   11  N3  UNL     1      29.277   5.643  48.610  1.00  0.00    -0.349 N 
HETATM   12  H6  UNL     1      29.631   4.821  49.140  1.00  0.00     0.167 HD
BRANCH  11  13
HETATM   13  C7  UNL     1      30.402   6.311  48.062  1.00  0.00     0.102 C 
HETATM   14  C8  UNL     1      31.401   5.709  47.476  1.00  0.00    -0.003 C 
HETATM   15  C9  UNL     1      31.472   4.260  47.318  1.00  0.00     0.058 C 
HETATM   16  P1  UNL     1      32.801   6.681  46.803  1.00  0.00    -0.007 P 
HETATM   17  C10 UNL     1      32.515   3.719  46.710  1.00  0.00     0.140 C 
HETATM   18  F1  UNL     1      32.585   2.353  46.559  1.00  0.00    -0.204 F 
HETATM   19  C11 UNL     1      33.627   4.451  46.169  1.00  0.00     0.085 C 
HETATM   20 CL1  UNL     1      35.046   3.693  45.482  1.00  0.00    -0.080 Cl
HETATM   21  C12 UNL     1      33.920   5.728  46.025  1.00  0.00     0.017 C 
ENDBRANCH  11  13
ENDBRANCH   7  11
BRANCH  10  22
HETATM   22  O2  UNL     1      25.757   2.432  50.634  1.00  0.00    -0.347 OA
BRANCH  22  23
HETATM   23  C16 UNL     1      25.858   2.186  52.001  1.00  0.00     0.206 C 
BRANCH  23  24
HETATM   24  C17 UNL     1      27.194   1.690  52.431  1.00  0.00     0.299 C 
BRANCH  24  25
HETATM   25  N4  UNL     1      27.238   0.292  52.717  1.00  0.00     0.094 N 
HETATM   26  C18 UNL     1      28.486  -0.254  53.111  1.00  0.00     0.298 C 
HETATM   27  C19 UNL     1      28.671  -0.102  54.602  1.00  0.00     0.198 C 
HETATM   28  O3  UNL     1      27.724   0.748  55.175  1.00  0.00    -0.388 OA
HETATM   29  C20 UNL     1      26.429   0.270  54.978  1.00  0.00     0.198 C 
HETATM   30  C21 UNL     1      26.188  -0.188  53.578  1.00  0.00     0.298 C 
ENDBRANCH  24  25
ENDBRANCH  23  24
ENDBRANCH  22  23
ENDBRANCH  10  22
BRANCH   1  31
HETATM   31  O1  UNL     1      23.416   3.595  50.066  1.00  0.00    -0.353 OA
HETATM   32  C1  UNL     1      22.646   4.006  51.149  1.00  0.00     0.210 C 
ENDBRANCH   1  31
TORSDOF 7
ENDMDL
MODEL 4
REMARK VINA RESULT:      -8.0      3.574      6.210
REMARK  7 active torsions:
REMARK  status: ('A' for Active; 'I' for Inactive)
REMARK    1  A    between atoms: O1_2  and  C2_3 
REMARK    2  A    between atoms: C6_9  and  N3_10 
REMARK    3  A    between atoms: N3_10  and  C7_11 
REMARK    4  A    between atoms: C15_22  and  O2_23 
REMARK    5  A    between atoms: O2_23  and  C16_24 
REMARK    6  A    between atoms: C16_24  and  C17_25 
REMARK    7  A    between atoms: C17_25  and  N4_26 
ROOT
HETATM    1  C2  UNL     1      26.892   5.078  49.030  1.00  0.00     0.103 A 
HETATM    2  C3  UNL     1      26.460   6.301  48.521  1.00  0.00     0.072 A 
HETATM    3  C4  UNL     1      25.339   6.920  49.016  1.00  0.00     0.075 A 
HETATM    4  N1  UNL     1      24.843   8.086  48.601  1.00  0.00    -0.241 NA
HETATM    5  C5  UNL     1      23.740   8.664  49.110  1.00  0.00     0.236 A 
HETATM    6  N2  UNL     1      23.061   8.039  50.119  1.00  0.00    -0.224 NA
HETATM    7  C6  UNL     1      23.524   6.861  50.569  1.00  0.00     0.141 A 
HETATM    8  C13 UNL     1      24.655   6.290  50.033  1.00  0.00     0.042 A 
HETATM    9  C14 UNL     1      25.105   5.084  50.514  1.00  0.00     0.057 A 
HETATM   10  C15 UNL     1      26.218   4.418  50.060  1.00  0.00     0.103 A 
ENDROOT
BRANCH   7  11
HETATM   11  N3  UNL     1      22.774   6.266  51.617  1.00  0.00    -0.349 N 
HETATM   12  H6  UNL     1      22.848   6.318  52.654  1.00  0.00     0.167 HD
BRANCH  11  13
HETATM   13  C7  UNL     1      21.685   5.410  51.311  1.00  0.00     0.102 C 
HETATM   14  C8  UNL     1      21.646   4.139  51.603  1.00  0.00    -0.003 C 
HETATM   15  C9  UNL     1      22.732   3.448  52.289  1.00  0.00     0.058 C 
HETATM   16  P1  UNL     1      20.180   3.132  51.159  1.00  0.00    -0.007 P 
HETATM   17  C10 UNL     1      22.622   2.157  52.556  1.00  0.00     0.140 C 
HETATM   18  F1  UNL     1      23.645   1.501  53.202  1.00  0.00    -0.204 F 
HETATM   19  C11 UNL     1      21.487   1.339  52.224  1.00  0.00     0.085 C 
HETATM   20 CL1  UNL     1      21.427  -0.390  52.483  1.00  0.00    -0.080 Cl
HETATM   21  C12 UNL     1      20.299   1.564  51.697  1.00  0.00     0.017 C 
ENDBRANCH  11  13
ENDBRANCH   7  11
BRANCH  10  22
HETATM   22  O2  UNL     1      26.807   3.258  50.398  1.00  0.00    -0.347 OA
BRANCH  22  23
HETATM   23  C16 UNL     1      26.350   2.234  51.224  1.00  0.00     0.206 C 
BRANCH  23  24
HETATM   24  C17 UNL     1      27.165   2.039  52.455  1.00  0.00     0.299 C 
BRANCH  24  25
HETATM   25  N4  UNL     1      27.658   0.711  52.629  1.00  0.00     0.094 N 
HETATM   26  C18 UNL     1      28.831   0.549  53.408  1.00  0.00     0.298 C 
HETATM   27  C19 UNL     1      28.471   0.440  54.871  1.00  0.00     0.198 C 
HETATM   28  O3  UNL     1      27.142   0.781  55.122  1.00  0.00    -0.388 OA
HETATM   29  C20 UNL     1      26.265  -0.053  54.430  1.00  0.00     0.198 C 
HETATM   30  C21 UNL     1      26.667  -0.263  53.008  1.00  0.00     0.298 C 
ENDBRANCH  24  25
ENDBRANCH  23  24
ENDBRANCH  22  23
ENDBRANCH  10  22
BRANCH   1  31
HETATM   31  O1  UNL     1      28.034   4.586  48.427  1.00  0.00    -0.353 OA
HETATM   32  C1  UNL     1      29.160   5.337  48.109  1.00  0.00     0.210 C 
ENDBRANCH   1  31
TORSDOF 7
ENDMDL
MODEL 5
REMARK VINA RESULT:      -7.8      4.415      6.907
REMARK  7 active torsions:
REMARK  status: ('A' for Active; 'I' for Inactive)
REMARK    1  A    between atoms: O1_2  and  C2_3 
REMARK    2  A    between atoms: C6_9  and  N3_10 
REMARK    3  A    between atoms: N3_10  and  C7_11 
REMARK    4  A    between atoms: C15_22  and  O2_23 
REMARK    5  A    between atoms: O2_23  and  C16_24 
REMARK    6  A    between atoms: C16_24  and  C17_25 
REMARK    7  A    between atoms: C17_25  and  N4_26 
ROOT
HETATM    1  C2  UNL     1      19.045   0.144  51.938  1.00  0.00     0.103 A 
HETATM    2  C3  UNL     1      19.381  -0.475  53.140  1.00  0.00     0.072 A 
HETATM    3  C4  UNL     1      20.691  -0.596  53.534  1.00  0.00     0.075 A 
HETATM    4  N1  UNL     1      21.119  -1.168  54.660  1.00  0.00    -0.241 NA
HETATM    5  C5  UNL     1      22.412  -1.270  55.015  1.00  0.00     0.236 A 
HETATM    6  N2  UNL     1      23.375  -0.761  54.188  1.00  0.00    -0.224 NA
HETATM    7  C6  UNL     1      22.991  -0.175  53.042  1.00  0.00     0.141 A 
HETATM    8  C13 UNL     1      21.662  -0.084  52.700  1.00  0.00     0.042 A 
HETATM    9  C14 UNL     1      21.299   0.521  51.521  1.00  0.00     0.057 A 
HETATM   10  C15 UNL     1      20.008   0.672  51.075  1.00  0.00     0.103 A 
ENDROOT
BRANCH   7  11
HETATM   11  N3  UNL     1      24.039   0.331  52.229  1.00  0.00    -0.349 N 
HETATM   12  H6  UNL     1      24.211   0.304  51.204  1.00  0.00     0.167 HD
BRANCH  11  13
HETATM   13  C7  UNL     1      25.121   1.030  52.824  1.00  0.00     0.102 C 
HETATM   14  C8  UNL     1      26.291   0.504  53.064  1.00  0.00    -0.003 C 
HETATM   15  C9  UNL     1      26.621  -0.881  52.742  1.00  0.00     0.058 C 
HETATM   16  P1  UNL     1      27.616   1.507  53.836  1.00  0.00    -0.007 P 
HETATM   17  C10 UNL     1      27.830  -1.346  53.011  1.00  0.00     0.140 C 
HETATM   18  F1  UNL     1      28.144  -2.651  52.710  1.00  0.00    -0.204 F 
HETATM   19  C11 UNL     1      28.891  -0.586  53.613  1.00  0.00     0.085 C 
HETATM   20 CL1  UNL     1      30.437  -1.268  54.067  1.00  0.00    -0.080 Cl
HETATM   21  C12 UNL     1      29.047   0.673  53.974  1.00  0.00     0.017 C 
ENDBRANCH  11  13
ENDBRANCH   7  11
BRANCH  10  22
HETATM   22  O2  UNL     1      19.465   1.224  49.976  1.00  0.00    -0.347 OA
BRANCH  22  23
HETATM   23  C16 UNL     1      20.035   2.074  49.031  1.00  0.00     0.206 C 
BRANCH  23  24
HETATM   24  C17 UNL     1      20.033   3.509  49.427  1.00  0.00     0.299 C 
BRANCH  24  25
HETATM   25  N4  UNL     1      21.256   4.195  49.157  1.00  0.00     0.094 N 
HETATM   26  C18 UNL     1      21.254   5.606  49.289  1.00  0.00     0.298 C 
HETATM   27  C19 UNL     1      21.535   5.994  50.721  1.00  0.00     0.198 C 
HETATM   28  O3  UNL     1      21.465   4.907  51.593  1.00  0.00    -0.388 OA
HETATM   29  C20 UNL     1      22.395   3.924  51.254  1.00  0.00     0.198 C 
HETATM   30  C21 UNL     1      22.422   3.635  49.790  1.00  0.00     0.298 C 
ENDBRANCH  24  25
ENDBRANCH  23  24
ENDBRANCH  22  23
ENDBRANCH  10  22
BRANCH   1  31
HETATM   31  O1  UNL     1      17.687   0.186  51.684  1.00  0.00    -0.353 OA
HETATM   32  C1  UNL     1      16.720  -0.535  52.374  1.00  0.00     0.210 C 
ENDBRANCH   1  31
TORSDOF 7
ENDMDL
MODEL 6
REMARK VINA RESULT:      -7.7      4.802      7.887
REMARK  7 active torsions:
REMARK  status: ('A' for Active; 'I' for Inactive)
REMARK    1  A    between atoms: O1_2  and  C2_3 
REMARK    2  A    between atoms: C6_9  and  N3_10 
REMARK    3  A    between atoms: N3_10  and  C7_11 
REMARK    4  A    between atoms: C15_22  and  O2_23 
REMARK    5  A    between atoms: O2_23  and  C16_24 
REMARK    6  A    between atoms: C16_24  and  C17_25 
REMARK    7  A    between atoms: C17_25  and  N4_26 
ROOT
HETATM    1  C2  UNL     1      26.579   7.340  49.226  1.00  0.00     0.103 A 
HETATM    2  C3  UNL     1      25.486   7.589  50.052  1.00  0.00     0.072 A 
HETATM    3  C4  UNL     1      24.700   6.563  50.517  1.00  0.00     0.075 A 
HETATM    4  N1  UNL     1      23.635   6.693  51.311  1.00  0.00    -0.241 NA
HETATM    5  C5  UNL     1      22.887   5.664  51.748  1.00  0.00     0.236 A 
HETATM    6  N2  UNL     1      23.214   4.391  51.372  1.00  0.00    -0.224 NA
HETATM    7  C6  UNL     1      24.279   4.211  50.574  1.00  0.00     0.141 A 
HETATM    8  C13 UNL     1      25.030   5.280  50.139  1.00  0.00     0.042 A 
HETATM    9  C14 UNL     1      26.114   5.065  49.322  1.00  0.00     0.057 A 
HETATM   10  C15 UNL     1      26.936   6.049  48.827  1.00  0.00     0.103 A 
ENDROOT
BRANCH   7  11
HETATM   11  N3  UNL     1      24.564   2.867  50.222  1.00  0.00    -0.349 N 
HETATM   12  H6  UNL     1      24.878   2.422  49.335  1.00  0.00     0.167 HD
BRANCH  11  13
HETATM   13  C7  UNL     1      24.430   1.838  51.189  1.00  0.00     0.102 C 
HETATM   14  C8  UNL     1      25.355   1.517  52.053  1.00  0.00    -0.003 C 
HETATM   15  C9  UNL     1      26.647   2.192  52.120  1.00  0.00     0.058 C 
HETATM   16  P1  UNL     1      25.066   0.169  53.259  1.00  0.00    -0.007 P 
HETATM   17  C10 UNL     1      27.535   1.815  53.026  1.00  0.00     0.140 C 
HETATM   18  F1  UNL     1      28.755   2.448  53.092  1.00  0.00    -0.204 F 
HETATM   19  C11 UNL     1      27.340   0.764  53.987  1.00  0.00     0.085 C 
HETATM   20 CL1  UNL     1      28.584   0.211  55.086  1.00  0.00    -0.080 Cl
HETATM   21  C12 UNL     1      26.333  -0.018  54.320  1.00  0.00     0.017 C 
ENDBRANCH  11  13
ENDBRANCH   7  11
BRANCH  10  22
HETATM   22  O2  UNL     1      28.022   6.039  48.034  1.00  0.00    -0.347 OA
BRANCH  22  23
HETATM   23  C16 UNL     1      29.329   5.654  48.319  1.00  0.00     0.206 C 
BRANCH  23  24
HETATM   24  C17 UNL     1      30.364   6.423  47.575  1.00  0.00     0.299 C 
BRANCH  24  25
HETATM   25  N4  UNL     1      31.691   6.261  48.076  1.00  0.00     0.094 N 
HETATM   26  C18 UNL     1      32.749   6.803  47.304  1.00  0.00     0.298 C 
HETATM   27  C19 UNL     1      32.960   8.255  47.659  1.00  0.00     0.198 C 
HETATM   28  O3  UNL     1      31.925   8.771  48.440  1.00  0.00    -0.388 OA
HETATM   29  C20 UNL     1      31.804   8.077  49.644  1.00  0.00     0.198 C 
HETATM   30  C21 UNL     1      31.863   6.596  49.466  1.00  0.00     0.298 C 
ENDBRANCH  24  25
ENDBRANCH  23  24
ENDBRANCH  22  23
ENDBRANCH  10  22
BRANCH   1  31
HETATM   31  O1  UNL     1      27.269   8.475  48.842  1.00  0.00    -0.353 OA
HETATM   32  C1  UNL     1      28.112   9.216  49.663  1.00  0.00     0.210 C 
ENDBRANCH   1  31
TORSDOF 7
ENDMDL
MODEL 7
REMARK VINA RESULT:      -7.7      2.363      3.071
REMARK  7 active torsions:
REMARK  status: ('A' for Active; 'I' for Inactive)
REMARK    1  A    between atoms: O1_2  and  C2_3 
REMARK    2  A    between atoms: C6_9  and  N3_10 
REMARK    3  A    between atoms: N3_10  and  C7_11 
REMARK    4  A    between atoms: C15_22  and  O2_23 
REMARK    5  A    between atoms: O2_23  and  C16_24 
REMARK    6  A    between atoms: C16_24  and  C17_25 
REMARK    7  A    between atoms: C17_25  and  N4_26 
ROOT
HETATM    1  C2  UNL     1      21.731   0.016  53.768  1.00  0.00     0.103 A 
HETATM    2  C3  UNL     1      20.384  -0.244  53.527  1.00  0.00     0.072 A 
HETATM    3  C4  UNL     1      19.803   0.082  52.326  1.00  0.00     0.075 A 
HETATM    4  N1  UNL     1      18.527  -0.124  51.995  1.00  0.00    -0.241 NA
HETATM    5  C5  UNL     1      17.990   0.208  50.808  1.00  0.00     0.236 A 
HETATM    6  N2  UNL     1      18.778   0.795  49.857  1.00  0.00    -0.224 NA
HETATM    7  C6  UNL     1      20.070   1.022  50.146  1.00  0.00     0.141 A 
HETATM    8  C13 UNL     1      20.597   0.673  51.368  1.00  0.00     0.042 A 
HETATM    9  C14 UNL     1      21.923   0.917  51.635  1.00  0.00     0.057 A 
HETATM   10  C15 UNL     1      22.559   0.614  52.815  1.00  0.00     0.103 A 
ENDROOT
BRANCH   7  11
HETATM   11  N3  UNL     1      20.832   1.633  49.117  1.00  0.00    -0.349 N 
HETATM   12  H6  UNL     1      21.378   1.246  48.319  1.00  0.00     0.167 HD
BRANCH  11  13
HETATM   13  C7  UNL     1      20.945   3.046  49.063  1.00  0.00     0.102 C 
HETATM   14  C8  UNL     1      22.078   3.694  49.089  1.00  0.00    -0.003 C 
HETATM   15  C9  UNL     1      23.372   3.027  49.177  1.00  0.00     0.058 C 
HETATM   16  P1  UNL     1      22.098   5.525  49.011  1.00  0.00    -0.007 P 
HETATM   17  C10 UNL     1      24.481   3.748  49.196  1.00  0.00     0.140 C 
HETATM   18  F1  UNL     1      25.703   3.123  49.279  1.00  0.00    -0.204 F 
HETATM   19  C11 UNL     1      24.533   5.184  49.134  1.00  0.00     0.085 C 
HETATM   20 CL1  UNL     1      26.010   6.109  49.286  1.00  0.00    -0.080 Cl
HETATM   21  C12 UNL     1      23.642   6.142  48.972  1.00  0.00     0.017 C 
ENDBRANCH  11  13
ENDBRANCH   7  11
BRANCH  10  22
HETATM   22  O2  UNL     1      23.820   0.769  53.254  1.00  0.00    -0.347 OA
BRANCH  22  23
HETATM   23  C16 UNL     1      24.756   1.754  52.948  1.00  0.00     0.206 C 
BRANCH  23  24
HETATM   24  C17 UNL     1      26.011   1.667  53.745  1.00  0.00     0.299 C 
BRANCH  24  25
HETATM   25  N4  UNL     1      27.178   1.378  52.976  1.00  0.00     0.094 N 
HETATM   26  C18 UNL     1      28.430   1.462  53.635  1.00  0.00     0.298 C 
HETATM   27  C19 UNL     1      28.746   0.153  54.318  1.00  0.00     0.198 C 
HETATM   28  O3  UNL     1      27.648  -0.707  54.361  1.00  0.00    -0.388 OA
HETATM   29  C20 UNL     1      27.200  -1.021  53.079  1.00  0.00     0.198 C 
HETATM   30  C21 UNL     1      27.107   0.174  52.189  1.00  0.00     0.298 C 
ENDBRANCH  24  25
ENDBRANCH  23  24
ENDBRANCH  22  23
ENDBRANCH  10  22
BRANCH   1  31
HETATM   31  O1  UNL     1      22.167  -0.369  55.022  1.00  0.00    -0.353 OA
HETATM   32  C1  UNL     1      22.694  -1.616  55.339  1.00  0.00     0.210 C 
ENDBRANCH   1  31
TORSDOF 7
ENDMDL
MODEL 8
REMARK VINA RESULT:      -7.6      4.493      7.590
REMARK  7 active torsions:
REMARK  status: ('A' for Active; 'I' for Inactive)
REMARK    1  A    between atoms: O1_2  and  C2_3 
REMARK    2  A    between atoms: C6_9  and  N3_10 
REMARK    3  A    between atoms: N3_10  and  C7_11 
REMARK    4  A    between atoms: C15_22  and  O2_23 
REMARK    5  A    between atoms: O2_23  and  C16_24 
REMARK    6  A    between atoms: C16_24  and  C17_25 
REMARK    7  A    between atoms: C17_25  and  N4_26 
ROOT
HETATM    1  C2  UNL     1      26.910   0.493  53.071  1.00  0.00     0.103 A 
HETATM    2  C3  UNL     1      26.538  -0.242  54.193  1.00  0.00     0.072 A 
HETATM    3  C4  UNL     1      25.219  -0.528  54.449  1.00  0.00     0.075 A 
HETATM    4  N1  UNL     1      24.758  -1.222  55.491  1.00  0.00    -0.241 NA
HETATM    5  C5  UNL     1      23.457  -1.483  55.711  1.00  0.00     0.236 A 
HETATM    6  N2  UNL     1      22.522  -1.022  54.825  1.00  0.00    -0.224 NA
HETATM    7  C6  UNL     1      22.940  -0.318  53.760  1.00  0.00     0.141 A 
HETATM    8  C13 UNL     1      24.277  -0.063  53.557  1.00  0.00     0.042 A 
HETATM    9  C14 UNL     1      24.675   0.660  52.458  1.00  0.00     0.057 A 
HETATM   10  C15 UNL     1      25.977   0.976  52.150  1.00  0.00     0.103 A 
ENDROOT
BRANCH   7  11
HETATM   11  N3  UNL     1      21.921   0.131  52.881  1.00  0.00    -0.349 N 
HETATM   12  H6  UNL     1      21.928   0.778  52.067  1.00  0.00     0.167 HD
BRANCH  11  13
HETATM   13  C7  UNL     1      20.589  -0.325  53.050  1.00  0.00     0.102 C 
HETATM   14  C8  UNL     1      19.618  -0.084  52.212  1.00  0.00    -0.003 C 
HETATM   15  C9  UNL     1      19.799   0.692  50.990  1.00  0.00     0.058 C 
HETATM   16  P1  UNL     1      17.934  -0.730  52.536  1.00  0.00    -0.007 P 
HETATM   17  C10 UNL     1      18.769   0.894  50.184  1.00  0.00     0.140 C 
HETATM   18  F1  UNL     1      18.935   1.626  49.031  1.00  0.00    -0.204 F 
HETATM   19  C11 UNL     1      17.437   0.400  50.407  1.00  0.00     0.085 C 
HETATM   20 CL1  UNL     1      16.073   0.791  49.383  1.00  0.00    -0.080 Cl
HETATM   21  C12 UNL     1      16.872  -0.382  51.305  1.00  0.00     0.017 C 
ENDBRANCH  11  13
ENDBRANCH   7  11
BRANCH  10  22
HETATM   22  O2  UNL     1      26.553   1.655  51.143  1.00  0.00    -0.347 OA
BRANCH  22  23
HETATM   23  C16 UNL     1      26.755   3.025  50.994  1.00  0.00     0.206 C 
BRANCH  23  24
HETATM   24  C17 UNL     1      26.082   3.611  49.802  1.00  0.00     0.299 C 
BRANCH  24  25
HETATM   25  N4  UNL     1      25.158   4.657  50.104  1.00  0.00     0.094 N 
HETATM   26  C18 UNL     1      24.543   5.317  49.011  1.00  0.00     0.298 C 
HETATM   27  C19 UNL     1      23.308   4.564  48.578  1.00  0.00     0.198 C 
HETATM   28  O3  UNL     1      23.220   3.299  49.162  1.00  0.00    -0.388 OA
HETATM   29  C20 UNL     1      23.171   3.385  50.553  1.00  0.00     0.198 C 
HETATM   30  C21 UNL     1      24.179   4.335  51.110  1.00  0.00     0.298 C 
ENDBRANCH  24  25
ENDBRANCH  23  24
ENDBRANCH  22  23
ENDBRANCH  10  22
BRANCH   1  31
HETATM   31  O1  UNL     1      28.272   0.697  52.954  1.00  0.00    -0.353 OA
HETATM   32  C1  UNL     1      29.129   1.007  54.004  1.00  0.00     0.210 C 
ENDBRANCH   1  31
TORSDOF 7
ENDMDL
MODEL 9
REMARK VINA RESULT:      -7.5      4.370      7.412
REMARK  7 active torsions:
REMARK  status: ('A' for Active; 'I' for Inactive)
REMARK    1  A    between atoms: O1_2  and  C2_3 
REMARK    2  A    between atoms: C6_9  and  N3_10 
REMARK    3  A    between atoms: N3_10  and  C7_11 
REMARK    4  A    between atoms: C15_22  and  O2_23 
REMARK    5  A    between atoms: O2_23  and  C16_24 
REMARK    6  A    between atoms: C16_24  and  C17_25 
REMARK    7  A    between atoms: C17_25  and  N4_26 
ROOT
HETATM    1  C2  UNL     1      26.870   0.475  53.120  1.00  0.00     0.103 A 
HETATM    2  C3  UNL     1      26.363  -0.331  54.136  1.00  0.00     0.072 A 
HETATM    3  C4  UNL     1      25.009  -0.492  54.305  1.00  0.00     0.075 A 
HETATM    4  N1  UNL     1      24.422  -1.238  55.242  1.00  0.00    -0.241 NA
HETATM    5  C5  UNL     1      23.091  -1.374  55.378  1.00  0.00     0.236 A 
HETATM    6  N2  UNL     1      22.260  -0.717  54.515  1.00  0.00    -0.224 NA
HETATM    7  C6  UNL     1      22.806   0.047  53.554  1.00  0.00     0.141 A 
HETATM    8  C13 UNL     1      24.171   0.170  53.435  1.00  0.00     0.042 A 
HETATM    9  C14 UNL     1      24.701   0.959  52.442  1.00  0.00     0.057 A 
HETATM   10  C15 UNL     1      26.043   1.158  52.224  1.00  0.00     0.103 A 
ENDROOT
BRANCH   7  11
HETATM   11  N3  UNL     1      21.888   0.701  52.692  1.00  0.00    -0.349 N 
HETATM   12  H6  UNL     1      21.922   1.608  52.184  1.00  0.00     0.167 HD
BRANCH  11  13
HETATM   13  C7  UNL     1      20.642   0.092  52.392  1.00  0.00     0.102 C 
HETATM   14  C8  UNL     1      19.564   0.750  52.061  1.00  0.00    -0.003 C 
HETATM   15  C9  UNL     1      19.521   2.205  51.962  1.00  0.00     0.058 C 
HETATM   16  P1  UNL     1      18.010  -0.147  51.691  1.00  0.00    -0.007 P 
HETATM   17  C10 UNL     1      18.393   2.805  51.618  1.00  0.00     0.140 C 
HETATM   18  F1  UNL     1      18.348   4.177  51.525  1.00  0.00    -0.204 F 
HETATM   19  C11 UNL     1      17.158   2.132  51.320  1.00  0.00     0.085 C 
HETATM   20 CL1  UNL     1      15.655   2.964  50.989  1.00  0.00    -0.080 Cl
HETATM   21  C12 UNL     1      16.787   0.872  51.210  1.00  0.00     0.017 C 
ENDBRANCH  11  13
ENDBRANCH   7  11
BRANCH  10  22
HETATM   22  O2  UNL     1      26.741   1.873  51.325  1.00  0.00    -0.347 OA
BRANCH  22  23
HETATM   23  C16 UNL     1      26.289   2.676  50.281  1.00  0.00     0.206 C 
BRANCH  23  24
HETATM   24  C17 UNL     1      25.481   3.846  50.721  1.00  0.00     0.299 C 
BRANCH  24  25
HETATM   25  N4  UNL     1      24.499   4.271  49.776  1.00  0.00     0.094 N 
HETATM   26  C18 UNL     1      23.767   3.264  49.100  1.00  0.00     0.298 C 
HETATM   27  C19 UNL     1      22.570   2.851  49.924  1.00  0.00     0.198 C 
HETATM   28  O3  UNL     1      22.618   3.350  51.226  1.00  0.00    -0.388 OA
HETATM   29  C20 UNL     1      22.650   4.744  51.234  1.00  0.00     0.198 C 
HETATM   30  C21 UNL     1      23.613   5.307  50.242  1.00  0.00     0.298 C 
ENDBRANCH  24  25
ENDBRANCH  23  24
ENDBRANCH  22  23
ENDBRANCH  10  22
BRANCH   1  31
HETATM   31  O1  UNL     1      28.251   0.536  53.082  1.00  0.00    -0.353 OA
HETATM   32  C1  UNL     1      29.061   1.012  54.107  1.00  0.00     0.210 C 
ENDBRANCH   1  31
TORSDOF 7
ENDMDL
