MODEL 1
REMARK VINA RESULT:      -8.3      0.000      0.000
REMARK  4 active torsions:
REMARK  status: ('A' for Active; 'I' for Inactive)
REMARK    1  A    between atoms: O1_2  and  C2_3 
REMARK    2  A    between atoms: C8_9  and  O2_10 
REMARK    3  A    between atoms: C12_17  and  C13_18 
REMARK    4  A    between atoms: C13_18  and  C14_19 
ROOT
HETATM    1  C2  UNL     1      20.328   2.054  51.362  1.00  0.00     0.081 A 
HETATM    2  C3  UNL     1      20.012   1.727  52.690  1.00  0.00     0.038 A 
HETATM    3  C4  UNL     1      20.806   0.694  53.239  1.00  0.00     0.013 A 
HETATM    4  C5  UNL     1      21.778   0.127  52.440  1.00  0.00    -0.013 A 
HETATM    5  C6  UNL     1      22.127   0.391  51.170  1.00  0.00     0.027 A 
HETATM    6  C7  UNL     1      21.332   1.401  50.688  1.00  0.00     0.031 A 
HETATM    7  C8  UNL     1      21.813   1.732  49.354  1.00  0.00     0.085 C 
HETATM    8  C9  UNL     1      23.004   2.213  49.624  1.00  0.00     0.084 C 
HETATM    9  S1  UNL     1      24.133   2.574  50.862  1.00  0.00    -0.117 SA
HETATM   10  C10 UNL     1      23.718   2.351  52.572  1.00  0.00     0.231 C 
HETATM   11  N1  UNL     1      23.588   1.008  53.073  1.00  0.00    -0.196 N 
HETATM   12  N2  UNL     1      23.469  -0.234  53.537  1.00  0.00     0.061 N 
HETATM   13  C11 UNL     1      22.310  -0.713  53.479  1.00  0.00     0.252 A 
HETATM   14  C12 UNL     1      23.438  -0.959  54.356  1.00  0.00     0.345 A 
HETATM   15  C13 UNL     1      24.278   0.282  54.145  1.00  0.00     0.351 A 
ENDROOT
BRANCH  15  16
HETATM   16  C14 UNL     1      25.654  -0.117  53.849  1.00  0.00    -0.007 A 
HETATM   17  C15 UNL     1      26.747   0.395  54.557  1.00  0.00     0.014 A 
HETATM   18  C16 UNL     1      28.060   0.049  54.335  1.00  0.00     0.043 A 
HETATM   19  C17 UNL     1      28.373  -0.864  53.354  1.00  0.00     0.116 A 
HETATM   20  F1  UNL     1      29.653  -1.228  53.108  1.00  0.00    -0.206 F 
HETATM   21  C18 UNL     1      27.356  -1.413  52.612  1.00  0.00     0.043 A 
HETATM   22  C19 UNL     1      26.070  -1.017  52.895  1.00  0.00     0.014 A 
ENDBRANCH  15  16
BRANCH   7  23
HETATM   23  O2  UNL     1      20.699   1.325  48.683  1.00  0.00    -0.359 OA
HETATM   24  H7  UNL     1      19.785   1.763  48.785  1.00  0.00     0.217 HD
ENDBRANCH   7  23
BRANCH   1  25
HETATM   25  O1  UNL     1      19.762   3.006  50.515  1.00  0.00    -0.355 OA
HETATM   26  C1  UNL     1      19.662   4.368  50.791  1.00  0.00     0.210 C 
ENDBRANCH   1  25
TORSDOF 4
ENDMDL
MODEL 2
REMARK VINA RESULT:      -7.7     10.255     11.653
REMARK  4 active torsions:
REMARK  status: ('A' for Active; 'I' for Inactive)
REMARK    1  A    between atoms: O1_2  and  C2_3 
REMARK    2  A    between atoms: C8_9  and  O2_10 
REMARK    3  A    between atoms: C12_17  and  C13_18 
REMARK    4  A    between atoms: C13_18  and  C14_19 
ROOT
HETATM    1  C2  UNL     1      28.517  11.034  48.807  1.00  0.00     0.081 A 
HETATM    2  C3  UNL     1      29.553  11.676  48.109  1.00  0.00     0.038 A 
HETATM    3  C4  UNL     1      30.750  10.928  48.029  1.00  0.00     0.013 A 
HETATM    4  C5  UNL     1      30.781   9.685  48.626  1.00  0.00    -0.013 A 
HETATM    5  C6  UNL     1      29.832   9.019  49.306  1.00  0.00     0.027 A 
HETATM    6  C7  UNL     1      28.693   9.785  49.350  1.00  0.00     0.031 A 
HETATM    7  C8  UNL     1      27.659   8.987  49.994  1.00  0.00     0.085 C 
HETATM    8  C9  UNL     1      27.497   8.023  49.118  1.00  0.00     0.084 C 
HETATM    9  S1  UNL     1      28.003   7.388  47.609  1.00  0.00    -0.117 SA
HETATM   10  C10 UNL     1      29.177   8.253  46.600  1.00  0.00     0.231 C 
HETATM   11  N1  UNL     1      30.546   8.311  47.041  1.00  0.00    -0.196 N 
HETATM   12  N2  UNL     1      31.812   8.364  47.449  1.00  0.00     0.061 N 
HETATM   13  C11 UNL     1      32.100   9.360  48.156  1.00  0.00     0.252 A 
HETATM   14  C12 UNL     1      32.879   8.521  47.266  1.00  0.00     0.345 A 
HETATM   15  C13 UNL     1      31.802   7.866  46.428  1.00  0.00     0.351 A 
ENDROOT
BRANCH  15  16
HETATM   16  C14 UNL     1      32.019   6.419  46.419  1.00  0.00    -0.007 A 
HETATM   17  C15 UNL     1      32.659   5.768  45.358  1.00  0.00     0.014 A 
HETATM   18  C16 UNL     1      32.903   4.416  45.297  1.00  0.00     0.043 A 
HETATM   19  C17 UNL     1      32.507   3.599  46.332  1.00  0.00     0.116 A 
HETATM   20  F1  UNL     1      32.731   2.265  46.306  1.00  0.00    -0.206 F 
HETATM   21  C18 UNL     1      31.870   4.161  47.412  1.00  0.00     0.043 A 
HETATM   22  C19 UNL     1      31.663   5.520  47.398  1.00  0.00     0.014 A 
ENDBRANCH  15  16
BRANCH   7  23
HETATM   23  O2  UNL     1      27.528   9.769  51.102  1.00  0.00    -0.359 OA
HETATM   24  H7  UNL     1      27.985  10.673  51.213  1.00  0.00     0.217 HD
ENDBRANCH   7  23
BRANCH   1  25
HETATM   25  O1  UNL     1      27.220  11.466  49.080  1.00  0.00    -0.355 OA
HETATM   26  C1  UNL     1      26.326  11.972  48.138  1.00  0.00     0.210 C 
ENDBRANCH   1  25
TORSDOF 4
ENDMDL
MODEL 3
REMARK VINA RESULT:      -7.6      4.030      6.946
REMARK  4 active torsions:
REMARK  status: ('A' for Active; 'I' for Inactive)
REMARK    1  A    between atoms: O1_2  and  C2_3 
REMARK    2  A    between atoms: C8_9  and  O2_10 
REMARK    3  A    between atoms: C12_17  and  C13_18 
REMARK    4  A    between atoms: C13_18  and  C14_19 
ROOT
HETATM    1  C2  UNL     1      27.658  -0.759  53.270  1.00  0.00     0.081 A 
HETATM    2  C3  UNL     1      26.646  -1.682  52.959  1.00  0.00     0.038 A 
HETATM    3  C4  UNL     1      25.334  -1.189  53.142  1.00  0.00     0.013 A 
HETATM    4  C5  UNL     1      25.183   0.105  53.597  1.00  0.00    -0.013 A 
HETATM    5  C6  UNL     1      26.103   1.031  53.914  1.00  0.00     0.027 A 
HETATM    6  C7  UNL     1      27.355   0.505  53.714  1.00  0.00     0.031 A 
HETATM    7  C8  UNL     1      28.317   1.571  53.959  1.00  0.00     0.085 C 
HETATM    8  C9  UNL     1      28.036   2.400  52.981  1.00  0.00     0.084 C 
HETATM    9  S1  UNL     1      27.038   2.688  51.619  1.00  0.00    -0.117 SA
HETATM   10  C10 UNL     1      25.866   1.475  51.070  1.00  0.00     0.231 C 
HETATM   11  N1  UNL     1      24.701   1.236  51.881  1.00  0.00    -0.196 N 
HETATM   12  N2  UNL     1      23.623   1.014  52.631  1.00  0.00     0.061 N 
HETATM   13  C11 UNL     1      23.750   0.104  53.485  1.00  0.00     0.252 A 
HETATM   14  C12 UNL     1      22.606   0.636  52.770  1.00  0.00     0.345 A 
HETATM   15  C13 UNL     1      23.265   1.341  51.603  1.00  0.00     0.351 A 
ENDROOT
BRANCH  15  16
HETATM   16  C14 UNL     1      22.740   2.703  51.510  1.00  0.00    -0.007 A 
HETATM   17  C15 UNL     1      21.871   3.099  50.487  1.00  0.00     0.014 A 
HETATM   18  C16 UNL     1      21.336   4.359  50.355  1.00  0.00     0.043 A 
HETATM   19  C17 UNL     1      21.647   5.338  51.270  1.00  0.00     0.116 A 
HETATM   20  F1  UNL     1      21.139   6.588  51.171  1.00  0.00    -0.206 F 
HETATM   21  C18 UNL     1      22.496   5.031  52.305  1.00  0.00     0.043 A 
HETATM   22  C19 UNL     1      22.990   3.749  52.370  1.00  0.00     0.014 A 
ENDBRANCH  15  16
BRANCH   7  23
HETATM   23  O2  UNL     1      28.893   1.008  55.058  1.00  0.00    -0.359 OA
HETATM   24  H7  UNL     1      29.868   0.711  55.097  1.00  0.00     0.217 HD
ENDBRANCH   7  23
BRANCH   1  25
HETATM   25  O1  UNL     1      29.044  -0.897  53.211  1.00  0.00    -0.355 OA
HETATM   26  C1  UNL     1      29.749  -2.062  53.506  1.00  0.00     0.210 C 
ENDBRANCH   1  25
TORSDOF 4
ENDMDL
MODEL 4
REMARK VINA RESULT:      -7.5     10.815     12.992
REMARK  4 active torsions:
REMARK  status: ('A' for Active; 'I' for Inactive)
REMARK    1  A    between atoms: O1_2  and  C2_3 
REMARK    2  A    between atoms: C8_9  and  O2_10 
REMARK    3  A    between atoms: C12_17  and  C13_18 
REMARK    4  A    between atoms: C13_18  and  C14_19 
ROOT
HETATM    1  C2  UNL     1      33.548   4.129  47.267  1.00  0.00     0.081 A 
HETATM    2  C3  UNL     1      32.294   3.717  46.789  1.00  0.00     0.038 A 
HETATM    3  C4  UNL     1      31.200   4.413  47.354  1.00  0.00     0.013 A 
HETATM    4  C5  UNL     1      31.465   5.393  48.289  1.00  0.00    -0.013 A 
HETATM    5  C6  UNL     1      32.633   5.830  48.787  1.00  0.00     0.027 A 
HETATM    6  C7  UNL     1      33.659   5.127  48.205  1.00  0.00     0.031 A 
HETATM    7  C8  UNL     1      34.907   5.704  48.686  1.00  0.00     0.085 C 
HETATM    8  C9  UNL     1      34.853   6.905  48.159  1.00  0.00     0.084 C 
HETATM    9  S1  UNL     1      33.939   7.981  47.189  1.00  0.00    -0.117 SA
HETATM   10  C10 UNL     1      32.435   7.456  46.409  1.00  0.00     0.231 C 
HETATM   11  N1  UNL     1      31.284   7.215  47.238  1.00  0.00    -0.196 N 
HETATM   12  N2  UNL     1      30.218   6.992  48.006  1.00  0.00     0.061 N 
HETATM   13  C11 UNL     1      30.095   5.812  48.413  1.00  0.00     0.252 A 
HETATM   14  C12 UNL     1      29.140   6.870  48.148  1.00  0.00     0.345 A 
HETATM   15  C13 UNL     1      29.937   7.796  47.253  1.00  0.00     0.351 A 
ENDROOT
BRANCH  15  16
HETATM   16  C14 UNL     1      29.846   9.159  47.776  1.00  0.00    -0.007 A 
HETATM   17  C15 UNL     1      28.934  10.092  47.270  1.00  0.00     0.014 A 
HETATM   18  C16 UNL     1      28.792  11.382  47.728  1.00  0.00     0.043 A 
HETATM   19  C17 UNL     1      29.584  11.836  48.757  1.00  0.00     0.116 A 
HETATM   20  F1  UNL     1      29.473  13.098  49.233  1.00  0.00    -0.206 F 
HETATM   21  C18 UNL     1      30.508  10.982  49.308  1.00  0.00     0.043 A 
HETATM   22  C19 UNL     1      30.589   9.708  48.797  1.00  0.00     0.014 A 
ENDBRANCH  15  16
BRANCH   7  23
HETATM   23  O2  UNL     1      35.327   4.608  49.378  1.00  0.00    -0.359 OA
HETATM   24  H7  UNL     1      36.071   4.629  50.074  1.00  0.00     0.217 HD
ENDBRANCH   7  23
BRANCH   1  25
HETATM   25  O1  UNL     1      34.824   3.672  46.942  1.00  0.00    -0.355 OA
HETATM   26  C1  UNL     1      35.301   3.477  45.647  1.00  0.00     0.210 C 
ENDBRANCH   1  25
TORSDOF 4
ENDMDL
MODEL 5
REMARK VINA RESULT:      -7.4      3.950      5.764
REMARK  4 active torsions:
REMARK  status: ('A' for Active; 'I' for Inactive)
REMARK    1  A    between atoms: O1_2  and  C2_3 
REMARK    2  A    between atoms: C8_9  and  O2_10 
REMARK    3  A    between atoms: C12_17  and  C13_18 
REMARK    4  A    between atoms: C13_18  and  C14_19 
ROOT
HETATM    1  C2  UNL     1      23.448   5.477  48.186  1.00  0.00     0.081 A 
HETATM    2  C3  UNL     1      22.433   4.974  47.357  1.00  0.00     0.038 A 
HETATM    3  C4  UNL     1      22.141   3.606  47.562  1.00  0.00     0.013 A 
HETATM    4  C5  UNL     1      22.859   2.924  48.522  1.00  0.00    -0.013 A 
HETATM    5  C6  UNL     1      23.837   3.344  49.342  1.00  0.00     0.027 A 
HETATM    6  C7  UNL     1      24.078   4.674  49.106  1.00  0.00     0.031 A 
HETATM    7  C8  UNL     1      25.061   5.117  50.086  1.00  0.00     0.085 C 
HETATM    8  C9  UNL     1      24.382   4.993  51.203  1.00  0.00     0.084 C 
HETATM    9  S1  UNL     1      22.885   4.539  51.901  1.00  0.00    -0.117 SA
HETATM   10  C10 UNL     1      21.508   4.068  50.887  1.00  0.00     0.231 C 
HETATM   11  N1  UNL     1      21.571   2.810  50.191  1.00  0.00    -0.196 N 
HETATM   12  N2  UNL     1      21.630   1.646  49.547  1.00  0.00     0.061 N 
HETATM   13  C11 UNL     1      22.109   1.705  48.388  1.00  0.00     0.252 A 
HETATM   14  C12 UNL     1      21.159   0.810  49.021  1.00  0.00     0.345 A 
HETATM   15  C13 UNL     1      20.716   1.619  50.221  1.00  0.00     0.351 A 
ENDROOT
BRANCH  15  16
HETATM   16  C14 UNL     1      20.830   0.793  51.423  1.00  0.00    -0.007 A 
HETATM   17  C15 UNL     1      19.708   0.338  52.124  1.00  0.00     0.014 A 
HETATM   18  C16 UNL     1      19.751  -0.451  53.250  1.00  0.00     0.043 A 
HETATM   19  C17 UNL     1      20.964  -0.848  53.765  1.00  0.00     0.116 A 
HETATM   20  F1  UNL     1      21.043  -1.623  54.870  1.00  0.00    -0.206 F 
HETATM   21  C18 UNL     1      22.115  -0.441  53.136  1.00  0.00     0.043 A 
HETATM   22  C19 UNL     1      21.989   0.346  52.015  1.00  0.00     0.014 A 
ENDBRANCH  15  16
BRANCH   7  23
HETATM   23  O2  UNL     1      26.059   5.378  49.196  1.00  0.00    -0.359 OA
HETATM   24  H7  UNL     1      26.088   6.209  48.606  1.00  0.00     0.217 HD
ENDBRANCH   7  23
BRANCH   1  25
HETATM   25  O1  UNL     1      23.991   6.759  48.260  1.00  0.00    -0.355 OA
HETATM   26  C1  UNL     1      24.159   7.624  47.180  1.00  0.00     0.210 C 
ENDBRANCH   1  25
TORSDOF 4
ENDMDL
MODEL 6
REMARK VINA RESULT:      -7.3      4.167      7.098
REMARK  4 active torsions:
REMARK  status: ('A' for Active; 'I' for Inactive)
REMARK    1  A    between atoms: O1_2  and  C2_3 
REMARK    2  A    between atoms: C8_9  and  O2_10 
REMARK    3  A    between atoms: C12_17  and  C13_18 
REMARK    4  A    between atoms: C13_18  and  C14_19 
ROOT
HETATM    1  C2  UNL     1      24.385   0.601  52.833  1.00  0.00     0.081 A 
HETATM    2  C3  UNL     1      23.871  -0.617  53.305  1.00  0.00     0.038 A 
HETATM    3  C4  UNL     1      22.491  -0.586  53.609  1.00  0.00     0.013 A 
HETATM    4  C5  UNL     1      21.810   0.599  53.420  1.00  0.00    -0.013 A 
HETATM    5  C6  UNL     1      22.241   1.792  52.978  1.00  0.00     0.027 A 
HETATM    6  C7  UNL     1      23.581   1.706  52.694  1.00  0.00     0.031 A 
HETATM    7  C8  UNL     1      23.984   2.980  52.114  1.00  0.00     0.085 C 
HETATM    8  C9  UNL     1      23.304   2.976  50.991  1.00  0.00     0.084 C 
HETATM    9  S1  UNL     1      22.199   2.105  50.013  1.00  0.00    -0.117 SA
HETATM   10  C10 UNL     1      21.655   0.481  50.472  1.00  0.00     0.231 C 
HETATM   11  N1  UNL     1      20.771   0.350  51.600  1.00  0.00    -0.196 N 
HETATM   12  N2  UNL     1      19.952   0.229  52.643  1.00  0.00     0.061 N 
HETATM   13  C11 UNL     1      20.522   0.050  53.747  1.00  0.00     0.252 A 
HETATM   14  C12 UNL     1      19.219  -0.328  53.235  1.00  0.00     0.345 A 
HETATM   15  C13 UNL     1      19.423  -0.211  51.739  1.00  0.00     0.351 A 
ENDROOT
BRANCH  15  16
HETATM   16  C14 UNL     1      18.343   0.597  51.172  1.00  0.00    -0.007 A 
HETATM   17  C15 UNL     1      17.422   0.074  50.258  1.00  0.00     0.014 A 
HETATM   18  C16 UNL     1      16.380   0.779  49.701  1.00  0.00     0.043 A 
HETATM   19  C17 UNL     1      16.188   2.100  50.036  1.00  0.00     0.116 A 
HETATM   20  F1  UNL     1      15.174   2.824  49.509  1.00  0.00    -0.206 F 
HETATM   21  C18 UNL     1      17.051   2.690  50.927  1.00  0.00     0.043 A 
HETATM   22  C19 UNL     1      18.068   1.919  51.440  1.00  0.00     0.014 A 
ENDBRANCH  15  16
BRANCH   7  23
HETATM   23  O2  UNL     1      24.817   3.353  53.125  1.00  0.00    -0.359 OA
HETATM   24  H7  UNL     1      25.174   4.301  53.244  1.00  0.00     0.217 HD
ENDBRANCH   7  23
BRANCH   1  25
HETATM   25  O1  UNL     1      25.682   0.934  52.444  1.00  0.00    -0.355 OA
HETATM   26  C1  UNL     1      26.725   0.028  52.266  1.00  0.00     0.210 C 
ENDBRANCH   1  25
TORSDOF 4
ENDMDL
MODEL 7
REMARK VINA RESULT:      -7.3      4.267      6.751
REMARK  4 active torsions:
REMARK  status: ('A' for Active; 'I' for Inactive)
REMARK    1  A    between atoms: O1_2  and  C2_3 
REMARK    2  A    between atoms: C8_9  and  O2_10 
REMARK    3  A    between atoms: C12_17  and  C13_18 
REMARK    4  A    between atoms: C13_18  and  C14_19 
ROOT
HETATM    1  C2  UNL     1      25.098  -0.136  53.335  1.00  0.00     0.081 A 
HETATM    2  C3  UNL     1      23.779  -0.377  52.917  1.00  0.00     0.038 A 
HETATM    3  C4  UNL     1      22.996   0.790  52.764  1.00  0.00     0.013 A 
HETATM    4  C5  UNL     1      23.585   2.008  53.033  1.00  0.00    -0.013 A 
HETATM    5  C6  UNL     1      24.832   2.305  53.436  1.00  0.00     0.027 A 
HETATM    6  C7  UNL     1      25.549   1.141  53.565  1.00  0.00     0.031 A 
HETATM    7  C8  UNL     1      26.919   1.511  53.892  1.00  0.00     0.085 C 
HETATM    8  C9  UNL     1      27.288   2.125  52.793  1.00  0.00     0.084 C 
HETATM    9  S1  UNL     1      26.807   2.626  51.226  1.00  0.00    -0.117 SA
HETATM   10  C10 UNL     1      25.215   2.191  50.576  1.00  0.00     0.231 C 
HETATM   11  N1  UNL     1      24.051   2.821  51.141  1.00  0.00    -0.196 N 
HETATM   12  N2  UNL     1      22.974   3.404  51.664  1.00  0.00     0.061 N 
HETATM   13  C11 UNL     1      22.447   2.784  52.620  1.00  0.00     0.252 A 
HETATM   14  C12 UNL     1      21.921   3.698  51.624  1.00  0.00     0.345 A 
HETATM   15  C13 UNL     1      22.992   3.648  50.555  1.00  0.00     0.351 A 
ENDROOT
BRANCH  15  16
HETATM   16  C14 UNL     1      23.382   5.014  50.205  1.00  0.00    -0.007 A 
HETATM   17  C15 UNL     1      23.440   5.457  48.879  1.00  0.00     0.014 A 
HETATM   18  C16 UNL     1      23.785   6.729  48.489  1.00  0.00     0.043 A 
HETATM   19  C17 UNL     1      24.107   7.675  49.436  1.00  0.00     0.116 A 
HETATM   20  F1  UNL     1      24.451   8.936  49.089  1.00  0.00    -0.206 F 
HETATM   21  C18 UNL     1      24.076   7.319  50.763  1.00  0.00     0.043 A 
HETATM   22  C19 UNL     1      23.720   6.028  51.073  1.00  0.00     0.014 A 
ENDBRANCH  15  16
BRANCH   7  23
HETATM   23  O2  UNL     1      26.930   0.970  55.143  1.00  0.00    -0.359 OA
HETATM   24  H7  UNL     1      27.771   0.626  55.603  1.00  0.00     0.217 HD
ENDBRANCH   7  23
BRANCH   1  25
HETATM   25  O1  UNL     1      26.135  -1.032  53.588  1.00  0.00    -0.355 OA
HETATM   26  C1  UNL     1      26.801  -1.784  52.621  1.00  0.00     0.210 C 
ENDBRANCH   1  25
TORSDOF 4
ENDMDL
MODEL 8
REMARK VINA RESULT:      -7.2      2.254      3.572
REMARK  4 active torsions:
REMARK  status: ('A' for Active; 'I' for Inactive)
REMARK    1  A    between atoms: O1_2  and  C2_3 
REMARK    2  A    between atoms: C8_9  and  O2_10 
REMARK    3  A    between atoms: C12_17  and  C13_18 
REMARK    4  A    between atoms: C13_18  and  C14_19 
ROOT
HETATM    1  C2  UNL     1      19.699   4.715  50.525  1.00  0.00     0.081 A 
HETATM    2  C3  UNL     1      20.723   5.674  50.480  1.00  0.00     0.038 A 
HETATM    3  C4  UNL     1      21.815   5.398  51.334  1.00  0.00     0.013 A 
HETATM    4  C5  UNL     1      21.766   4.252  52.102  1.00  0.00    -0.013 A 
HETATM    5  C6  UNL     1      20.821   3.302  52.192  1.00  0.00     0.027 A 
HETATM    6  C7  UNL     1      19.789   3.615  51.343  1.00  0.00     0.031 A 
HETATM    7  C8  UNL     1      18.842   2.510  51.386  1.00  0.00     0.085 C 
HETATM    8  C9  UNL     1      19.555   1.541  50.859  1.00  0.00     0.084 C 
HETATM    9  S1  UNL     1      21.071   1.110  50.188  1.00  0.00    -0.117 SA
HETATM   10  C10 UNL     1      22.340   2.323  49.940  1.00  0.00     0.231 C 
HETATM   11  N1  UNL     1      23.001   2.866  51.097  1.00  0.00    -0.196 N 
HETATM   12  N2  UNL     1      23.612   3.369  52.168  1.00  0.00     0.061 N 
HETATM   13  C11 UNL     1      23.092   4.411  52.636  1.00  0.00     0.252 A 
HETATM   14  C12 UNL     1      24.446   3.892  52.646  1.00  0.00     0.345 A 
HETATM   15  C13 UNL     1      24.407   2.888  51.514  1.00  0.00     0.351 A 
ENDROOT
BRANCH  15  16
HETATM   16  C14 UNL     1      24.942   1.612  51.988  1.00  0.00    -0.007 A 
HETATM   17  C15 UNL     1      26.220   1.162  51.637  1.00  0.00     0.014 A 
HETATM   18  C16 UNL     1      26.782  -0.019  52.061  1.00  0.00     0.043 A 
HETATM   19  C17 UNL     1      26.075  -0.857  52.893  1.00  0.00     0.116 A 
HETATM   20  F1  UNL     1      26.597  -2.026  53.330  1.00  0.00    -0.206 F 
HETATM   21  C18 UNL     1      24.811  -0.488  53.284  1.00  0.00     0.043 A 
HETATM   22  C19 UNL     1      24.319   0.708  52.818  1.00  0.00     0.014 A 
ENDBRANCH  15  16
BRANCH   7  23
HETATM   23  O2  UNL     1      17.816   3.207  51.950  1.00  0.00    -0.359 OA
HETATM   24  H7  UNL     1      16.947   2.779  52.264  1.00  0.00     0.217 HD
ENDBRANCH   7  23
BRANCH   1  25
HETATM   25  O1  UNL     1      18.490   4.663  49.831  1.00  0.00    -0.355 OA
HETATM   26  C1  UNL     1      18.269   5.194  48.562  1.00  0.00     0.210 C 
ENDBRANCH   1  25
TORSDOF 4
ENDMDL
MODEL 9
REMARK VINA RESULT:      -7.1      3.673      5.763
REMARK  4 active torsions:
REMARK  status: ('A' for Active; 'I' for Inactive)
REMARK    1  A    between atoms: O1_2  and  C2_3 
REMARK    2  A    between atoms: C8_9  and  O2_10 
REMARK    3  A    between atoms: C12_17  and  C13_18 
REMARK    4  A    between atoms: C13_18  and  C14_19 
ROOT
HETATM    1  C2  UNL     1      25.266   4.640  50.412  1.00  0.00     0.081 A 
HETATM    2  C3  UNL     1      26.119   3.528  50.491  1.00  0.00     0.038 A 
HETATM    3  C4  UNL     1      25.732   2.566  51.452  1.00  0.00     0.013 A 
HETATM    4  C5  UNL     1      24.593   2.809  52.193  1.00  0.00    -0.013 A 
HETATM    5  C6  UNL     1      23.741   3.847  52.167  1.00  0.00     0.027 A 
HETATM    6  C7  UNL     1      24.159   4.746  51.218  1.00  0.00     0.031 A 
HETATM    7  C8  UNL     1      23.152   5.796  51.143  1.00  0.00     0.085 C 
HETATM    8  C9  UNL     1      22.120   5.129  50.681  1.00  0.00     0.084 C 
HETATM    9  S1  UNL     1      21.544   3.599  50.168  1.00  0.00    -0.117 SA
HETATM   10  C10 UNL     1      22.627   2.198  50.075  1.00  0.00     0.231 C 
HETATM   11  N1  UNL     1      23.097   1.615  51.304  1.00  0.00    -0.196 N 
HETATM   12  N2  UNL     1      23.531   1.076  52.442  1.00  0.00     0.061 N 
HETATM   13  C11 UNL     1      24.617   1.539  52.867  1.00  0.00     0.252 A 
HETATM   14  C12 UNL     1      23.967   0.251  53.014  1.00  0.00     0.345 A 
HETATM   15  C13 UNL     1      22.977   0.267  51.868  1.00  0.00     0.351 A 
ENDROOT
BRANCH  15  16
HETATM   16  C14 UNL     1      21.652  -0.087  52.378  1.00  0.00    -0.007 A 
HETATM   17  C15 UNL     1      20.476   0.297  51.724  1.00  0.00     0.014 A 
HETATM   18  C16 UNL     1      19.204  -0.016  52.145  1.00  0.00     0.043 A 
HETATM   19  C17 UNL     1      19.023  -0.758  53.290  1.00  0.00     0.116 A 
HETATM   20  F1  UNL     1      17.787  -1.084  53.734  1.00  0.00    -0.206 F 
HETATM   21  C18 UNL     1      20.128  -1.173  53.992  1.00  0.00     0.043 A 
HETATM   22  C19 UNL     1      21.365  -0.821  53.506  1.00  0.00     0.014 A 
ENDBRANCH  15  16
BRANCH   7  23
HETATM   23  O2  UNL     1      23.945   6.803  51.605  1.00  0.00    -0.359 OA
HETATM   24  H7  UNL     1      23.714   7.380  52.413  1.00  0.00     0.217 HD
ENDBRANCH   7  23
BRANCH   1  25
HETATM   25  O1  UNL     1      25.337   5.766  49.592  1.00  0.00    -0.355 OA
HETATM   26  C1  UNL     1      26.500   6.261  49.006  1.00  0.00     0.210 C 
ENDBRANCH   1  25
TORSDOF 4
ENDMDL
