MODEL 1
REMARK VINA RESULT:      -7.8      0.000      0.000
REMARK  2 active torsions:
REMARK  status: ('A' for Active; 'I' for Inactive)
REMARK    1  A    between atoms: C5_5  and  O1_6 
REMARK    2  A    between atoms: N1_8  and  C7_9 
ROOT
HETATM    1  C7  UNL     1      24.801   2.530  52.721  1.00  0.00     0.068 C 
HETATM    2  C8  UNL     1      24.601   3.529  53.612  1.00  0.00     0.034 C 
HETATM    3  C9  UNL     1      23.741   4.757  53.424  1.00  0.00     0.029 C 
HETATM    4  C10 UNL     1      23.447   5.112  52.145  1.00  0.00     0.027 C 
HETATM    5  C11 UNL     1      21.910   5.304  51.929  1.00  0.00     0.178 C 
HETATM    6  N2  UNL     1      21.968   4.877  50.656  1.00  0.00    -0.367 N 
HETATM    7  C12 UNL     1      22.256   3.509  50.160  1.00  0.00     0.153 C 
HETATM    8  N3  UNL     1      21.030   3.017  50.406  1.00  0.00    -0.242 NA
HETATM    9  C13 UNL     1      20.425   2.220  49.290  1.00  0.00     0.115 C 
HETATM   10  C14 UNL     1      21.040   1.835  48.100  1.00  0.00    -0.003 C 
HETATM   11  C15 UNL     1      22.345   2.370  47.477  1.00  0.00     0.069 C 
HETATM   12  C16 UNL     1      23.033   3.278  48.410  1.00  0.00    -0.020 A 
HETATM   13  C17 UNL     1      23.684   4.223  49.244  1.00  0.00     0.041 A 
HETATM   14  C18 UNL     1      24.179   3.843  50.528  1.00  0.00     0.064 A 
HETATM   15  C19 UNL     1      24.265   2.670  51.383  1.00  0.00     0.111 A 
HETATM   16  N4  UNL     1      23.641   1.683  50.603  1.00  0.00    -0.240 NA
HETATM   17  C20 UNL     1      23.317   2.446  49.483  1.00  0.00     0.110 A 
HETATM   18  N5  UNL     1      24.504   5.196  51.068  1.00  0.00    -0.356 N 
HETATM   19  H13 UNL     1      21.786   5.580  49.909  1.00  0.00     0.161 HD
HETATM   20  H19 UNL     1      25.135   5.979  50.908  1.00  0.00     0.166 HD
ENDROOT
BRANCH   1  21
HETATM   21  N1  UNL     1      25.395   1.283  52.724  1.00  0.00    -0.315 N 
HETATM   22  C2  UNL     1      24.848   0.084  53.182  1.00  0.00     0.028 A 
HETATM   23  C1  UNL     1      23.712  -0.187  53.714  1.00  0.00     0.043 C 
HETATM   24  C3  UNL     1      25.806  -0.984  52.974  1.00  0.00     0.029 A 
HETATM   25  C4  UNL     1      26.885  -0.505  52.427  1.00  0.00     0.029 A 
HETATM   26  C5  UNL     1      26.713   0.931  52.235  1.00  0.00     0.252 A 
BRANCH  26  27
HETATM   27  O1  UNL     1      27.743   1.601  52.893  1.00  0.00    -0.368 OA
HETATM   28  C6  UNL     1      28.651   0.602  53.299  1.00  0.00     0.204 C 
ENDBRANCH  26  27
ENDBRANCH   1  21
TORSDOF 2
ENDMDL
MODEL 2
REMARK VINA RESULT:      -7.8      1.951      6.355
REMARK  2 active torsions:
REMARK  status: ('A' for Active; 'I' for Inactive)
REMARK    1  A    between atoms: C5_5  and  O1_6 
REMARK    2  A    between atoms: N1_8  and  C7_9 
ROOT
HETATM    1  C7  UNL     1      23.388   1.591  52.482  1.00  0.00     0.068 C 
HETATM    2  C8  UNL     1      22.359   1.111  53.219  1.00  0.00     0.034 C 
HETATM    3  C9  UNL     1      22.417   0.013  54.256  1.00  0.00     0.029 C 
HETATM    4  C10 UNL     1      23.473  -0.840  54.189  1.00  0.00     0.027 C 
HETATM    5  C11 UNL     1      24.216  -0.962  55.560  1.00  0.00     0.178 C 
HETATM    6  N2  UNL     1      25.410  -1.148  54.972  1.00  0.00    -0.367 N 
HETATM    7  C12 UNL     1      26.209  -0.173  54.191  1.00  0.00     0.153 C 
HETATM    8  N3  UNL     1      26.690   0.490  55.255  1.00  0.00    -0.242 NA
HETATM    9  C13 UNL     1      28.163   0.766  55.225  1.00  0.00     0.115 C 
HETATM   10  C14 UNL     1      29.043   0.527  54.171  1.00  0.00    -0.003 C 
HETATM   11  C15 UNL     1      28.829  -0.348  52.920  1.00  0.00     0.069 C 
HETATM   12  C16 UNL     1      27.433  -0.811  52.843  1.00  0.00    -0.020 A 
HETATM   13  C17 UNL     1      26.121  -1.348  52.777  1.00  0.00     0.041 A 
HETATM   14  C18 UNL     1      24.987  -0.489  52.657  1.00  0.00     0.064 A 
HETATM   15  C19 UNL     1      24.671   0.927  52.559  1.00  0.00     0.111 A 
HETATM   16  N4  UNL     1      25.942   1.522  52.608  1.00  0.00    -0.240 NA
HETATM   17  C20 UNL     1      26.728   0.378  52.726  1.00  0.00     0.110 A 
HETATM   18  N5  UNL     1      23.905  -1.489  52.893  1.00  0.00    -0.356 N 
HETATM   19  H13 UNL     1      25.849  -2.088  55.072  1.00  0.00     0.161 HD
HETATM   20  H19 UNL     1      23.489  -2.318  52.473  1.00  0.00     0.166 HD
ENDROOT
BRANCH   1  21
HETATM   21  N1  UNL     1      23.600   2.650  51.620  1.00  0.00    -0.315 N 
HETATM   22  C2  UNL     1      23.736   3.999  51.951  1.00  0.00     0.028 A 
HETATM   23  C1  UNL     1      23.691   4.609  53.078  1.00  0.00     0.043 C 
HETATM   24  C3  UNL     1      23.970   4.762  50.741  1.00  0.00     0.029 A 
HETATM   25  C4  UNL     1      23.980   3.963  49.713  1.00  0.00     0.029 A 
HETATM   26  C5  UNL     1      23.749   2.600  50.180  1.00  0.00     0.252 A 
BRANCH  26  27
HETATM   27  O1  UNL     1      22.631   2.083  49.527  1.00  0.00    -0.368 OA
HETATM   28  C6  UNL     1      22.752   2.488  48.181  1.00  0.00     0.204 C 
ENDBRANCH  26  27
ENDBRANCH   1  21
TORSDOF 2
ENDMDL
MODEL 3
REMARK VINA RESULT:      -7.7      2.354      5.632
REMARK  2 active torsions:
REMARK  status: ('A' for Active; 'I' for Inactive)
REMARK    1  A    between atoms: C5_5  and  O1_6 
REMARK    2  A    between atoms: N1_8  and  C7_9 
ROOT
HETATM    1  C7  UNL     1      22.324   2.860  50.803  1.00  0.00     0.068 C 
HETATM    2  C8  UNL     1      22.679   3.828  49.925  1.00  0.00     0.034 C 
HETATM    3  C9  UNL     1      24.054   4.426  49.737  1.00  0.00     0.029 C 
HETATM    4  C10 UNL     1      24.930   4.288  50.766  1.00  0.00     0.027 C 
HETATM    5  C11 UNL     1      26.294   3.679  50.298  1.00  0.00     0.178 C 
HETATM    6  N2  UNL     1      26.487   3.042  51.465  1.00  0.00    -0.367 N 
HETATM    7  C12 UNL     1      25.727   1.895  52.020  1.00  0.00     0.153 C 
HETATM    8  N3  UNL     1      26.323   0.960  51.262  1.00  0.00    -0.242 NA
HETATM    9  C13 UNL     1      26.776  -0.266  51.996  1.00  0.00     0.115 C 
HETATM   10  C14 UNL     1      26.532  -0.586  53.330  1.00  0.00    -0.003 C 
HETATM   11  C15 UNL     1      26.034   0.332  54.463  1.00  0.00     0.069 C 
HETATM   12  C16 UNL     1      25.642   1.648  53.932  1.00  0.00    -0.020 A 
HETATM   13  C17 UNL     1      25.334   2.955  53.473  1.00  0.00     0.041 A 
HETATM   14  C18 UNL     1      24.288   3.168  52.525  1.00  0.00     0.064 A 
HETATM   15  C19 UNL     1      23.296   2.412  51.778  1.00  0.00     0.111 A 
HETATM   16  N4  UNL     1      23.541   1.095  52.198  1.00  0.00    -0.240 NA
HETATM   17  C20 UNL     1      24.597   1.327  53.077  1.00  0.00     0.110 A 
HETATM   18  N5  UNL     1      24.551   4.599  52.197  1.00  0.00    -0.356 N 
HETATM   19  H13 UNL     1      27.267   3.378  52.068  1.00  0.00     0.161 HD
HETATM   20  H19 UNL     1      24.535   5.524  52.623  1.00  0.00     0.166 HD
ENDROOT
BRANCH   1  21
HETATM   21  N1  UNL     1      21.211   2.078  51.042  1.00  0.00    -0.315 N 
HETATM   22  C2  UNL     1      20.722   1.036  50.253  1.00  0.00     0.028 A 
HETATM   23  C1  UNL     1      21.129   0.544  49.141  1.00  0.00     0.043 C 
HETATM   24  C3  UNL     1      19.548   0.472  50.890  1.00  0.00     0.029 A 
HETATM   25  C4  UNL     1      19.303   1.106  51.999  1.00  0.00     0.029 A 
HETATM   26  C5  UNL     1      20.310   2.147  52.174  1.00  0.00     0.252 A 
BRANCH  26  27
HETATM   27  O1  UNL     1      19.669   3.379  52.295  1.00  0.00    -0.368 OA
HETATM   28  C6  UNL     1      18.428   3.230  51.642  1.00  0.00     0.204 C 
ENDBRANCH  26  27
ENDBRANCH   1  21
TORSDOF 2
ENDMDL
MODEL 4
REMARK VINA RESULT:      -7.6      1.236      2.019
REMARK  2 active torsions:
REMARK  status: ('A' for Active; 'I' for Inactive)
REMARK    1  A    between atoms: C5_5  and  O1_6 
REMARK    2  A    between atoms: N1_8  and  C7_9 
ROOT
HETATM    1  C7  UNL     1      24.352   2.679  52.706  1.00  0.00     0.068 C 
HETATM    2  C8  UNL     1      24.238   3.757  53.517  1.00  0.00     0.034 C 
HETATM    3  C9  UNL     1      23.571   5.073  53.192  1.00  0.00     0.029 C 
HETATM    4  C10 UNL     1      23.411   5.373  51.876  1.00  0.00     0.027 C 
HETATM    5  C11 UNL     1      21.932   5.755  51.537  1.00  0.00     0.178 C 
HETATM    6  N2  UNL     1      22.011   5.234  50.300  1.00  0.00    -0.367 N 
HETATM    7  C12 UNL     1      22.135   3.808  49.912  1.00  0.00     0.153 C 
HETATM    8  N3  UNL     1      20.840   3.504  50.099  1.00  0.00    -0.242 NA
HETATM    9  C13 UNL     1      20.202   2.719  48.993  1.00  0.00     0.115 C 
HETATM   10  C14 UNL     1      20.832   2.171  47.877  1.00  0.00    -0.003 C 
HETATM   11  C15 UNL     1      22.234   2.479  47.318  1.00  0.00     0.069 C 
HETATM   12  C16 UNL     1      22.982   3.350  48.241  1.00  0.00    -0.020 A 
HETATM   13  C17 UNL     1      23.704   4.255  49.060  1.00  0.00     0.041 A 
HETATM   14  C18 UNL     1      24.059   3.905  50.397  1.00  0.00     0.064 A 
HETATM   15  C19 UNL     1      23.927   2.795  51.327  1.00  0.00     0.111 A 
HETATM   16  N4  UNL     1      23.222   1.848  50.567  1.00  0.00    -0.240 NA
HETATM   17  C20 UNL     1      23.079   2.566  49.381  1.00  0.00     0.110 A 
HETATM   18  N5  UNL     1      24.535   5.236  50.874  1.00  0.00    -0.356 N 
HETATM   19  H13 UNL     1      21.976   5.900  49.500  1.00  0.00     0.161 HD
HETATM   20  H19 UNL     1      25.278   5.914  50.713  1.00  0.00     0.166 HD
ENDROOT
BRANCH   1  21
HETATM   21  N1  UNL     1      24.765   1.367  52.829  1.00  0.00    -0.315 N 
HETATM   22  C2  UNL     1      25.919   0.787  52.300  1.00  0.00     0.028 A 
HETATM   23  C1  UNL     1      26.862   1.271  51.577  1.00  0.00     0.043 C 
HETATM   24  C3  UNL     1      25.972  -0.607  52.694  1.00  0.00     0.029 A 
HETATM   25  C4  UNL     1      24.931  -0.899  53.418  1.00  0.00     0.029 A 
HETATM   26  C5  UNL     1      24.106   0.298  53.553  1.00  0.00     0.252 A 
BRANCH  26  27
HETATM   27  O1  UNL     1      22.825   0.019  53.079  1.00  0.00    -0.368 OA
HETATM   28  C6  UNL     1      22.366  -1.076  53.839  1.00  0.00     0.204 C 
ENDBRANCH  26  27
ENDBRANCH   1  21
TORSDOF 2
ENDMDL
MODEL 5
REMARK VINA RESULT:      -7.5     10.327     12.325
REMARK  2 active torsions:
REMARK  status: ('A' for Active; 'I' for Inactive)
REMARK    1  A    between atoms: C5_5  and  O1_6 
REMARK    2  A    between atoms: N1_8  and  C7_9 
ROOT
HETATM    1  C7  UNL     1      34.108   5.531  44.533  1.00  0.00     0.068 C 
HETATM    2  C8  UNL     1      34.840   4.402  44.680  1.00  0.00     0.034 C 
HETATM    3  C9  UNL     1      34.929   3.530  45.911  1.00  0.00     0.029 C 
HETATM    4  C10 UNL     1      34.577   4.099  47.094  1.00  0.00     0.027 C 
HETATM    5  C11 UNL     1      33.517   3.244  47.864  1.00  0.00     0.178 C 
HETATM    6  N2  UNL     1      32.933   4.328  48.402  1.00  0.00    -0.367 N 
HETATM    7  C12 UNL     1      32.147   5.382  47.715  1.00  0.00     0.153 C 
HETATM    8  N3  UNL     1      31.017   4.662  47.615  1.00  0.00    -0.242 NA
HETATM    9  C13 UNL     1      29.764   5.382  48.014  1.00  0.00     0.115 C 
HETATM   10  C14 UNL     1      29.635   6.729  48.344  1.00  0.00    -0.003 C 
HETATM   11  C15 UNL     1      30.742   7.742  48.698  1.00  0.00     0.069 C 
HETATM   12  C16 UNL     1      32.075   7.156  48.469  1.00  0.00    -0.020 A 
HETATM   13  C17 UNL     1      33.374   6.602  48.343  1.00  0.00     0.041 A 
HETATM   14  C18 UNL     1      33.859   6.160  47.075  1.00  0.00     0.064 A 
HETATM   15  C19 UNL     1      33.429   6.079  45.688  1.00  0.00     0.111 A 
HETATM   16  N4  UNL     1      32.138   6.628  45.741  1.00  0.00    -0.240 NA
HETATM   17  C20 UNL     1      32.063   6.910  47.104  1.00  0.00     0.110 A 
HETATM   18  N5  UNL     1      35.094   5.453  47.524  1.00  0.00    -0.356 N 
HETATM   19  H13 UNL     1      33.030   4.460  49.431  1.00  0.00     0.161 HD
HETATM   20  H19 UNL     1      35.998   5.638  47.955  1.00  0.00     0.166 HD
ENDROOT
BRANCH   1  21
HETATM   21  N1  UNL     1      33.761   6.377  43.497  1.00  0.00    -0.315 N 
HETATM   22  C2  UNL     1      33.190   6.029  42.273  1.00  0.00     0.028 A 
HETATM   23  C1  UNL     1      32.857   4.893  41.780  1.00  0.00     0.043 C 
HETATM   24  C3  UNL     1      32.969   7.232  41.494  1.00  0.00     0.029 A 
HETATM   25  C4  UNL     1      33.370   8.270  42.167  1.00  0.00     0.029 A 
HETATM   26  C5  UNL     1      33.893   7.819  43.453  1.00  0.00     0.252 A 
BRANCH  26  27
HETATM   27  O1  UNL     1      35.210   8.258  43.584  1.00  0.00    -0.368 OA
HETATM   28  C6  UNL     1      35.184   9.256  44.580  1.00  0.00     0.204 C 
ENDBRANCH  26  27
ENDBRANCH   1  21
TORSDOF 2
ENDMDL
MODEL 6
REMARK VINA RESULT:      -7.3      8.668     10.886
REMARK  2 active torsions:
REMARK  status: ('A' for Active; 'I' for Inactive)
REMARK    1  A    between atoms: C5_5  and  O1_6 
REMARK    2  A    between atoms: N1_8  and  C7_9 
ROOT
HETATM    1  C7  UNL     1      30.567   8.770  47.469  1.00  0.00     0.068 C 
HETATM    2  C8  UNL     1      31.320   9.872  47.245  1.00  0.00     0.034 C 
HETATM    3  C9  UNL     1      32.812   9.922  47.011  1.00  0.00     0.029 C 
HETATM    4  C10 UNL     1      33.537   8.854  47.437  1.00  0.00     0.027 C 
HETATM    5  C11 UNL     1      34.451   8.277  46.305  1.00  0.00     0.178 C 
HETATM    6  N2  UNL     1      34.340   7.020  46.765  1.00  0.00    -0.367 N 
HETATM    7  C12 UNL     1      33.141   6.147  46.769  1.00  0.00     0.153 C 
HETATM    8  N3  UNL     1      33.220   5.805  45.473  1.00  0.00    -0.242 NA
HETATM    9  C13 UNL     1      33.057   4.342  45.187  1.00  0.00     0.115 C 
HETATM   10  C14 UNL     1      32.711   3.341  46.092  1.00  0.00    -0.003 C 
HETATM   11  C15 UNL     1      32.717   3.393  47.632  1.00  0.00     0.069 C 
HETATM   12  C16 UNL     1      32.978   4.764  48.104  1.00  0.00    -0.020 A 
HETATM   13  C17 UNL     1      33.310   6.050  48.600  1.00  0.00     0.041 A 
HETATM   14  C18 UNL     1      32.471   7.174  48.332  1.00  0.00     0.064 A 
HETATM   15  C19 UNL     1      31.230   7.495  47.646  1.00  0.00     0.111 A 
HETATM   16  N4  UNL     1      30.838   6.248  47.136  1.00  0.00    -0.240 NA
HETATM   17  C20 UNL     1      31.892   5.465  47.602  1.00  0.00     0.110 A 
HETATM   18  N5  UNL     1      33.368   8.263  48.818  1.00  0.00    -0.356 N 
HETATM   19  H13 UNL     1      35.196   6.583  47.169  1.00  0.00     0.161 HD
HETATM   20  H19 UNL     1      33.793   8.615  49.674  1.00  0.00     0.166 HD
ENDROOT
BRANCH   1  21
HETATM   21  N1  UNL     1      29.221   8.471  47.554  1.00  0.00    -0.315 N 
HETATM   22  C2  UNL     1      28.317   8.323  46.501  1.00  0.00     0.028 A 
HETATM   23  C1  UNL     1      28.462   8.430  45.231  1.00  0.00     0.043 C 
HETATM   24  C3  UNL     1      27.014   7.986  47.040  1.00  0.00     0.029 A 
HETATM   25  C4  UNL     1      27.077   7.926  48.338  1.00  0.00     0.029 A 
HETATM   26  C5  UNL     1      28.445   8.224  48.752  1.00  0.00     0.252 A 
BRANCH  26  27
HETATM   27  O1  UNL     1      28.424   9.307  49.629  1.00  0.00    -0.368 OA
HETATM   28  C6  UNL     1      27.207   9.205  50.335  1.00  0.00     0.204 C 
ENDBRANCH  26  27
ENDBRANCH   1  21
TORSDOF 2
ENDMDL
MODEL 7
REMARK VINA RESULT:      -7.3      9.207     10.792
REMARK  2 active torsions:
REMARK  status: ('A' for Active; 'I' for Inactive)
REMARK    1  A    between atoms: C5_5  and  O1_6 
REMARK    2  A    between atoms: N1_8  and  C7_9 
ROOT
HETATM    1  C7  UNL     1      31.436   5.878  47.443  1.00  0.00     0.068 C 
HETATM    2  C8  UNL     1      30.202   5.453  47.803  1.00  0.00     0.034 C 
HETATM    3  C9  UNL     1      28.987   6.311  48.071  1.00  0.00     0.029 C 
HETATM    4  C10 UNL     1      29.210   7.619  48.364  1.00  0.00     0.027 C 
HETATM    5  C11 UNL     1      28.369   8.576  47.456  1.00  0.00     0.178 C 
HETATM    6  N2  UNL     1      29.318   9.527  47.464  1.00  0.00    -0.367 N 
HETATM    7  C12 UNL     1      30.661   9.487  46.835  1.00  0.00     0.153 C 
HETATM    8  N3  UNL     1      30.232   9.741  45.588  1.00  0.00    -0.242 NA
HETATM    9  C13 UNL     1      31.010  10.785  44.844  1.00  0.00     0.115 C 
HETATM   10  C14 UNL     1      32.184  11.412  45.256  1.00  0.00    -0.003 C 
HETATM   11  C15 UNL     1      32.810  11.452  46.664  1.00  0.00     0.069 C 
HETATM   12  C16 UNL     1      32.089  10.550  47.579  1.00  0.00    -0.020 A 
HETATM   13  C17 UNL     1      31.371   9.758  48.511  1.00  0.00     0.041 A 
HETATM   14  C18 UNL     1      31.268   8.344  48.342  1.00  0.00     0.064 A 
HETATM   15  C19 UNL     1      31.709   7.300  47.431  1.00  0.00     0.111 A 
HETATM   16  N4  UNL     1      32.443   8.023  46.478  1.00  0.00    -0.240 NA
HETATM   17  C20 UNL     1      32.292   9.307  46.995  1.00  0.00     0.110 A 
HETATM   18  N5  UNL     1      30.240   8.054  49.383  1.00  0.00    -0.356 N 
HETATM   19  H13 UNL     1      29.100  10.414  47.965  1.00  0.00     0.161 HD
HETATM   20  H19 UNL     1      30.108   8.076  50.393  1.00  0.00     0.166 HD
ENDROOT
BRANCH   1  21
HETATM   21  N1  UNL     1      32.613   5.299  47.011  1.00  0.00    -0.315 N 
HETATM   22  C2  UNL     1      33.827   5.233  47.696  1.00  0.00     0.028 A 
HETATM   23  C1  UNL     1      34.184   5.679  48.845  1.00  0.00     0.043 C 
HETATM   24  C3  UNL     1      34.790   4.514  46.885  1.00  0.00     0.029 A 
HETATM   25  C4  UNL     1      34.235   4.149  45.766  1.00  0.00     0.029 A 
HETATM   26  C5  UNL     1      32.850   4.609  45.760  1.00  0.00     0.252 A 
BRANCH  26  27
HETATM   27  O1  UNL     1      32.647   5.413  44.639  1.00  0.00    -0.368 OA
HETATM   28  C6  UNL     1      33.319   4.769  43.579  1.00  0.00     0.204 C 
ENDBRANCH  26  27
ENDBRANCH   1  21
TORSDOF 2
ENDMDL
MODEL 8
REMARK VINA RESULT:      -7.2      3.404      4.682
REMARK  2 active torsions:
REMARK  status: ('A' for Active; 'I' for Inactive)
REMARK    1  A    between atoms: C5_5  and  O1_6 
REMARK    2  A    between atoms: N1_8  and  C7_9 
ROOT
HETATM    1  C7  UNL     1      24.412   5.342  50.534  1.00  0.00     0.068 C 
HETATM    2  C8  UNL     1      24.104   4.991  51.805  1.00  0.00     0.034 C 
HETATM    3  C9  UNL     1      22.728   4.719  52.365  1.00  0.00     0.029 C 
HETATM    4  C10 UNL     1      21.672   5.233  51.680  1.00  0.00     0.027 C 
HETATM    5  C11 UNL     1      20.595   4.145  51.359  1.00  0.00     0.178 C 
HETATM    6  N2  UNL     1      20.251   4.732  50.200  1.00  0.00    -0.367 N 
HETATM    7  C12 UNL     1      21.055   4.852  48.959  1.00  0.00     0.153 C 
HETATM    8  N3  UNL     1      20.838   3.595  48.537  1.00  0.00    -0.242 NA
HETATM    9  C13 UNL     1      20.457   3.461  47.093  1.00  0.00     0.115 C 
HETATM   10  C14 UNL     1      20.432   4.471  46.133  1.00  0.00    -0.003 C 
HETATM   11  C15 UNL     1      20.468   5.997  46.341  1.00  0.00     0.069 C 
HETATM   12  C16 UNL     1      20.727   6.323  47.754  1.00  0.00    -0.020 A 
HETATM   13  C17 UNL     1      20.889   6.678  49.118  1.00  0.00     0.041 A 
HETATM   14  C18 UNL     1      22.073   6.318  49.830  1.00  0.00     0.064 A 
HETATM   15  C19 UNL     1      23.336   5.632  49.610  1.00  0.00     0.111 A 
HETATM   16  N4  UNL     1      23.244   5.259  48.259  1.00  0.00    -0.240 NA
HETATM   17  C20 UNL     1      21.985   5.777  47.962  1.00  0.00     0.110 A 
HETATM   18  N5  UNL     1      21.637   6.671  51.212  1.00  0.00    -0.356 N 
HETATM   19  H13 UNL     1      19.302   5.158  50.145  1.00  0.00     0.161 HD
HETATM   20  H19 UNL     1      21.381   7.477  51.779  1.00  0.00     0.166 HD
ENDROOT
BRANCH   1  21
HETATM   21  N1  UNL     1      25.561   5.488  49.780  1.00  0.00    -0.315 N 
HETATM   22  C2  UNL     1      26.455   4.488  49.396  1.00  0.00     0.028 A 
HETATM   23  C1  UNL     1      26.476   3.227  49.630  1.00  0.00     0.043 C 
HETATM   24  C3  UNL     1      27.507   5.078  48.592  1.00  0.00     0.029 A 
HETATM   25  C4  UNL     1      27.304   6.357  48.473  1.00  0.00     0.029 A 
HETATM   26  C5  UNL     1      26.088   6.706  49.201  1.00  0.00     0.252 A 
BRANCH  26  27
HETATM   27  O1  UNL     1      26.394   7.681  50.150  1.00  0.00    -0.368 OA
HETATM   28  C6  UNL     1      25.650   8.821  49.781  1.00  0.00     0.204 C 
ENDBRANCH  26  27
ENDBRANCH   1  21
TORSDOF 2
ENDMDL
MODEL 9
REMARK VINA RESULT:      -7.1      9.530     11.052
REMARK  2 active torsions:
REMARK  status: ('A' for Active; 'I' for Inactive)
REMARK    1  A    between atoms: C5_5  and  O1_6 
REMARK    2  A    between atoms: N1_8  and  C7_9 
ROOT
HETATM    1  C7  UNL     1      33.969   7.279  46.634  1.00  0.00     0.068 C 
HETATM    2  C8  UNL     1      34.745   8.379  46.485  1.00  0.00     0.034 C 
HETATM    3  C9  UNL     1      34.280   9.814  46.396  1.00  0.00     0.029 C 
HETATM    4  C10 UNL     1      32.984  10.020  46.045  1.00  0.00     0.027 C 
HETATM    5  C11 UNL     1      32.244  10.958  47.056  1.00  0.00     0.178 C 
HETATM    6  N2  UNL     1      31.068  10.333  46.878  1.00  0.00    -0.367 N 
HETATM    7  C12 UNL     1      30.689   8.957  47.286  1.00  0.00     0.153 C 
HETATM    8  N3  UNL     1      30.485   9.252  48.580  1.00  0.00    -0.242 NA
HETATM    9  C13 UNL     1      29.219   8.706  49.168  1.00  0.00     0.115 C 
HETATM   10  C14 UNL     1      28.317   7.834  48.562  1.00  0.00    -0.003 C 
HETATM   11  C15 UNL     1      28.195   7.460  47.072  1.00  0.00     0.069 C 
HETATM   12  C16 UNL     1      29.320   8.019  46.302  1.00  0.00    -0.020 A 
HETATM   13  C17 UNL     1      30.340   8.609  45.512  1.00  0.00     0.041 A 
HETATM   14  C18 UNL     1      31.712   8.277  45.724  1.00  0.00     0.064 A 
HETATM   15  C19 UNL     1      32.530   7.426  46.574  1.00  0.00     0.111 A 
HETATM   16  N4  UNL     1      31.570   6.798  47.383  1.00  0.00    -0.240 NA
HETATM   17  C20 UNL     1      30.416   7.386  46.871  1.00  0.00     0.110 A 
HETATM   18  N5  UNL     1      32.345   9.320  44.866  1.00  0.00    -0.356 N 
HETATM   19  H13 UNL     1      30.312  10.867  46.400  1.00  0.00     0.161 HD
HETATM   20  H19 UNL     1      32.426   9.600  43.891  1.00  0.00     0.166 HD
ENDROOT
BRANCH   1  21
HETATM   21  N1  UNL     1      34.167   5.935  46.884  1.00  0.00    -0.315 N 
HETATM   22  C2  UNL     1      34.779   5.360  47.998  1.00  0.00     0.028 A 
HETATM   23  C1  UNL     1      35.316   5.882  49.040  1.00  0.00     0.043 C 
HETATM   24  C3  UNL     1      34.751   3.918  47.863  1.00  0.00     0.029 A 
HETATM   25  C4  UNL     1      34.168   3.593  46.746  1.00  0.00     0.029 A 
HETATM   26  C5  UNL     1      33.766   4.815  46.057  1.00  0.00     0.252 A 
BRANCH  26  27
HETATM   27  O1  UNL     1      34.346   4.830  44.789  1.00  0.00    -0.368 OA
HETATM   28  C6  UNL     1      33.271   4.801  43.877  1.00  0.00     0.204 C 
ENDBRANCH  26  27
ENDBRANCH   1  21
TORSDOF 2
ENDMDL
