MODEL 1
REMARK VINA RESULT:      -7.7      0.000      0.000
REMARK  9 active torsions:
REMARK  status: ('A' for Active; 'I' for Inactive)
REMARK    1  A    between atoms: C2_2  and  C3_3 
REMARK       I    between atoms: C3_3  and  N1_5 
REMARK    2  A    between atoms: N1_5  and  C4_6 
REMARK    3  A    between atoms: C4_6  and  C5_7 
REMARK    4  A    between atoms: C5_7  and  C6_8 
REMARK    5  A    between atoms: C7_9  and  O2_10 
REMARK    6  A    between atoms: C10_13  and  N2_14 
REMARK    7  A    between atoms: N2_14  and  C12_16 
REMARK    8  A    between atoms: C12_16  and  C13_17 
REMARK    9  A    between atoms: C13_17  and  N3_18 
ROOT
HETATM    1  C6  UNL     1      25.469   3.319  50.102  1.00  0.00     0.208 C 
HETATM    2  C7  UNL     1      24.300   3.038  50.245  1.00  0.00     0.107 C 
HETATM    3  C9  UNL     1      22.919   2.639  50.601  1.00  0.00     0.065 C 
HETATM    4  C10 UNL     1      22.450   2.074  51.791  1.00  0.00     0.023 C 
HETATM    5  C16 UNL     1      23.472   1.631  52.873  1.00  0.00     0.068 A 
HETATM    6  C17 UNL     1      23.734   0.314  53.073  1.00  0.00     0.049 A 
HETATM    7  C18 UNL     1      25.202   0.690  53.090  1.00  0.00    -0.027 A 
HETATM    8  C19 UNL     1      26.383  -0.039  52.969  1.00  0.00     0.124 A 
HETATM    9  N4  UNL     1      27.332   0.829  52.301  1.00  0.00    -0.223 NA
HETATM   10  C20 UNL     1      26.672   2.035  52.049  1.00  0.00     0.577 A 
HETATM   11  N5  UNL     1      25.464   2.556  52.276  1.00  0.00     0.368 N 
HETATM   12  N6  UNL     1      24.536   1.779  52.911  1.00  0.00     0.000 N 
HETATM   13  C21 UNL     1      23.869   2.860  52.734  1.00  0.00     0.250 A 
HETATM   14  C22 UNL     1      23.666   4.289  52.634  1.00  0.00     0.056 C 
HETATM   15  N7  UNL     1      26.464   3.260  51.312  1.00  0.00     0.219 N 
HETATM   16  H29 UNL     1      27.205   3.635  52.011  1.00  0.00     0.332 HD
ENDROOT
BRANCH   1  17
HETATM   17  C5  UNL     1      26.666   3.738  49.568  1.00  0.00     0.060 C 
BRANCH  17  18
HETATM   18  C4  UNL     1      26.894   4.988  49.155  1.00  0.00     0.093 C 
BRANCH  18  19
HETATM   19  N1  UNL     1      26.712   6.387  49.384  1.00  0.00    -0.334 N 
HETATM   20  C3  UNL     1      25.799   7.211  50.078  1.00  0.00     0.244 C 
HETATM   21  O1  UNL     1      24.841   6.747  50.712  1.00  0.00    -0.268 OA
HETATM   22  H4  UNL     1      27.535   6.776  48.837  1.00  0.00     0.168 HD
BRANCH  20  23
HETATM   23  C2  UNL     1      26.070   8.627  49.992  1.00  0.00     0.064 C 
HETATM   24  C1  UNL     1      27.371   8.845  49.970  1.00  0.00     0.017 C 
ENDBRANCH  20  23
ENDBRANCH  18  19
ENDBRANCH  17  18
ENDBRANCH   1  17
BRANCH   2  25
HETATM   25  O2  UNL     1      24.149   3.478  48.904  1.00  0.00    -0.353 OA
HETATM   26  C8  UNL     1      23.082   4.354  48.564  1.00  0.00     0.210 C 
ENDBRANCH   2  25
BRANCH   4  27
HETATM   27  N2  UNL     1      21.145   1.743  52.042  1.00  0.00    -0.386 N 
HETATM   28  C11 UNL     1      20.153   2.694  52.492  1.00  0.00     0.149 C 
BRANCH  27  29
HETATM   29  C12 UNL     1      20.794   0.359  51.806  1.00  0.00     0.152 C 
BRANCH  29  30
HETATM   30  C13 UNL     1      19.317   0.054  52.086  1.00  0.00     0.291 C 
BRANCH  30  31
HETATM   31  N3  UNL     1      19.151  -0.541  53.378  1.00  0.00     0.081 N 
HETATM   32  C14 UNL     1      18.123  -1.574  53.301  1.00  0.00     0.309 C 
HETATM   33  C15 UNL     1      20.353  -1.207  53.823  1.00  0.00     0.309 C 
ENDBRANCH  30  31
ENDBRANCH  29  30
ENDBRANCH  27  29
ENDBRANCH   4  27
TORSDOF 9
ENDMDL
MODEL 2
REMARK VINA RESULT:      -7.6      1.477      1.638
REMARK  9 active torsions:
REMARK  status: ('A' for Active; 'I' for Inactive)
REMARK    1  A    between atoms: C2_2  and  C3_3 
REMARK       I    between atoms: C3_3  and  N1_5 
REMARK    2  A    between atoms: N1_5  and  C4_6 
REMARK    3  A    between atoms: C4_6  and  C5_7 
REMARK    4  A    between atoms: C5_7  and  C6_8 
REMARK    5  A    between atoms: C7_9  and  O2_10 
REMARK    6  A    between atoms: C10_13  and  N2_14 
REMARK    7  A    between atoms: N2_14  and  C12_16 
REMARK    8  A    between atoms: C12_16  and  C13_17 
REMARK    9  A    between atoms: C13_17  and  N3_18 
ROOT
HETATM    1  C6  UNL     1      25.402   3.223  50.033  1.00  0.00     0.208 C 
HETATM    2  C7  UNL     1      24.240   2.930  50.207  1.00  0.00     0.107 C 
HETATM    3  C9  UNL     1      22.870   2.532  50.605  1.00  0.00     0.065 C 
HETATM    4  C10 UNL     1      22.421   2.059  51.842  1.00  0.00     0.023 C 
HETATM    5  C16 UNL     1      23.458   1.730  52.949  1.00  0.00     0.068 A 
HETATM    6  C17 UNL     1      23.749   0.440  53.255  1.00  0.00     0.049 A 
HETATM    7  C18 UNL     1      25.209   0.846  53.230  1.00  0.00    -0.027 A 
HETATM    8  C19 UNL     1      26.405   0.135  53.162  1.00  0.00     0.124 A 
HETATM    9  N4  UNL     1      27.331   0.964  52.418  1.00  0.00    -0.223 NA
HETATM   10  C20 UNL     1      26.644   2.132  52.071  1.00  0.00     0.577 A 
HETATM   11  N5  UNL     1      25.426   2.644  52.262  1.00  0.00     0.368 N 
HETATM   12  N6  UNL     1      24.518   1.903  52.967  1.00  0.00     0.000 N 
HETATM   13  C21 UNL     1      23.827   2.950  52.706  1.00  0.00     0.250 A 
HETATM   14  C22 UNL     1      23.593   4.362  52.488  1.00  0.00     0.056 C 
HETATM   15  N7  UNL     1      26.405   3.286  51.236  1.00  0.00     0.219 N 
HETATM   16  H29 UNL     1      27.142   3.733  51.895  1.00  0.00     0.332 HD
ENDROOT
BRANCH   1  17
HETATM   17  C5  UNL     1      26.586   3.621  49.457  1.00  0.00     0.060 C 
BRANCH  17  18
HETATM   18  C4  UNL     1      26.912   4.900  49.245  1.00  0.00     0.093 C 
BRANCH  18  19
HETATM   19  N1  UNL     1      27.701   5.839  48.512  1.00  0.00    -0.334 N 
HETATM   20  C3  UNL     1      29.048   5.964  48.106  1.00  0.00     0.244 C 
HETATM   21  O1  UNL     1      29.902   5.110  48.380  1.00  0.00    -0.268 OA
HETATM   22  H4  UNL     1      26.962   6.567  48.283  1.00  0.00     0.168 HD
BRANCH  20  23
HETATM   23  C2  UNL     1      29.347   7.158  47.351  1.00  0.00     0.064 C 
HETATM   24  C1  UNL     1      28.236   7.800  47.046  1.00  0.00     0.017 C 
ENDBRANCH  20  23
ENDBRANCH  18  19
ENDBRANCH  17  18
ENDBRANCH   1  17
BRANCH   2  25
HETATM   25  O2  UNL     1      24.072   3.253  48.835  1.00  0.00    -0.353 OA
HETATM   26  C8  UNL     1      22.809   3.708  48.367  1.00  0.00     0.210 C 
ENDBRANCH   2  25
BRANCH   4  27
HETATM   27  N2  UNL     1      21.124   1.723  52.128  1.00  0.00    -0.386 N 
HETATM   28  C11 UNL     1      20.132   2.676  52.571  1.00  0.00     0.149 C 
BRANCH  27  29
HETATM   29  C12 UNL     1      20.783   0.329  51.939  1.00  0.00     0.152 C 
BRANCH  29  30
HETATM   30  C13 UNL     1      19.315   0.018  52.254  1.00  0.00     0.291 C 
BRANCH  30  31
HETATM   31  N3  UNL     1      19.191  -0.670  53.504  1.00  0.00     0.081 N 
HETATM   32  C14 UNL     1      18.202  -1.735  53.369  1.00  0.00     0.309 C 
HETATM   33  C15 UNL     1      20.424  -1.318  53.887  1.00  0.00     0.309 C 
ENDBRANCH  30  31
ENDBRANCH  29  30
ENDBRANCH  27  29
ENDBRANCH   4  27
TORSDOF 9
ENDMDL
MODEL 3
REMARK VINA RESULT:      -7.5      1.056      2.016
REMARK  9 active torsions:
REMARK  status: ('A' for Active; 'I' for Inactive)
REMARK    1  A    between atoms: C2_2  and  C3_3 
REMARK       I    between atoms: C3_3  and  N1_5 
REMARK    2  A    between atoms: N1_5  and  C4_6 
REMARK    3  A    between atoms: C4_6  and  C5_7 
REMARK    4  A    between atoms: C5_7  and  C6_8 
REMARK    5  A    between atoms: C7_9  and  O2_10 
REMARK    6  A    between atoms: C10_13  and  N2_14 
REMARK    7  A    between atoms: N2_14  and  C12_16 
REMARK    8  A    between atoms: C12_16  and  C13_17 
REMARK    9  A    between atoms: C13_17  and  N3_18 
ROOT
HETATM    1  C6  UNL     1      25.489   3.296  50.123  1.00  0.00     0.208 C 
HETATM    2  C7  UNL     1      24.332   2.958  50.233  1.00  0.00     0.107 C 
HETATM    3  C9  UNL     1      22.962   2.489  50.548  1.00  0.00     0.065 C 
HETATM    4  C10 UNL     1      22.491   1.890  51.720  1.00  0.00     0.023 C 
HETATM    5  C16 UNL     1      23.504   1.484  52.824  1.00  0.00     0.068 A 
HETATM    6  C17 UNL     1      23.824   0.179  53.017  1.00  0.00     0.049 A 
HETATM    7  C18 UNL     1      25.271   0.624  53.076  1.00  0.00    -0.027 A 
HETATM    8  C19 UNL     1      26.489  -0.046  52.980  1.00  0.00     0.124 A 
HETATM    9  N4  UNL     1      27.412   0.873  52.346  1.00  0.00    -0.223 NA
HETATM   10  C20 UNL     1      26.702   2.050  52.088  1.00  0.00     0.577 A 
HETATM   11  N5  UNL     1      25.465   2.510  52.288  1.00  0.00     0.368 N 
HETATM   12  N6  UNL     1      24.559   1.682  52.891  1.00  0.00     0.000 N 
HETATM   13  C21 UNL     1      23.846   2.732  52.708  1.00  0.00     0.250 A 
HETATM   14  C22 UNL     1      23.577   4.151  52.616  1.00  0.00     0.056 C 
HETATM   15  N7  UNL     1      26.455   3.271  51.358  1.00  0.00     0.219 N 
HETATM   16  H29 UNL     1      27.158   3.673  52.079  1.00  0.00     0.332 HD
ENDROOT
BRANCH   1  17
HETATM   17  C5  UNL     1      26.678   3.777  49.624  1.00  0.00     0.060 C 
BRANCH  17  18
HETATM   18  C4  UNL     1      26.842   5.028  49.185  1.00  0.00     0.093 C 
BRANCH  18  19
HETATM   19  N1  UNL     1      26.639   6.425  49.412  1.00  0.00    -0.334 N 
HETATM   20  C3  UNL     1      25.733   7.233  50.133  1.00  0.00     0.244 C 
HETATM   21  O1  UNL     1      24.807   6.753  50.802  1.00  0.00    -0.268 OA
HETATM   22  H4  UNL     1      27.434   6.828  48.834  1.00  0.00     0.168 HD
BRANCH  20  23
HETATM   23  C2  UNL     1      25.970   8.654  50.029  1.00  0.00     0.064 C 
HETATM   24  C1  UNL     1      27.257   8.915  50.153  1.00  0.00     0.017 C 
ENDBRANCH  20  23
ENDBRANCH  18  19
ENDBRANCH  17  18
ENDBRANCH   1  17
BRANCH   2  25
HETATM   25  O2  UNL     1      24.194   3.405  48.892  1.00  0.00    -0.353 OA
HETATM   26  C8  UNL     1      23.114   4.260  48.540  1.00  0.00     0.210 C 
ENDBRANCH   2  25
BRANCH   4  27
HETATM   27  N2  UNL     1      21.197   1.494  51.933  1.00  0.00    -0.386 N 
HETATM   28  C11 UNL     1      20.650   0.252  51.434  1.00  0.00     0.149 C 
BRANCH  27  29
HETATM   29  C12 UNL     1      20.388   2.398  52.722  1.00  0.00     0.152 C 
BRANCH  29  30
HETATM   30  C13 UNL     1      19.969   3.659  51.958  1.00  0.00     0.291 C 
BRANCH  30  31
HETATM   31  N3  UNL     1      19.026   3.346  50.926  1.00  0.00     0.081 N 
HETATM   32  C14 UNL     1      17.697   3.784  51.342  1.00  0.00     0.309 C 
HETATM   33  C15 UNL     1      19.313   4.054  49.700  1.00  0.00     0.309 C 
ENDBRANCH  30  31
ENDBRANCH  29  30
ENDBRANCH  27  29
ENDBRANCH   4  27
TORSDOF 9
ENDMDL
MODEL 4
REMARK VINA RESULT:      -7.4      2.318      6.616
REMARK  9 active torsions:
REMARK  status: ('A' for Active; 'I' for Inactive)
REMARK    1  A    between atoms: C2_2  and  C3_3 
REMARK       I    between atoms: C3_3  and  N1_5 
REMARK    2  A    between atoms: N1_5  and  C4_6 
REMARK    3  A    between atoms: C4_6  and  C5_7 
REMARK    4  A    between atoms: C5_7  and  C6_8 
REMARK    5  A    between atoms: C7_9  and  O2_10 
REMARK    6  A    between atoms: C10_13  and  N2_14 
REMARK    7  A    between atoms: N2_14  and  C12_16 
REMARK    8  A    between atoms: C12_16  and  C13_17 
REMARK    9  A    between atoms: C13_17  and  N3_18 
ROOT
HETATM    1  C6  UNL     1      24.264   0.715  52.713  1.00  0.00     0.208 C 
HETATM    2  C7  UNL     1      24.334   1.490  51.785  1.00  0.00     0.107 C 
HETATM    3  C9  UNL     1      24.237   2.486  50.694  1.00  0.00     0.065 C 
HETATM    4  C10 UNL     1      23.142   3.274  50.324  1.00  0.00     0.023 C 
HETATM    5  C16 UNL     1      21.765   3.020  50.994  1.00  0.00     0.068 A 
HETATM    6  C17 UNL     1      20.769   2.404  50.306  1.00  0.00     0.049 A 
HETATM    7  C18 UNL     1      20.546   1.557  51.542  1.00  0.00    -0.027 A 
HETATM    8  C19 UNL     1      19.867   0.364  51.781  1.00  0.00     0.124 A 
HETATM    9  N4  UNL     1      20.601  -0.321  52.825  1.00  0.00    -0.223 NA
HETATM   10  C20 UNL     1      21.688   0.492  53.159  1.00  0.00     0.577 A 
HETATM   11  N5  UNL     1      22.173   1.678  52.787  1.00  0.00     0.368 N 
HETATM   12  N6  UNL     1      21.510   2.368  51.810  1.00  0.00     0.000 N 
HETATM   13  C21 UNL     1      22.469   3.178  52.073  1.00  0.00     0.250 A 
HETATM   14  C22 UNL     1      23.437   3.858  52.907  1.00  0.00     0.056 C 
HETATM   15  N7  UNL     1      23.021   0.715  53.669  1.00  0.00     0.219 N 
HETATM   16  H29 UNL     1      22.493   0.771  54.614  1.00  0.00     0.332 HD
ENDROOT
BRANCH   1  17
HETATM   17  C5  UNL     1      24.563  -0.251  53.646  1.00  0.00     0.060 C 
BRANCH  17  18
HETATM   18  C4  UNL     1      25.783  -0.428  54.163  1.00  0.00     0.093 C 
BRANCH  18  19
HETATM   19  N1  UNL     1      27.181  -0.601  53.925  1.00  0.00    -0.334 N 
HETATM   20  C3  UNL     1      28.383   0.022  54.327  1.00  0.00     0.244 C 
HETATM   21  O1  UNL     1      28.397   0.997  55.092  1.00  0.00    -0.268 OA
HETATM   22  H4  UNL     1      27.159  -1.435  53.268  1.00  0.00     0.168 HD
BRANCH  20  23
HETATM   23  C2  UNL     1      29.585  -0.561  53.778  1.00  0.00     0.064 C 
HETATM   24  C1  UNL     1      29.338  -1.773  53.319  1.00  0.00     0.017 C 
ENDBRANCH  20  23
ENDBRANCH  18  19
ENDBRANCH  17  18
ENDBRANCH   1  17
BRANCH   2  25
HETATM   25  O2  UNL     1      25.652   0.989  51.616  1.00  0.00    -0.353 OA
HETATM   26  C8  UNL     1      26.726   1.891  51.387  1.00  0.00     0.210 C 
ENDBRANCH   2  25
BRANCH   4  27
HETATM   27  N2  UNL     1      23.141   4.185  49.302  1.00  0.00    -0.386 N 
HETATM   28  C11 UNL     1      22.644   3.895  47.975  1.00  0.00     0.149 C 
BRANCH  27  29
HETATM   29  C12 UNL     1      23.659   5.496  49.631  1.00  0.00     0.152 C 
BRANCH  29  30
HETATM   30  C13 UNL     1      24.390   6.168  48.462  1.00  0.00     0.291 C 
BRANCH  30  31
HETATM   31  N3  UNL     1      25.754   6.445  48.800  1.00  0.00     0.081 N 
HETATM   32  C14 UNL     1      25.799   7.145  50.081  1.00  0.00     0.309 C 
HETATM   33  C15 UNL     1      26.521   5.234  48.981  1.00  0.00     0.309 C 
ENDBRANCH  30  31
ENDBRANCH  29  30
ENDBRANCH  27  29
ENDBRANCH   4  27
TORSDOF 9
ENDMDL
MODEL 5
REMARK VINA RESULT:      -7.2      3.822      8.257
REMARK  9 active torsions:
REMARK  status: ('A' for Active; 'I' for Inactive)
REMARK    1  A    between atoms: C2_2  and  C3_3 
REMARK       I    between atoms: C3_3  and  N1_5 
REMARK    2  A    between atoms: N1_5  and  C4_6 
REMARK    3  A    between atoms: C4_6  and  C5_7 
REMARK    4  A    between atoms: C5_7  and  C6_8 
REMARK    5  A    between atoms: C7_9  and  O2_10 
REMARK    6  A    between atoms: C10_13  and  N2_14 
REMARK    7  A    between atoms: N2_14  and  C12_16 
REMARK    8  A    between atoms: C12_16  and  C13_17 
REMARK    9  A    between atoms: C13_17  and  N3_18 
ROOT
HETATM    1  C6  UNL     1      26.334   4.050  49.439  1.00  0.00     0.208 C 
HETATM    2  C7  UNL     1      26.555   5.133  48.946  1.00  0.00     0.107 C 
HETATM    3  C9  UNL     1      26.635   6.491  48.358  1.00  0.00     0.065 C 
HETATM    4  C10 UNL     1      25.598   7.390  48.091  1.00  0.00     0.023 C 
HETATM    5  C16 UNL     1      24.127   6.922  48.256  1.00  0.00     0.068 A 
HETATM    6  C17 UNL     1      23.360   6.668  47.166  1.00  0.00     0.049 A 
HETATM    7  C18 UNL     1      22.925   5.396  47.866  1.00  0.00    -0.027 A 
HETATM    8  C19 UNL     1      22.297   4.228  47.438  1.00  0.00     0.124 A 
HETATM    9  N4  UNL     1      22.824   3.157  48.259  1.00  0.00    -0.223 NA
HETATM   10  C20 UNL     1      23.746   3.734  49.138  1.00  0.00     0.577 A 
HETATM   11  N5  UNL     1      24.216   4.955  49.400  1.00  0.00     0.368 N 
HETATM   12  N6  UNL     1      23.743   6.001  48.657  1.00  0.00     0.000 N 
HETATM   13  C21 UNL     1      24.556   6.608  49.441  1.00  0.00     0.250 A 
HETATM   14  C22 UNL     1      25.260   6.862  50.680  1.00  0.00     0.056 C 
HETATM   15  N7  UNL     1      24.910   3.694  49.992  1.00  0.00     0.219 N 
HETATM   16  H29 UNL     1      24.179   3.373  50.727  1.00  0.00     0.332 HD
ENDROOT
BRANCH   1  17
HETATM   17  C5  UNL     1      26.483   2.779  49.946  1.00  0.00     0.060 C 
BRANCH  17  18
HETATM   18  C4  UNL     1      26.551   2.508  51.253  1.00  0.00     0.093 C 
BRANCH  18  19
HETATM   19  N1  UNL     1      27.122   1.712  52.293  1.00  0.00    -0.334 N 
HETATM   20  C3  UNL     1      28.198   1.817  53.202  1.00  0.00     0.244 C 
HETATM   21  O1  UNL     1      28.943   2.807  53.232  1.00  0.00    -0.268 OA
HETATM   22  H4  UNL     1      26.480   0.867  52.258  1.00  0.00     0.168 HD
BRANCH  20  23
HETATM   23  C2  UNL     1      28.361   0.687  54.085  1.00  0.00     0.064 C 
HETATM   24  C1  UNL     1      29.429  -0.010  53.748  1.00  0.00     0.017 C 
ENDBRANCH  20  23
ENDBRANCH  18  19
ENDBRANCH  17  18
ENDBRANCH   1  17
BRANCH   2  25
HETATM   25  O2  UNL     1      27.910   4.709  48.905  1.00  0.00    -0.353 OA
HETATM   26  C8  UNL     1      28.887   5.530  48.279  1.00  0.00     0.210 C 
ENDBRANCH   2  25
BRANCH   4  27
HETATM   27  N2  UNL     1      25.763   8.638  47.552  1.00  0.00    -0.386 N 
HETATM   28  C11 UNL     1      24.947   9.777  47.912  1.00  0.00     0.149 C 
BRANCH  27  29
HETATM   29  C12 UNL     1      26.839   8.769  46.594  1.00  0.00     0.152 C 
BRANCH  29  30
HETATM   30  C13 UNL     1      27.903   9.790  47.015  1.00  0.00     0.291 C 
BRANCH  30  31
HETATM   31  N3  UNL     1      28.987   9.151  47.698  1.00  0.00     0.081 N 
HETATM   32  C14 UNL     1      30.249   9.713  47.226  1.00  0.00     0.309 C 
HETATM   33  C15 UNL     1      28.948   9.399  49.121  1.00  0.00     0.309 C 
ENDBRANCH  30  31
ENDBRANCH  29  30
ENDBRANCH  27  29
ENDBRANCH   4  27
TORSDOF 9
ENDMDL
MODEL 6
REMARK VINA RESULT:      -7.0      2.635      6.306
REMARK  9 active torsions:
REMARK  status: ('A' for Active; 'I' for Inactive)
REMARK    1  A    between atoms: C2_2  and  C3_3 
REMARK       I    between atoms: C3_3  and  N1_5 
REMARK    2  A    between atoms: N1_5  and  C4_6 
REMARK    3  A    between atoms: C4_6  and  C5_7 
REMARK    4  A    between atoms: C5_7  and  C6_8 
REMARK    5  A    between atoms: C7_9  and  O2_10 
REMARK    6  A    between atoms: C10_13  and  N2_14 
REMARK    7  A    between atoms: N2_14  and  C12_16 
REMARK    8  A    between atoms: C12_16  and  C13_17 
REMARK    9  A    between atoms: C13_17  and  N3_18 
ROOT
HETATM    1  C6  UNL     1      24.272   2.224  51.310  1.00  0.00     0.208 C 
HETATM    2  C7  UNL     1      23.795   3.172  50.729  1.00  0.00     0.107 C 
HETATM    3  C9  UNL     1      23.068   4.327  50.150  1.00  0.00     0.065 C 
HETATM    4  C10 UNL     1      21.859   4.895  50.564  1.00  0.00     0.023 C 
HETATM    5  C16 UNL     1      21.027   4.188  51.667  1.00  0.00     0.068 A 
HETATM    6  C17 UNL     1      19.892   3.517  51.347  1.00  0.00     0.049 A 
HETATM    7  C18 UNL     1      20.397   2.398  52.236  1.00  0.00    -0.027 A 
HETATM    8  C19 UNL     1      20.052   1.056  52.384  1.00  0.00     0.124 A 
HETATM    9  N4  UNL     1      21.272   0.357  52.731  1.00  0.00    -0.223 NA
HETATM   10  C20 UNL     1      22.292   1.312  52.770  1.00  0.00     0.577 A 
HETATM   11  N5  UNL     1      22.404   2.631  52.595  1.00  0.00     0.368 N 
HETATM   12  N6  UNL     1      21.278   3.337  52.274  1.00  0.00     0.000 N 
HETATM   13  C21 UNL     1      22.152   4.275  52.310  1.00  0.00     0.250 A 
HETATM   14  C22 UNL     1      23.329   4.970  52.784  1.00  0.00     0.056 C 
HETATM   15  N7  UNL     1      23.671   1.729  52.671  1.00  0.00     0.219 N 
HETATM   16  H29 UNL     1      23.677   1.457  53.721  1.00  0.00     0.332 HD
ENDROOT
BRANCH   1  17
HETATM   17  C5  UNL     1      25.091   1.180  51.674  1.00  0.00     0.060 C 
BRANCH  17  18
HETATM   18  C4  UNL     1      26.118   1.305  52.520  1.00  0.00     0.093 C 
BRANCH  18  19
HETATM   19  N1  UNL     1      27.421   0.868  52.910  1.00  0.00    -0.334 N 
HETATM   20  C3  UNL     1      27.988   0.119  53.964  1.00  0.00     0.244 C 
HETATM   21  O1  UNL     1      27.301  -0.359  54.878  1.00  0.00    -0.268 OA
HETATM   22  H4  UNL     1      28.003   1.283  52.124  1.00  0.00     0.168 HD
BRANCH  20  23
HETATM   23  C2  UNL     1      29.421  -0.044  53.894  1.00  0.00     0.064 C 
HETATM   24  C1  UNL     1      29.725  -1.236  53.417  1.00  0.00     0.017 C 
ENDBRANCH  20  23
ENDBRANCH  18  19
ENDBRANCH  17  18
ENDBRANCH   1  17
BRANCH   2  25
HETATM   25  O2  UNL     1      24.900   3.042  49.847  1.00  0.00    -0.353 OA
HETATM   26  C8  UNL     1      25.694   4.181  49.538  1.00  0.00     0.210 C 
ENDBRANCH   2  25
BRANCH   4  27
HETATM   27  N2  UNL     1      21.260   5.976  49.974  1.00  0.00    -0.386 N 
HETATM   28  C11 UNL     1      20.353   5.873  48.853  1.00  0.00     0.149 C 
BRANCH  27  29
HETATM   29  C12 UNL     1      21.572   7.262  50.561  1.00  0.00     0.152 C 
BRANCH  29  30
HETATM   30  C13 UNL     1      21.910   8.336  49.520  1.00  0.00     0.291 C 
BRANCH  30  31
HETATM   31  N3  UNL     1      23.323   8.550  49.441  1.00  0.00     0.081 N 
HETATM   32  C14 UNL     1      23.951   8.058  50.663  1.00  0.00     0.309 C 
HETATM   33  C15 UNL     1      23.921   7.804  48.358  1.00  0.00     0.309 C 
ENDBRANCH  30  31
ENDBRANCH  29  30
ENDBRANCH  27  29
ENDBRANCH   4  27
TORSDOF 9
ENDMDL
MODEL 7
REMARK VINA RESULT:      -6.9      3.736      8.085
REMARK  9 active torsions:
REMARK  status: ('A' for Active; 'I' for Inactive)
REMARK    1  A    between atoms: C2_2  and  C3_3 
REMARK       I    between atoms: C3_3  and  N1_5 
REMARK    2  A    between atoms: N1_5  and  C4_6 
REMARK    3  A    between atoms: C4_6  and  C5_7 
REMARK    4  A    between atoms: C5_7  and  C6_8 
REMARK    5  A    between atoms: C7_9  and  O2_10 
REMARK    6  A    between atoms: C10_13  and  N2_14 
REMARK    7  A    between atoms: N2_14  and  C12_16 
REMARK    8  A    between atoms: C12_16  and  C13_17 
REMARK    9  A    between atoms: C13_17  and  N3_18 
ROOT
HETATM    1  C6  UNL     1      26.266   3.937  49.582  1.00  0.00     0.208 C 
HETATM    2  C7  UNL     1      26.434   5.006  49.040  1.00  0.00     0.107 C 
HETATM    3  C9  UNL     1      26.448   6.340  48.396  1.00  0.00     0.065 C 
HETATM    4  C10 UNL     1      25.372   7.189  48.118  1.00  0.00     0.023 C 
HETATM    5  C16 UNL     1      23.924   6.673  48.339  1.00  0.00     0.068 A 
HETATM    6  C17 UNL     1      23.142   6.346  47.279  1.00  0.00     0.049 A 
HETATM    7  C18 UNL     1      22.772   5.090  48.041  1.00  0.00    -0.027 A 
HETATM    8  C19 UNL     1      22.179   3.882  47.677  1.00  0.00     0.124 A 
HETATM    9  N4  UNL     1      22.765   2.867  48.527  1.00  0.00    -0.223 NA
HETATM   10  C20 UNL     1      23.686   3.513  49.358  1.00  0.00     0.577 A 
HETATM   11  N5  UNL     1      24.115   4.761  49.559  1.00  0.00     0.368 N 
HETATM   12  N6  UNL     1      23.585   5.757  48.786  1.00  0.00     0.000 N 
HETATM   13  C21 UNL     1      24.393   6.425  49.524  1.00  0.00     0.250 A 
HETATM   14  C22 UNL     1      25.115   6.756  50.734  1.00  0.00     0.056 C 
HETATM   15  N7  UNL     1      24.870   3.551  50.184  1.00  0.00     0.219 N 
HETATM   16  H29 UNL     1      24.169   3.235  50.949  1.00  0.00     0.332 HD
ENDROOT
BRANCH   1  17
HETATM   17  C5  UNL     1      26.475   2.695  50.136  1.00  0.00     0.060 C 
BRANCH  17  18
HETATM   18  C4  UNL     1      26.834   2.504  51.409  1.00  0.00     0.093 C 
BRANCH  18  19
HETATM   19  N1  UNL     1      27.283   1.593  52.413  1.00  0.00    -0.334 N 
HETATM   20  C3  UNL     1      28.050   1.655  53.598  1.00  0.00     0.244 C 
HETATM   21  O1  UNL     1      28.535   2.716  54.015  1.00  0.00    -0.268 OA
HETATM   22  H4  UNL     1      26.865   0.687  52.047  1.00  0.00     0.168 HD
BRANCH  20  23
HETATM   23  C2  UNL     1      28.222   0.393  54.278  1.00  0.00     0.064 C 
HETATM   24  C1  UNL     1      29.391  -0.138  53.973  1.00  0.00     0.017 C 
ENDBRANCH  20  23
ENDBRANCH  18  19
ENDBRANCH  17  18
ENDBRANCH   1  17
BRANCH   2  25
HETATM   25  O2  UNL     1      27.803   4.631  48.982  1.00  0.00    -0.353 OA
HETATM   26  C8  UNL     1      28.730   5.453  48.286  1.00  0.00     0.210 C 
ENDBRANCH   2  25
BRANCH   4  27
HETATM   27  N2  UNL     1      25.477   8.419  47.525  1.00  0.00    -0.386 N 
HETATM   28  C11 UNL     1      25.025   9.644  48.146  1.00  0.00     0.149 C 
BRANCH  27  29
HETATM   29  C12 UNL     1      26.098   8.433  46.219  1.00  0.00     0.152 C 
BRANCH  29  30
HETATM   30  C13 UNL     1      25.086   8.449  45.067  1.00  0.00     0.291 C 
BRANCH  30  31
HETATM   31  N3  UNL     1      25.749   8.423  43.798  1.00  0.00     0.081 N 
HETATM   32  C14 UNL     1      24.961   9.179  42.830  1.00  0.00     0.309 C 
HETATM   33  C15 UNL     1      27.040   9.068  43.852  1.00  0.00     0.309 C 
ENDBRANCH  30  31
ENDBRANCH  29  30
ENDBRANCH  27  29
ENDBRANCH   4  27
TORSDOF 9
ENDMDL
MODEL 8
REMARK VINA RESULT:      -6.9      2.167      4.338
REMARK  9 active torsions:
REMARK  status: ('A' for Active; 'I' for Inactive)
REMARK    1  A    between atoms: C2_2  and  C3_3 
REMARK       I    between atoms: C3_3  and  N1_5 
REMARK    2  A    between atoms: N1_5  and  C4_6 
REMARK    3  A    between atoms: C4_6  and  C5_7 
REMARK    4  A    between atoms: C5_7  and  C6_8 
REMARK    5  A    between atoms: C7_9  and  O2_10 
REMARK    6  A    between atoms: C10_13  and  N2_14 
REMARK    7  A    between atoms: N2_14  and  C12_16 
REMARK    8  A    between atoms: C12_16  and  C13_17 
REMARK    9  A    between atoms: C13_17  and  N3_18 
ROOT
HETATM    1  C6  UNL     1      25.136   4.701  49.457  1.00  0.00     0.208 C 
HETATM    2  C7  UNL     1      24.786   3.733  50.094  1.00  0.00     0.107 C 
HETATM    3  C9  UNL     1      24.175   2.611  50.843  1.00  0.00     0.065 C 
HETATM    4  C10 UNL     1      22.823   2.367  51.105  1.00  0.00     0.023 C 
HETATM    5  C16 UNL     1      21.772   3.447  50.732  1.00  0.00     0.068 A 
HETATM    6  C17 UNL     1      21.188   4.200  51.698  1.00  0.00     0.049 A 
HETATM    7  C18 UNL     1      21.450   5.400  50.811  1.00  0.00    -0.027 A 
HETATM    8  C19 UNL     1      21.455   6.776  51.030  1.00  0.00     0.124 A 
HETATM    9  N4  UNL     1      22.464   7.326  50.148  1.00  0.00    -0.223 NA
HETATM   10  C20 UNL     1      23.020   6.253  49.445  1.00  0.00     0.577 A 
HETATM   11  N5  UNL     1      22.845   4.931  49.380  1.00  0.00     0.368 N 
HETATM   12  N6  UNL     1      21.898   4.365  50.187  1.00  0.00     0.000 N 
HETATM   13  C21 UNL     1      22.341   3.332  49.570  1.00  0.00     0.250 A 
HETATM   14  C22 UNL     1      22.874   2.586  48.451  1.00  0.00     0.056 C 
HETATM   15  N7  UNL     1      24.085   5.602  48.719  1.00  0.00     0.219 N 
HETATM   16  H29 UNL     1      23.628   6.113  47.879  1.00  0.00     0.332 HD
ENDROOT
BRANCH   1  17
HETATM   17  C5  UNL     1      25.902   5.652  48.821  1.00  0.00     0.060 C 
BRANCH  17  18
HETATM   18  C4  UNL     1      26.485   6.674  49.453  1.00  0.00     0.093 C 
BRANCH  18  19
HETATM   19  N1  UNL     1      27.471   7.708  49.422  1.00  0.00    -0.334 N 
HETATM   20  C3  UNL     1      27.563   9.060  49.818  1.00  0.00     0.244 C 
HETATM   21  O1  UNL     1      26.619   9.657  50.354  1.00  0.00    -0.268 OA
HETATM   22  H4  UNL     1      28.275   7.189  48.961  1.00  0.00     0.168 HD
BRANCH  20  23
HETATM   23  C2  UNL     1      28.837   9.688  49.551  1.00  0.00     0.064 C 
HETATM   24  C1  UNL     1      29.681   8.813  49.038  1.00  0.00     0.017 C 
ENDBRANCH  20  23
ENDBRANCH  18  19
ENDBRANCH  17  18
ENDBRANCH   1  17
BRANCH   2  25
HETATM   25  O2  UNL     1      26.173   3.462  50.227  1.00  0.00    -0.353 OA
HETATM   26  C8  UNL     1      26.622   2.551  51.222  1.00  0.00     0.210 C 
ENDBRANCH   2  25
BRANCH   4  27
HETATM   27  N2  UNL     1      22.341   1.291  51.802  1.00  0.00    -0.386 N 
HETATM   28  C11 UNL     1      21.293   0.426  51.309  1.00  0.00     0.149 C 
BRANCH  27  29
HETATM   29  C12 UNL     1      22.968   1.043  53.082  1.00  0.00     0.152 C 
BRANCH  29  30
HETATM   30  C13 UNL     1      23.672  -0.317  53.158  1.00  0.00     0.291 C 
BRANCH  30  31
HETATM   31  N3  UNL     1      24.955  -0.198  53.784  1.00  0.00     0.081 N 
HETATM   32  C14 UNL     1      24.939  -0.921  55.052  1.00  0.00     0.309 C 
HETATM   33  C15 UNL     1      25.999  -0.805  52.992  1.00  0.00     0.309 C 
ENDBRANCH  30  31
ENDBRANCH  29  30
ENDBRANCH  27  29
ENDBRANCH   4  27
TORSDOF 9
ENDMDL
MODEL 9
REMARK VINA RESULT:      -6.9      2.529      5.821
REMARK  9 active torsions:
REMARK  status: ('A' for Active; 'I' for Inactive)
REMARK    1  A    between atoms: C2_2  and  C3_3 
REMARK       I    between atoms: C3_3  and  N1_5 
REMARK    2  A    between atoms: N1_5  and  C4_6 
REMARK    3  A    between atoms: C4_6  and  C5_7 
REMARK    4  A    between atoms: C5_7  and  C6_8 
REMARK    5  A    between atoms: C7_9  and  O2_10 
REMARK    6  A    between atoms: C10_13  and  N2_14 
REMARK    7  A    between atoms: N2_14  and  C12_16 
REMARK    8  A    between atoms: C12_16  and  C13_17 
REMARK    9  A    between atoms: C13_17  and  N3_18 
ROOT
HETATM    1  C6  UNL     1      24.185   1.941  51.644  1.00  0.00     0.208 C 
HETATM    2  C7  UNL     1      23.950   2.945  51.011  1.00  0.00     0.107 C 
HETATM    3  C9  UNL     1      23.503   4.193  50.348  1.00  0.00     0.065 C 
HETATM    4  C10 UNL     1      22.353   4.950  50.592  1.00  0.00     0.023 C 
HETATM    5  C16 UNL     1      21.272   4.395  51.559  1.00  0.00     0.068 A 
HETATM    6  C17 UNL     1      20.102   3.907  51.075  1.00  0.00     0.049 A 
HETATM    7  C18 UNL     1      20.294   2.733  52.014  1.00  0.00    -0.027 A 
HETATM    8  C19 UNL     1      19.724   1.464  52.097  1.00  0.00     0.124 A 
HETATM    9  N4  UNL     1      20.758   0.586  52.606  1.00  0.00    -0.223 NA
HETATM   10  C20 UNL     1      21.899   1.369  52.799  1.00  0.00     0.577 A 
HETATM   11  N5  UNL     1      22.242   2.652  52.656  1.00  0.00     0.368 N 
HETATM   12  N6  UNL     1      21.298   3.523  52.187  1.00  0.00     0.000 N 
HETATM   13  C21 UNL     1      22.295   4.311  52.355  1.00  0.00     0.250 A 
HETATM   14  C22 UNL     1      23.488   4.818  52.999  1.00  0.00     0.056 C 
HETATM   15  N7  UNL     1      23.327   1.563  52.901  1.00  0.00     0.219 N 
HETATM   16  H29 UNL     1      23.141   1.306  53.938  1.00  0.00     0.332 HD
ENDROOT
BRANCH   1  17
HETATM   17  C5  UNL     1      24.769   0.785  52.109  1.00  0.00     0.060 C 
BRANCH  17  18
HETATM   18  C4  UNL     1      25.680   0.758  53.086  1.00  0.00     0.093 C 
BRANCH  18  19
HETATM   19  N1  UNL     1      27.048   0.580  53.457  1.00  0.00    -0.334 N 
HETATM   20  C3  UNL     1      28.265   1.276  53.283  1.00  0.00     0.244 C 
HETATM   21  O1  UNL     1      28.330   2.348  52.665  1.00  0.00    -0.268 OA
HETATM   22  H4  UNL     1      26.983  -0.339  53.984  1.00  0.00     0.168 HD
BRANCH  20  23
HETATM   23  C2  UNL     1      29.418   0.643  53.879  1.00  0.00     0.064 C 
HETATM   24  C1  UNL     1      29.457  -0.636  53.558  1.00  0.00     0.017 C 
ENDBRANCH  20  23
ENDBRANCH  18  19
ENDBRANCH  17  18
ENDBRANCH   1  17
BRANCH   2  25
HETATM   25  O2  UNL     1      25.134   2.633  50.293  1.00  0.00    -0.353 OA
HETATM   26  C8  UNL     1      26.137   3.625  50.120  1.00  0.00     0.210 C 
ENDBRANCH   2  25
BRANCH   4  27
HETATM   27  N2  UNL     1      22.021   6.104  49.936  1.00  0.00    -0.386 N 
HETATM   28  C11 UNL     1      21.657   7.330  50.611  1.00  0.00     0.149 C 
BRANCH  27  29
HETATM   29  C12 UNL     1      22.073   6.040  48.491  1.00  0.00     0.152 C 
BRANCH  29  30
HETATM   30  C13 UNL     1      20.711   5.753  47.848  1.00  0.00     0.291 C 
BRANCH  30  31
HETATM   31  N3  UNL     1      20.814   4.720  46.862  1.00  0.00     0.081 N 
HETATM   32  C14 UNL     1      22.005   4.949  46.050  1.00  0.00     0.309 C 
HETATM   33  C15 UNL     1      20.987   3.417  47.463  1.00  0.00     0.309 C 
ENDBRANCH  30  31
ENDBRANCH  29  30
ENDBRANCH  27  29
ENDBRANCH   4  27
TORSDOF 9
ENDMDL
