MODEL 1
REMARK VINA RESULT:      -8.9      0.000      0.000
REMARK  2 active torsions:
REMARK  status: ('A' for Active; 'I' for Inactive)
REMARK    1  A    between atoms: N1_6  and  C5_7 
REMARK    2  A    between atoms: C9_11  and  O1_12 
ROOT
HETATM    1  C5  UNL     1      25.375   3.556  49.800  1.00  0.00     0.102 C 
HETATM    2  C6  UNL     1      26.734   3.869  49.300  1.00  0.00    -0.005 C 
HETATM    3  C7  UNL     1      27.572   4.742  48.770  1.00  0.00     0.000 C 
HETATM    4  C8  UNL     1      27.334   6.125  48.389  1.00  0.00     0.033 C 
HETATM    5  C9  UNL     1      26.325   6.971  48.466  1.00  0.00     0.059 C 
HETATM    6  C10 UNL     1      24.932   6.983  48.962  1.00  0.00     0.044 A 
HETATM    7  C11 UNL     1      23.965   6.811  47.852  1.00  0.00    -0.006 A 
HETATM    8  C12 UNL     1      23.143   7.872  47.812  1.00  0.00    -0.003 A 
HETATM    9  C13 UNL     1      23.489   8.835  48.885  1.00  0.00    -0.003 A 
HETATM   10  C14 UNL     1      24.515   8.292  49.519  1.00  0.00    -0.006 A 
HETATM   11  C15 UNL     1      24.700   5.930  50.023  1.00  0.00     0.026 C 
HETATM   12  C16 UNL     1      24.358   4.601  49.445  1.00  0.00     0.027 C 
ENDROOT
BRANCH   1  13
HETATM   13  N1  UNL     1      25.430   3.357  51.222  1.00  0.00    -0.218 NA
HETATM   14  C4  UNL     1      24.583   2.437  51.804  1.00  0.00     0.192 A 
HETATM   15  S1  UNL     1      22.864   2.302  51.969  1.00  0.00    -0.125 SA
HETATM   16  C3  UNL     1      22.753   0.703  52.864  1.00  0.00     0.049 A 
HETATM   17  C2  UNL     1      23.356  -0.376  53.408  1.00  0.00    -0.072 A 
HETATM   18  C1  UNL     1      22.193  -1.178  53.952  1.00  0.00     0.044 C 
HETATM   19  C20 UNL     1      24.792  -0.165  53.169  1.00  0.00     0.028 A 
HETATM   20  C19 UNL     1      25.965  -0.791  53.409  1.00  0.00     0.002 A 
HETATM   21  C18 UNL     1      26.862   0.251  52.764  1.00  0.00     0.005 A 
HETATM   22  C17 UNL     1      27.047   1.413  52.120  1.00  0.00     0.146 A 
HETATM   23  N2  UNL     1      26.704   2.677  51.471  1.00  0.00    -0.346 N 
HETATM   24  H20 UNL     1      27.734   2.609  51.414  1.00  0.00     0.174 HD
ENDBRANCH   1  13
BRANCH   5  25
HETATM   25  O1  UNL     1      26.495   8.254  47.973  1.00  0.00    -0.364 OA
HETATM   26  H11 UNL     1      26.861   8.939  48.636  1.00  0.00     0.217 HD
ENDBRANCH   5  25
TORSDOF 2
ENDMDL
MODEL 2
REMARK VINA RESULT:      -8.8      3.072      7.982
REMARK  2 active torsions:
REMARK  status: ('A' for Active; 'I' for Inactive)
REMARK    1  A    between atoms: N1_6  and  C5_7 
REMARK    2  A    between atoms: C9_11  and  O1_12 
ROOT
HETATM    1  C5  UNL     1      24.534   2.090  51.284  1.00  0.00     0.102 C 
HETATM    2  C6  UNL     1      23.452   1.357  51.983  1.00  0.00    -0.005 C 
HETATM    3  C7  UNL     1      23.089   0.483  52.904  1.00  0.00     0.000 C 
HETATM    4  C8  UNL     1      23.922  -0.283  53.818  1.00  0.00     0.033 C 
HETATM    5  C9  UNL     1      25.209  -0.355  54.096  1.00  0.00     0.059 C 
HETATM    6  C10 UNL     1      26.470   0.275  53.651  1.00  0.00     0.044 A 
HETATM    7  C11 UNL     1      27.203  -0.601  52.705  1.00  0.00    -0.006 A 
HETATM    8  C12 UNL     1      28.419  -0.873  53.206  1.00  0.00    -0.003 A 
HETATM    9  C13 UNL     1      28.599  -0.208  54.519  1.00  0.00    -0.003 A 
HETATM   10  C14 UNL     1      27.465   0.437  54.737  1.00  0.00    -0.006 A 
HETATM   11  C15 UNL     1      26.234   1.632  53.028  1.00  0.00     0.026 C 
HETATM   12  C16 UNL     1      25.903   1.549  51.579  1.00  0.00     0.027 C 
ENDROOT
BRANCH   1  13
HETATM   13  N1  UNL     1      24.452   3.484  51.619  1.00  0.00    -0.218 NA
HETATM   14  C4  UNL     1      24.628   4.425  50.626  1.00  0.00     0.192 A 
HETATM   15  S1  UNL     1      25.948   4.870  49.594  1.00  0.00    -0.125 SA
HETATM   16  C3  UNL     1      25.149   6.196  48.607  1.00  0.00     0.049 A 
HETATM   17  C2  UNL     1      24.058   6.936  48.309  1.00  0.00    -0.072 A 
HETATM   18  C1  UNL     1      24.558   7.852  47.212  1.00  0.00     0.044 C 
HETATM   19  C20 UNL     1      23.009   6.439  49.213  1.00  0.00     0.028 A 
HETATM   20  C19 UNL     1      21.707   6.678  49.486  1.00  0.00     0.002 A 
HETATM   21  C18 UNL     1      21.558   5.635  50.580  1.00  0.00     0.005 A 
HETATM   22  C17 UNL     1      22.055   4.662  51.359  1.00  0.00     0.146 A 
HETATM   23  N2  UNL     1      23.037   3.732  51.912  1.00  0.00    -0.346 N 
HETATM   24  H20 UNL     1      22.162   3.548  52.430  1.00  0.00     0.174 HD
ENDBRANCH   1  13
BRANCH   5  25
HETATM   25  O1  UNL     1      25.628  -1.245  55.071  1.00  0.00    -0.364 OA
HETATM   26  H11 UNL     1      25.105  -2.120  55.127  1.00  0.00     0.217 HD
ENDBRANCH   5  25
TORSDOF 2
ENDMDL
MODEL 3
REMARK VINA RESULT:      -8.4      4.040      6.977
REMARK  2 active torsions:
REMARK  status: ('A' for Active; 'I' for Inactive)
REMARK    1  A    between atoms: N1_6  and  C5_7 
REMARK    2  A    between atoms: C9_11  and  O1_12 
ROOT
HETATM    1  C5  UNL     1      22.945   1.154  52.994  1.00  0.00     0.102 C 
HETATM    2  C6  UNL     1      23.340   2.350  52.214  1.00  0.00    -0.005 C 
HETATM    3  C7  UNL     1      24.298   3.103  51.703  1.00  0.00     0.000 C 
HETATM    4  C8  UNL     1      25.739   2.924  51.776  1.00  0.00     0.033 C 
HETATM    5  C9  UNL     1      26.560   2.019  52.271  1.00  0.00     0.059 C 
HETATM    6  C10 UNL     1      26.476   0.735  52.999  1.00  0.00     0.044 A 
HETATM    7  C11 UNL     1      26.714   0.923  54.450  1.00  0.00    -0.006 A 
HETATM    8  C12 UNL     1      27.767   0.179  54.826  1.00  0.00    -0.003 A 
HETATM    9  C13 UNL     1      28.317  -0.562  53.666  1.00  0.00    -0.003 A 
HETATM   10  C14 UNL     1      27.553  -0.219  52.642  1.00  0.00    -0.006 A 
HETATM   11  C15 UNL     1      25.149   0.044  52.774  1.00  0.00     0.026 C 
HETATM   12  C16 UNL     1      24.093   0.510  53.714  1.00  0.00     0.027 C 
ENDROOT
BRANCH   1  13
HETATM   13  N1  UNL     1      22.297   0.215  52.121  1.00  0.00    -0.218 NA
HETATM   14  C4  UNL     1      21.000  -0.168  52.391  1.00  0.00     0.192 A 
HETATM   15  S1  UNL     1      20.229  -1.020  53.688  1.00  0.00    -0.125 SA
HETATM   16  C3  UNL     1      18.486  -0.970  53.112  1.00  0.00     0.049 A 
HETATM   17  C2  UNL     1      17.566  -0.579  52.204  1.00  0.00    -0.072 A 
HETATM   18  C1  UNL     1      16.276  -1.137  52.766  1.00  0.00     0.044 C 
HETATM   19  C20 UNL     1      18.331   0.160  51.188  1.00  0.00     0.028 A 
HETATM   20  C19 UNL     1      18.108   0.823  50.032  1.00  0.00     0.002 A 
HETATM   21  C18 UNL     1      19.551   1.218  49.768  1.00  0.00     0.005 A 
HETATM   22  C17 UNL     1      20.852   1.225  50.099  1.00  0.00     0.146 A 
HETATM   23  N2  UNL     1      22.059   0.944  50.872  1.00  0.00    -0.346 N 
HETATM   24  H20 UNL     1      22.376   1.494  50.056  1.00  0.00     0.174 HD
ENDBRANCH   1  13
BRANCH   5  25
HETATM   25  O1  UNL     1      27.925   2.214  52.135  1.00  0.00    -0.364 OA
HETATM   26  H11 UNL     1      28.208   2.859  51.395  1.00  0.00     0.217 HD
ENDBRANCH   5  25
TORSDOF 2
ENDMDL
MODEL 4
REMARK VINA RESULT:      -8.2      3.899      8.075
REMARK  2 active torsions:
REMARK  status: ('A' for Active; 'I' for Inactive)
REMARK    1  A    between atoms: N1_6  and  C5_7 
REMARK    2  A    between atoms: C9_11  and  O1_12 
ROOT
HETATM    1  C5  UNL     1      22.629   1.397  51.598  1.00  0.00     0.102 C 
HETATM    2  C6  UNL     1      21.927   0.440  52.485  1.00  0.00    -0.005 C 
HETATM    3  C7  UNL     1      21.980  -0.441  53.468  1.00  0.00     0.000 C 
HETATM    4  C8  UNL     1      23.132  -0.887  54.235  1.00  0.00     0.033 C 
HETATM    5  C9  UNL     1      24.414  -0.584  54.287  1.00  0.00     0.059 C 
HETATM    6  C10 UNL     1      25.356   0.341  53.620  1.00  0.00     0.044 A 
HETATM    7  C11 UNL     1      26.144  -0.356  52.574  1.00  0.00    -0.006 A 
HETATM    8  C12 UNL     1      27.451  -0.249  52.861  1.00  0.00    -0.003 A 
HETATM    9  C13 UNL     1      27.646   0.521  54.112  1.00  0.00    -0.003 A 
HETATM   10  C14 UNL     1      26.427   0.840  54.515  1.00  0.00    -0.006 A 
HETATM   11  C15 UNL     1      24.648   1.538  53.028  1.00  0.00     0.026 C 
HETATM   12  C16 UNL     1      24.123   1.275  51.660  1.00  0.00     0.027 C 
ENDROOT
BRANCH   1  13
HETATM   13  N1  UNL     1      22.211   2.733  51.921  1.00  0.00    -0.218 NA
HETATM   14  C4  UNL     1      22.114   3.669  50.913  1.00  0.00     0.192 A 
HETATM   15  S1  UNL     1      23.246   4.410  49.831  1.00  0.00    -0.125 SA
HETATM   16  C3  UNL     1      22.109   5.475  48.859  1.00  0.00     0.049 A 
HETATM   17  C2  UNL     1      20.859   5.913  48.593  1.00  0.00    -0.072 A 
HETATM   18  C1  UNL     1      21.078   6.904  47.469  1.00  0.00     0.044 C 
HETATM   19  C20 UNL     1      19.997   5.187  49.539  1.00  0.00     0.028 A 
HETATM   20  C19 UNL     1      18.686   5.098  49.856  1.00  0.00     0.002 A 
HETATM   21  C18 UNL     1      18.838   4.072  50.965  1.00  0.00     0.005 A 
HETATM   22  C17 UNL     1      19.588   3.269  51.736  1.00  0.00     0.146 A 
HETATM   23  N2  UNL     1      20.789   2.625  52.262  1.00  0.00    -0.346 N 
HETATM   24  H20 UNL     1      20.005   2.238  52.813  1.00  0.00     0.174 HD
ENDBRANCH   1  13
BRANCH   5  25
HETATM   25  O1  UNL     1      25.221  -1.259  55.188  1.00  0.00    -0.364 OA
HETATM   26  H11 UNL     1      25.892  -0.684  55.699  1.00  0.00     0.217 HD
ENDBRANCH   5  25
TORSDOF 2
ENDMDL
MODEL 5
REMARK VINA RESULT:      -8.1      4.448      7.755
REMARK  2 active torsions:
REMARK  status: ('A' for Active; 'I' for Inactive)
REMARK    1  A    between atoms: N1_6  and  C5_7 
REMARK    2  A    between atoms: C9_11  and  O1_12 
ROOT
HETATM    1  C5  UNL     1      21.554   1.307  52.510  1.00  0.00     0.102 C 
HETATM    2  C6  UNL     1      21.168   0.269  53.494  1.00  0.00    -0.005 C 
HETATM    3  C7  UNL     1      20.269  -0.591  53.938  1.00  0.00     0.000 C 
HETATM    4  C8  UNL     1      18.939  -0.873  53.422  1.00  0.00     0.033 C 
HETATM    5  C9  UNL     1      18.214  -0.472  52.396  1.00  0.00     0.059 C 
HETATM    6  C10 UNL     1      18.343   0.449  51.247  1.00  0.00     0.044 A 
HETATM    7  C11 UNL     1      17.656   1.736  51.510  1.00  0.00    -0.006 A 
HETATM    8  C12 UNL     1      16.716   1.935  50.572  1.00  0.00    -0.003 A 
HETATM    9  C13 UNL     1      16.695   0.806  49.612  1.00  0.00    -0.003 A 
HETATM   10  C14 UNL     1      17.639  -0.021  50.031  1.00  0.00    -0.006 A 
HETATM   11  C15 UNL     1      19.790   0.695  50.881  1.00  0.00     0.026 C 
HETATM   12  C16 UNL     1      20.404   1.793  51.679  1.00  0.00     0.027 C 
ENDROOT
BRANCH   1  13
HETATM   13  N1  UNL     1      22.609   0.799  51.677  1.00  0.00    -0.218 NA
HETATM   14  C4  UNL     1      23.427   1.688  51.013  1.00  0.00     0.192 A 
HETATM   15  S1  UNL     1      23.180   2.875  49.775  1.00  0.00    -0.125 SA
HETATM   16  C3  UNL     1      24.885   3.540  49.624  1.00  0.00     0.049 A 
HETATM   17  C2  UNL     1      26.174   3.551  50.024  1.00  0.00    -0.072 A 
HETATM   18  C1  UNL     1      26.799   4.601  49.131  1.00  0.00     0.044 C 
HETATM   19  C20 UNL     1      26.245   2.543  51.093  1.00  0.00     0.028 A 
HETATM   20  C19 UNL     1      27.162   2.018  51.936  1.00  0.00     0.002 A 
HETATM   21  C18 UNL     1      26.228   1.047  52.638  1.00  0.00     0.005 A 
HETATM   22  C17 UNL     1      25.020   0.490  52.814  1.00  0.00     0.146 A 
HETATM   23  N2  UNL     1      23.597   0.234  52.601  1.00  0.00    -0.346 N 
HETATM   24  H20 UNL     1      23.881  -0.404  53.363  1.00  0.00     0.174 HD
ENDBRANCH   1  13
BRANCH   5  25
HETATM   25  O1  UNL     1      16.940  -0.993  52.240  1.00  0.00    -0.364 OA
HETATM   26  H11 UNL     1      16.646  -1.665  52.950  1.00  0.00     0.217 HD
ENDBRANCH   5  25
TORSDOF 2
ENDMDL
MODEL 6
REMARK VINA RESULT:      -8.1      1.624      2.210
REMARK  2 active torsions:
REMARK  status: ('A' for Active; 'I' for Inactive)
REMARK    1  A    between atoms: N1_6  and  C5_7 
REMARK    2  A    between atoms: C9_11  and  O1_12 
ROOT
HETATM    1  C5  UNL     1      23.797   3.496  50.041  1.00  0.00     0.102 C 
HETATM    2  C6  UNL     1      25.154   2.965  49.774  1.00  0.00    -0.005 C 
HETATM    3  C7  UNL     1      26.419   3.192  49.469  1.00  0.00     0.000 C 
HETATM    4  C8  UNL     1      27.087   4.459  49.220  1.00  0.00     0.033 C 
HETATM    5  C9  UNL     1      26.749   5.733  49.252  1.00  0.00     0.059 C 
HETATM    6  C10 UNL     1      25.552   6.549  49.548  1.00  0.00     0.044 A 
HETATM    7  C11 UNL     1      24.878   6.987  48.302  1.00  0.00    -0.006 A 
HETATM    8  C12 UNL     1      24.834   8.329  48.270  1.00  0.00    -0.003 A 
HETATM    9  C13 UNL     1      25.469   8.896  49.484  1.00  0.00    -0.003 A 
HETATM   10  C14 UNL     1      25.866   7.849  50.188  1.00  0.00    -0.006 A 
HETATM   11  C15 UNL     1      24.574   5.816  50.438  1.00  0.00     0.026 C 
HETATM   12  C16 UNL     1      23.644   4.943  49.671  1.00  0.00     0.027 C 
ENDROOT
BRANCH   1  13
HETATM   13  N1  UNL     1      23.471   3.286  51.425  1.00  0.00    -0.218 NA
HETATM   14  C4  UNL     1      22.365   2.527  51.746  1.00  0.00     0.192 A 
HETATM   15  S1  UNL     1      20.660   2.698  51.492  1.00  0.00    -0.125 SA
HETATM   16  C3  UNL     1      20.064   1.140  52.260  1.00  0.00     0.049 A 
HETATM   17  C2  UNL     1      20.325  -0.030  52.881  1.00  0.00    -0.072 A 
HETATM   18  C1  UNL     1      18.945  -0.616  53.096  1.00  0.00     0.044 C 
HETATM   19  C20 UNL     1      21.790  -0.075  53.000  1.00  0.00     0.028 A 
HETATM   20  C19 UNL     1      22.746  -0.900  53.482  1.00  0.00     0.002 A 
HETATM   21  C18 UNL     1      23.936  -0.031  53.117  1.00  0.00     0.005 A 
HETATM   22  C17 UNL     1      24.467   1.083  52.590  1.00  0.00     0.146 A 
HETATM   23  N2  UNL     1      24.512   2.389  51.938  1.00  0.00    -0.346 N 
HETATM   24  H20 UNL     1      25.498   2.140  52.123  1.00  0.00     0.174 HD
ENDBRANCH   1  13
BRANCH   5  25
HETATM   25  O1  UNL     1      27.707   6.683  48.937  1.00  0.00    -0.364 OA
HETATM   26  H11 UNL     1      27.559   7.611  49.337  1.00  0.00     0.217 HD
ENDBRANCH   5  25
TORSDOF 2
ENDMDL
MODEL 7
REMARK VINA RESULT:      -8.0      2.964      7.366
REMARK  2 active torsions:
REMARK  status: ('A' for Active; 'I' for Inactive)
REMARK    1  A    between atoms: N1_6  and  C5_7 
REMARK    2  A    between atoms: C9_11  and  O1_12 
ROOT
HETATM    1  C5  UNL     1      24.432   3.725  51.103  1.00  0.00     0.102 C 
HETATM    2  C6  UNL     1      25.330   2.744  51.756  1.00  0.00    -0.005 C 
HETATM    3  C7  UNL     1      25.489   1.575  52.350  1.00  0.00     0.000 C 
HETATM    4  C8  UNL     1      24.495   0.554  52.639  1.00  0.00     0.033 C 
HETATM    5  C9  UNL     1      23.209   0.385  52.401  1.00  0.00     0.059 C 
HETATM    6  C10 UNL     1      22.106   1.111  51.734  1.00  0.00     0.044 A 
HETATM    7  C11 UNL     1      21.252   1.815  52.721  1.00  0.00    -0.006 A 
HETATM    8  C12 UNL     1      19.991   1.368  52.613  1.00  0.00    -0.003 A 
HETATM    9  C13 UNL     1      19.897   0.336  51.552  1.00  0.00    -0.003 A 
HETATM   10  C14 UNL     1      21.125   0.218  51.075  1.00  0.00    -0.006 A 
HETATM   11  C15 UNL     1      22.618   2.086  50.698  1.00  0.00     0.026 C 
HETATM   12  C16 UNL     1      22.976   3.408  51.283  1.00  0.00     0.027 C 
ENDROOT
BRANCH   1  13
HETATM   13  N1  UNL     1      24.767   3.816  49.708  1.00  0.00    -0.218 NA
HETATM   14  C4  UNL     1      24.733   5.048  49.089  1.00  0.00     0.192 A 
HETATM   15  S1  UNL     1      23.485   6.200  48.744  1.00  0.00    -0.125 SA
HETATM   16  C3  UNL     1      24.479   7.513  47.932  1.00  0.00     0.049 A 
HETATM   17  C2  UNL     1      25.674   7.987  47.517  1.00  0.00    -0.072 A 
HETATM   18  C1  UNL     1      25.314   9.319  46.894  1.00  0.00     0.044 C 
HETATM   19  C20 UNL     1      26.643   6.949  47.900  1.00  0.00     0.028 A 
HETATM   20  C19 UNL     1      27.974   6.723  47.824  1.00  0.00     0.002 A 
HETATM   21  C18 UNL     1      27.966   5.366  48.505  1.00  0.00     0.005 A 
HETATM   22  C17 UNL     1      27.326   4.348  49.101  1.00  0.00     0.146 A 
HETATM   23  N2  UNL     1      26.211   3.571  49.638  1.00  0.00    -0.346 N 
HETATM   24  H20 UNL     1      27.053   2.998  49.811  1.00  0.00     0.174 HD
ENDBRANCH   1  13
BRANCH   5  25
HETATM   25  O1  UNL     1      22.595  -0.769  52.858  1.00  0.00    -0.364 OA
HETATM   26  H11 UNL     1      22.471  -1.510  52.166  1.00  0.00     0.217 HD
ENDBRANCH   5  25
TORSDOF 2
ENDMDL
MODEL 8
REMARK VINA RESULT:      -7.9      3.300      8.068
REMARK  2 active torsions:
REMARK  status: ('A' for Active; 'I' for Inactive)
REMARK    1  A    between atoms: N1_6  and  C5_7 
REMARK    2  A    between atoms: C9_11  and  O1_12 
ROOT
HETATM    1  C5  UNL     1      23.093   2.053  50.374  1.00  0.00     0.102 C 
HETATM    2  C6  UNL     1      21.706   2.140  49.861  1.00  0.00    -0.005 C 
HETATM    3  C7  UNL     1      20.426   1.840  49.999  1.00  0.00     0.000 C 
HETATM    4  C8  UNL     1      19.774   1.079  51.053  1.00  0.00     0.033 C 
HETATM    5  C9  UNL     1      20.146   0.505  52.180  1.00  0.00     0.059 C 
HETATM    6  C10 UNL     1      21.383   0.323  52.969  1.00  0.00     0.044 A 
HETATM    7  C11 UNL     1      21.966  -1.023  52.751  1.00  0.00    -0.006 A 
HETATM    8  C12 UNL     1      22.042  -1.667  53.927  1.00  0.00    -0.003 A 
HETATM    9  C13 UNL     1      21.521  -0.812  55.020  1.00  0.00    -0.003 A 
HETATM   10  C14 UNL     1      21.155   0.316  54.433  1.00  0.00    -0.006 A 
HETATM   11  C15 UNL     1      22.410   1.391  52.663  1.00  0.00     0.026 C 
HETATM   12  C16 UNL     1      23.253   1.054  51.483  1.00  0.00     0.027 C 
ENDROOT
BRANCH   1  13
HETATM   13  N1  UNL     1      23.522   3.358  50.796  1.00  0.00    -0.218 NA
HETATM   14  C4  UNL     1      24.695   3.876  50.287  1.00  0.00     0.192 A 
HETATM   15  S1  UNL     1      26.365   3.423  50.382  1.00  0.00    -0.125 SA
HETATM   16  C3  UNL     1      27.111   4.732  49.332  1.00  0.00     0.049 A 
HETATM   17  C2  UNL     1      26.970   5.817  48.540  1.00  0.00    -0.072 A 
HETATM   18  C1  UNL     1      28.396   6.140  48.149  1.00  0.00     0.044 C 
HETATM   19  C20 UNL     1      25.521   6.072  48.507  1.00  0.00     0.028 A 
HETATM   20  C19 UNL     1      24.656   6.945  47.945  1.00  0.00     0.002 A 
HETATM   21  C18 UNL     1      23.389   6.348  48.533  1.00  0.00     0.005 A 
HETATM   22  C17 UNL     1      22.753   5.441  49.289  1.00  0.00     0.146 A 
HETATM   23  N2  UNL     1      22.579   4.296  50.181  1.00  0.00    -0.346 N 
HETATM   24  H20 UNL     1      21.626   4.657  50.007  1.00  0.00     0.174 HD
ENDBRANCH   1  13
BRANCH   5  25
HETATM   25  O1  UNL     1      19.191  -0.151  52.938  1.00  0.00    -0.364 OA
HETATM   26  H11 UNL     1      18.530  -0.729  52.415  1.00  0.00     0.217 HD
ENDBRANCH   5  25
TORSDOF 2
ENDMDL
MODEL 9
REMARK VINA RESULT:      -7.8      4.469      6.978
REMARK  2 active torsions:
REMARK  status: ('A' for Active; 'I' for Inactive)
REMARK    1  A    between atoms: N1_6  and  C5_7 
REMARK    2  A    between atoms: C9_11  and  O1_12 
ROOT
HETATM    1  C5  UNL     1      21.447  -0.119  52.081  1.00  0.00     0.102 C 
HETATM    2  C6  UNL     1      22.472  -0.588  53.043  1.00  0.00    -0.005 C 
HETATM    3  C7  UNL     1      23.611  -0.376  53.677  1.00  0.00     0.000 C 
HETATM    4  C8  UNL     1      24.505   0.769  53.594  1.00  0.00     0.033 C 
HETATM    5  C9  UNL     1      24.503   1.932  52.973  1.00  0.00     0.059 C 
HETATM    6  C10 UNL     1      23.628   2.690  52.053  1.00  0.00     0.044 A 
HETATM    7  C11 UNL     1      24.100   2.583  50.652  1.00  0.00    -0.006 A 
HETATM    8  C12 UNL     1      24.361   3.812  50.178  1.00  0.00    -0.003 A 
HETATM    9  C13 UNL     1      24.087   4.835  51.215  1.00  0.00    -0.003 A 
HETATM   10  C14 UNL     1      23.670   4.155  52.270  1.00  0.00    -0.006 A 
HETATM   11  C15 UNL     1      22.185   2.246  52.152  1.00  0.00     0.026 C 
HETATM   12  C16 UNL     1      21.886   1.074  51.283  1.00  0.00     0.027 C 
ENDROOT
BRANCH   1  13
HETATM   13  N1  UNL     1      20.228   0.159  52.788  1.00  0.00    -0.218 NA
HETATM   14  C4  UNL     1      19.029   0.100  52.110  1.00  0.00     0.192 A 
HETATM   15  S1  UNL     1      18.332   0.988  50.796  1.00  0.00    -0.125 SA
HETATM   16  C3  UNL     1      16.732   0.104  50.625  1.00  0.00     0.049 A 
HETATM   17  C2  UNL     1      15.894  -0.882  51.013  1.00  0.00    -0.072 A 
HETATM   18  C1  UNL     1      14.698  -0.689  50.105  1.00  0.00     0.044 C 
HETATM   19  C20 UNL     1      16.610  -1.581  52.092  1.00  0.00     0.028 A 
HETATM   20  C19 UNL     1      16.420  -2.627  52.926  1.00  0.00     0.002 A 
HETATM   21  C18 UNL     1      17.749  -2.522  53.654  1.00  0.00     0.005 A 
HETATM   22  C17 UNL     1      18.937  -1.934  53.862  1.00  0.00     0.146 A 
HETATM   23  N2  UNL     1      20.031  -0.981  53.688  1.00  0.00    -0.346 N 
HETATM   24  H20 UNL     1      20.336  -1.615  54.446  1.00  0.00     0.174 HD
ENDBRANCH   1  13
BRANCH   5  25
HETATM   25  O1  UNL     1      25.580   2.784  53.155  1.00  0.00    -0.364 OA
HETATM   26  H11 UNL     1      25.749   3.086  54.116  1.00  0.00     0.217 HD
ENDBRANCH   5  25
TORSDOF 2
ENDMDL
