MODEL 1
REMARK VINA RESULT:      -7.8      0.000      0.000
REMARK  4 active torsions:
REMARK  status: ('A' for Active; 'I' for Inactive)
REMARK    1  A    between atoms: C2_2  and  C3_3 
REMARK    2  A    between atoms: C4_4  and  C5_5 
REMARK    3  A    between atoms: C5_5  and  N1_6 
REMARK    4  A    between atoms: N1_6  and  N2_8 
ROOT
HETATM    1  C3  UNL     1      20.284   3.546  50.291  1.00  0.00     0.036 C 
HETATM    2  C4  UNL     1      21.606   3.463  50.176  1.00  0.00     0.088 C 
HETATM    3  O1  UNL     1      22.379   2.300  49.893  1.00  0.00    -0.347 OA
HETATM    4  C9  UNL     1      21.899   0.975  49.722  1.00  0.00     0.212 C 
HETATM    5  C10 UNL     1      20.704   0.713  50.507  1.00  0.00    -0.022 C 
HETATM    6  C11 UNL     1      20.629   0.239  51.733  1.00  0.00     0.051 A 
HETATM    7  C12 UNL     1      19.393  -0.006  52.460  1.00  0.00     0.257 A 
HETATM    8  O2  UNL     1      18.165   0.101  52.243  1.00  0.00    -0.267 OA
HETATM    9  N5  UNL     1      19.718  -0.492  53.753  1.00  0.00    -0.322 N 
HETATM   10  C13 UNL     1      21.130  -0.572  53.893  1.00  0.00     0.046 A 
HETATM   11  C14 UNL     1      21.923  -0.971  54.958  1.00  0.00     0.033 A 
HETATM   12  C15 UNL     1      23.296  -0.947  54.858  1.00  0.00     0.044 A 
HETATM   13  C16 UNL     1      23.846  -0.514  53.669  1.00  0.00     0.117 A 
HETATM   14  F1  UNL     1      25.200  -0.502  53.607  1.00  0.00    -0.206 F 
HETATM   15  C17 UNL     1      23.013  -0.130  52.648  1.00  0.00     0.057 A 
HETATM   16  C18 UNL     1      21.651  -0.137  52.695  1.00  0.00     0.010 A 
HETATM   17  C19 UNL     1      19.425   1.088  49.857  1.00  0.00     0.157 C 
HETATM   18  N6  UNL     1      19.271   2.518  50.168  1.00  0.00    -0.387 N 
HETATM   19  H15 UNL     1      19.084  -0.779  54.561  1.00  0.00     0.169 HD
HETATM   20  H21 UNL     1      18.277   2.790  50.314  1.00  0.00     0.159 HD
ENDROOT
BRANCH   2  21
HETATM   21  C5  UNL     1      22.516   4.581  50.325  1.00  0.00     0.210 C 
BRANCH  21  22
HETATM   22  N1  UNL     1      23.604   4.303  51.272  1.00  0.00    -0.302 N 
HETATM   23  C6  UNL     1      23.417   4.343  52.709  1.00  0.00     0.173 C 
BRANCH  22  24
HETATM   24  N2  UNL     1      24.884   3.984  50.747  1.00  0.00    -0.168 N 
HETATM   25  C7  UNL     1      25.562   4.616  49.769  1.00  0.00     0.161 A 
HETATM   26  C8  UNL     1      26.778   3.974  49.567  1.00  0.00     0.163 A 
HETATM   27  N3  UNL     1      26.793   2.950  50.454  1.00  0.00    -0.141 NA
HETATM   28  N4  UNL     1      25.653   2.989  51.135  1.00  0.00    -0.046 NA
ENDBRANCH  22  24
ENDBRANCH  21  22
ENDBRANCH   2  21
BRANCH   1  29
HETATM   29  C2  UNL     1      19.614   4.818  50.586  1.00  0.00     0.055 C 
HETATM   30  C1  UNL     1      18.475   5.111  49.631  1.00  0.00     0.011 C 
ENDBRANCH   1  29
TORSDOF 4
ENDMDL
MODEL 2
REMARK VINA RESULT:      -7.8      3.486      4.462
REMARK  4 active torsions:
REMARK  status: ('A' for Active; 'I' for Inactive)
REMARK    1  A    between atoms: C2_2  and  C3_3 
REMARK    2  A    between atoms: C4_4  and  C5_5 
REMARK    3  A    between atoms: C5_5  and  N1_6 
REMARK    4  A    between atoms: N1_6  and  N2_8 
ROOT
HETATM    1  C3  UNL     1      22.901   5.257  50.657  1.00  0.00     0.036 C 
HETATM    2  C4  UNL     1      24.148   5.717  50.666  1.00  0.00     0.088 C 
HETATM    3  O1  UNL     1      25.317   5.059  50.186  1.00  0.00    -0.347 OA
HETATM    4  C9  UNL     1      25.399   3.751  49.641  1.00  0.00     0.212 C 
HETATM    5  C10 UNL     1      24.405   2.853  50.204  1.00  0.00    -0.022 C 
HETATM    6  C11 UNL     1      24.525   2.074  51.259  1.00  0.00     0.051 A 
HETATM    7  C12 UNL     1      23.486   1.190  51.767  1.00  0.00     0.257 A 
HETATM    8  O2  UNL     1      22.316   0.876  51.454  1.00  0.00    -0.267 OA
HETATM    9  N5  UNL     1      23.978   0.534  52.925  1.00  0.00    -0.322 N 
HETATM   10  C13 UNL     1      25.307   0.962  53.190  1.00  0.00     0.046 A 
HETATM   11  C14 UNL     1      26.194   0.623  54.199  1.00  0.00     0.033 A 
HETATM   12  C15 UNL     1      27.446   1.194  54.255  1.00  0.00     0.044 A 
HETATM   13  C16 UNL     1      27.779   2.107  53.277  1.00  0.00     0.117 A 
HETATM   14  F1  UNL     1      29.019   2.649  53.364  1.00  0.00    -0.206 F 
HETATM   15  C17 UNL     1      26.861   2.406  52.300  1.00  0.00     0.057 A 
HETATM   16  C18 UNL     1      25.613   1.869  52.200  1.00  0.00     0.010 A 
HETATM   17  C19 UNL     1      23.081   2.874  49.537  1.00  0.00     0.157 C 
HETATM   18  N6  UNL     1      22.376   3.996  50.176  1.00  0.00    -0.387 N 
HETATM   19  H15 UNL     1      23.510  -0.180  53.564  1.00  0.00     0.169 HD
HETATM   20  H21 UNL     1      21.355   3.819  50.278  1.00  0.00     0.159 HD
ENDROOT
BRANCH   2  21
HETATM   21  C5  UNL     1      24.543   7.012  51.184  1.00  0.00     0.210 C 
BRANCH  21  22
HETATM   22  N1  UNL     1      24.758   8.005  50.123  1.00  0.00    -0.302 N 
HETATM   23  C6  UNL     1      23.685   8.484  49.274  1.00  0.00     0.173 C 
BRANCH  22  24
HETATM   24  N2  UNL     1      26.072   8.506  49.931  1.00  0.00    -0.168 N 
HETATM   25  C7  UNL     1      27.064   7.975  49.190  1.00  0.00     0.161 A 
HETATM   26  C8  UNL     1      28.188   8.789  49.279  1.00  0.00     0.163 A 
HETATM   27  N3  UNL     1      27.825   9.810  50.091  1.00  0.00    -0.141 NA
HETATM   28  N4  UNL     1      26.564   9.607  50.458  1.00  0.00    -0.046 NA
ENDBRANCH  22  24
ENDBRANCH  21  22
ENDBRANCH   2  21
BRANCH   1  29
HETATM   29  C2  UNL     1      21.783   6.048  51.187  1.00  0.00     0.055 C 
HETATM   30  C1  UNL     1      20.746   6.370  50.129  1.00  0.00     0.011 C 
ENDBRANCH   1  29
TORSDOF 4
ENDMDL
MODEL 3
REMARK VINA RESULT:      -7.6      3.413      6.374
REMARK  4 active torsions:
REMARK  status: ('A' for Active; 'I' for Inactive)
REMARK    1  A    between atoms: C2_2  and  C3_3 
REMARK    2  A    between atoms: C4_4  and  C5_5 
REMARK    3  A    between atoms: C5_5  and  N1_6 
REMARK    4  A    between atoms: N1_6  and  N2_8 
ROOT
HETATM    1  C3  UNL     1      22.580   2.260  51.375  1.00  0.00     0.036 C 
HETATM    2  C4  UNL     1      23.800   2.568  51.806  1.00  0.00     0.088 C 
HETATM    3  O1  UNL     1      24.184   3.698  52.584  1.00  0.00    -0.347 OA
HETATM    4  C9  UNL     1      23.348   4.759  53.021  1.00  0.00     0.212 C 
HETATM    5  C10 UNL     1      22.257   5.021  52.097  1.00  0.00    -0.022 C 
HETATM    6  C11 UNL     1      22.243   5.857  51.079  1.00  0.00     0.051 A 
HETATM    7  C12 UNL     1      21.108   6.076  50.195  1.00  0.00     0.257 A 
HETATM    8  O2  UNL     1      19.935   5.653  50.086  1.00  0.00    -0.267 OA
HETATM    9  N5  UNL     1      21.480   7.026  49.209  1.00  0.00    -0.322 N 
HETATM   10  C13 UNL     1      22.825   7.436  49.423  1.00  0.00     0.046 A 
HETATM   11  C14 UNL     1      23.632   8.325  48.731  1.00  0.00     0.033 A 
HETATM   12  C15 UNL     1      24.931   8.549  49.128  1.00  0.00     0.044 A 
HETATM   13  C16 UNL     1      25.392   7.861  50.231  1.00  0.00     0.117 A 
HETATM   14  F1  UNL     1      26.676   8.106  50.593  1.00  0.00    -0.206 F 
HETATM   15  C17 UNL     1      24.550   6.993  50.879  1.00  0.00     0.057 A 
HETATM   16  C18 UNL     1      23.258   6.737  50.527  1.00  0.00     0.010 A 
HETATM   17  C19 UNL     1      21.042   4.195  52.300  1.00  0.00     0.157 C 
HETATM   18  N6  UNL     1      21.323   2.956  51.559  1.00  0.00    -0.387 N 
HETATM   19  H15 UNL     1      20.921   7.434  48.399  1.00  0.00     0.169 HD
HETATM   20  H21 UNL     1      20.471   2.552  51.118  1.00  0.00     0.159 HD
ENDROOT
BRANCH   2  21
HETATM   21  C5  UNL     1      24.987   1.777  51.547  1.00  0.00     0.210 C 
BRANCH  21  22
HETATM   22  N1  UNL     1      25.453   1.052  52.737  1.00  0.00    -0.302 N 
HETATM   23  C6  UNL     1      24.648   0.046  53.402  1.00  0.00     0.173 C 
BRANCH  22  24
HETATM   24  N2  UNL     1      26.744   1.356  53.244  1.00  0.00    -0.168 N 
HETATM   25  C7  UNL     1      27.867   0.617  53.154  1.00  0.00     0.161 A 
HETATM   26  C8  UNL     1      28.907   1.288  53.789  1.00  0.00     0.163 A 
HETATM   27  N3  UNL     1      28.360   2.437  54.252  1.00  0.00    -0.141 NA
HETATM   28  N4  UNL     1      27.077   2.442  53.910  1.00  0.00    -0.046 NA
ENDBRANCH  22  24
ENDBRANCH  21  22
ENDBRANCH   2  21
BRANCH   1  29
HETATM   29  C2  UNL     1      22.326   1.055  50.577  1.00  0.00     0.055 C 
HETATM   30  C1  UNL     1      21.213   0.201  51.152  1.00  0.00     0.011 C 
ENDBRANCH   1  29
TORSDOF 4
ENDMDL
MODEL 4
REMARK VINA RESULT:      -7.6      2.734      4.997
REMARK  4 active torsions:
REMARK  status: ('A' for Active; 'I' for Inactive)
REMARK    1  A    between atoms: C2_2  and  C3_3 
REMARK    2  A    between atoms: C4_4  and  C5_5 
REMARK    3  A    between atoms: C5_5  and  N1_6 
REMARK    4  A    between atoms: N1_6  and  N2_8 
ROOT
HETATM    1  C3  UNL     1      25.575   3.456  50.594  1.00  0.00     0.036 C 
HETATM    2  C4  UNL     1      24.520   4.255  50.471  1.00  0.00     0.088 C 
HETATM    3  O1  UNL     1      23.602   4.640  51.491  1.00  0.00    -0.347 OA
HETATM    4  C9  UNL     1      23.596   4.209  52.843  1.00  0.00     0.212 C 
HETATM    5  C10 UNL     1      24.120   2.862  52.998  1.00  0.00    -0.022 C 
HETATM    6  C11 UNL     1      23.454   1.726  52.969  1.00  0.00     0.051 A 
HETATM    7  C12 UNL     1      24.044   0.407  53.138  1.00  0.00     0.257 A 
HETATM    8  O2  UNL     1      25.182  -0.068  53.350  1.00  0.00    -0.267 OA
HETATM    9  N5  UNL     1      23.017  -0.565  53.022  1.00  0.00    -0.322 N 
HETATM   10  C13 UNL     1      21.773   0.079  52.782  1.00  0.00     0.046 A 
HETATM   11  C14 UNL     1      20.499  -0.433  52.589  1.00  0.00     0.033 A 
HETATM   12  C15 UNL     1      19.433   0.406  52.353  1.00  0.00     0.044 A 
HETATM   13  C16 UNL     1      19.681   1.763  52.317  1.00  0.00     0.117 A 
HETATM   14  F1  UNL     1      18.608   2.559  52.083  1.00  0.00    -0.206 F 
HETATM   15  C17 UNL     1      20.962   2.215  52.516  1.00  0.00     0.057 A 
HETATM   16  C18 UNL     1      22.049   1.427  52.753  1.00  0.00     0.010 A 
HETATM   17  C19 UNL     1      25.593   2.768  53.142  1.00  0.00     0.157 C 
HETATM   18  N6  UNL     1      26.089   2.762  51.757  1.00  0.00    -0.387 N 
HETATM   19  H15 UNL     1      23.063  -1.628  53.087  1.00  0.00     0.169 HD
HETATM   20  H21 UNL     1      26.931   2.162  51.637  1.00  0.00     0.159 HD
ENDROOT
BRANCH   2  21
HETATM   21  C5  UNL     1      24.110   4.892  49.235  1.00  0.00     0.210 C 
BRANCH  21  22
HETATM   22  N1  UNL     1      22.674   4.736  48.967  1.00  0.00    -0.302 N 
HETATM   23  C6  UNL     1      21.755   5.858  48.963  1.00  0.00     0.173 C 
BRANCH  22  24
HETATM   24  N2  UNL     1      22.179   3.433  48.702  1.00  0.00    -0.168 N 
HETATM   25  C7  UNL     1      21.050   2.862  49.167  1.00  0.00     0.161 A 
HETATM   26  C8  UNL     1      20.947   1.572  48.660  1.00  0.00     0.163 A 
HETATM   27  N3  UNL     1      22.046   1.404  47.886  1.00  0.00    -0.141 NA
HETATM   28  N4  UNL     1      22.752   2.528  47.936  1.00  0.00    -0.046 NA
ENDBRANCH  22  24
ENDBRANCH  21  22
ENDBRANCH   2  21
BRANCH   1  29
HETATM   29  C2  UNL     1      26.443   3.144  49.452  1.00  0.00     0.055 C 
HETATM   30  C1  UNL     1      27.290   4.326  49.025  1.00  0.00     0.011 C 
ENDBRANCH   1  29
TORSDOF 4
ENDMDL
MODEL 5
REMARK VINA RESULT:      -7.4      2.163      5.794
REMARK  4 active torsions:
REMARK  status: ('A' for Active; 'I' for Inactive)
REMARK    1  A    between atoms: C2_2  and  C3_3 
REMARK    2  A    between atoms: C4_4  and  C5_5 
REMARK    3  A    between atoms: C5_5  and  N1_6 
REMARK    4  A    between atoms: N1_6  and  N2_8 
ROOT
HETATM    1  C3  UNL     1      21.856   2.721  49.162  1.00  0.00     0.036 C 
HETATM    2  C4  UNL     1      21.242   2.011  50.103  1.00  0.00     0.088 C 
HETATM    3  O1  UNL     1      21.372   2.150  51.516  1.00  0.00    -0.347 OA
HETATM    4  C9  UNL     1      22.225   3.047  52.211  1.00  0.00     0.212 C 
HETATM    5  C10 UNL     1      23.443   3.337  51.475  1.00  0.00    -0.022 C 
HETATM    6  C11 UNL     1      24.596   2.702  51.534  1.00  0.00     0.051 A 
HETATM    7  C12 UNL     1      25.783   3.052  50.769  1.00  0.00     0.257 A 
HETATM    8  O2  UNL     1      26.112   3.926  49.936  1.00  0.00    -0.267 OA
HETATM    9  N5  UNL     1      26.812   2.127  51.084  1.00  0.00    -0.322 N 
HETATM   10  C13 UNL     1      26.333   1.183  52.032  1.00  0.00     0.046 A 
HETATM   11  C14 UNL     1      26.948   0.095  52.631  1.00  0.00     0.033 A 
HETATM   12  C15 UNL     1      26.261  -0.697  53.524  1.00  0.00     0.044 A 
HETATM   13  C16 UNL     1      24.949  -0.367  53.796  1.00  0.00     0.117 A 
HETATM   14  F1  UNL     1      24.303  -1.169  54.679  1.00  0.00    -0.206 F 
HETATM   15  C17 UNL     1      24.390   0.721  53.173  1.00  0.00     0.057 A 
HETATM   16  C18 UNL     1      25.027   1.536  52.285  1.00  0.00     0.010 A 
HETATM   17  C19 UNL     1      23.343   4.446  50.495  1.00  0.00     0.157 C 
HETATM   18  N6  UNL     1      22.806   3.808  49.284  1.00  0.00    -0.387 N 
HETATM   19  H15 UNL     1      27.814   2.062  50.726  1.00  0.00     0.169 HD
HETATM   20  H21 UNL     1      23.188   4.224  48.410  1.00  0.00     0.159 HD
ENDROOT
BRANCH   2  21
HETATM   21  C5  UNL     1      20.304   0.938  49.843  1.00  0.00     0.210 C 
BRANCH  21  22
HETATM   22  N1  UNL     1      18.987   1.178  50.450  1.00  0.00    -0.302 N 
HETATM   23  C6  UNL     1      18.158   2.312  50.091  1.00  0.00     0.173 C 
BRANCH  22  24
HETATM   24  N2  UNL     1      18.520   0.257  51.423  1.00  0.00    -0.168 N 
HETATM   25  C7  UNL     1      17.316  -0.346  51.487  1.00  0.00     0.161 A 
HETATM   26  C8  UNL     1      17.277  -1.173  52.605  1.00  0.00     0.163 A 
HETATM   27  N3  UNL     1      18.491  -1.037  53.191  1.00  0.00    -0.141 NA
HETATM   28  N4  UNL     1      19.199  -0.181  52.463  1.00  0.00    -0.046 NA
ENDBRANCH  22  24
ENDBRANCH  21  22
ENDBRANCH   2  21
BRANCH   1  29
HETATM   29  C2  UNL     1      21.626   2.470  47.734  1.00  0.00     0.055 C 
HETATM   30  C1  UNL     1      20.639   3.446  47.124  1.00  0.00     0.011 C 
ENDBRANCH   1  29
TORSDOF 4
ENDMDL
MODEL 6
REMARK VINA RESULT:      -7.3      2.191      5.648
REMARK  4 active torsions:
REMARK  status: ('A' for Active; 'I' for Inactive)
REMARK    1  A    between atoms: C2_2  and  C3_3 
REMARK    2  A    between atoms: C4_4  and  C5_5 
REMARK    3  A    between atoms: C5_5  and  N1_6 
REMARK    4  A    between atoms: N1_6  and  N2_8 
ROOT
HETATM    1  C3  UNL     1      21.772   2.728  49.293  1.00  0.00     0.036 C 
HETATM    2  C4  UNL     1      21.180   2.058  50.277  1.00  0.00     0.088 C 
HETATM    3  O1  UNL     1      21.387   2.215  51.678  1.00  0.00    -0.347 OA
HETATM    4  C9  UNL     1      22.308   3.089  52.314  1.00  0.00     0.212 C 
HETATM    5  C10 UNL     1      23.498   3.319  51.512  1.00  0.00    -0.022 C 
HETATM    6  C11 UNL     1      24.626   2.640  51.525  1.00  0.00     0.051 A 
HETATM    7  C12 UNL     1      25.786   2.930  50.695  1.00  0.00     0.257 A 
HETATM    8  O2  UNL     1      26.106   3.777  49.831  1.00  0.00    -0.267 OA
HETATM    9  N5  UNL     1      26.793   1.971  50.975  1.00  0.00    -0.322 N 
HETATM   10  C13 UNL     1      26.327   1.062  51.964  1.00  0.00     0.046 A 
HETATM   11  C14 UNL     1      26.929  -0.039  52.551  1.00  0.00     0.033 A 
HETATM   12  C15 UNL     1      26.259  -0.788  53.492  1.00  0.00     0.044 A 
HETATM   13  C16 UNL     1      24.976  -0.403  53.822  1.00  0.00     0.117 A 
HETATM   14  F1  UNL     1      24.345  -1.164  54.751  1.00  0.00    -0.206 F 
HETATM   15  C17 UNL     1      24.428   0.696  53.209  1.00  0.00     0.057 A 
HETATM   16  C18 UNL     1      25.050   1.470  52.275  1.00  0.00     0.010 A 
HETATM   17  C19 UNL     1      23.390   4.415  50.519  1.00  0.00     0.157 C 
HETATM   18  N6  UNL     1      22.769   3.778  49.348  1.00  0.00    -0.387 N 
HETATM   19  H15 UNL     1      27.772   1.861  50.568  1.00  0.00     0.169 HD
HETATM   20  H21 UNL     1      23.122   4.165  48.448  1.00  0.00     0.159 HD
ENDROOT
BRANCH   2  21
HETATM   21  C5  UNL     1      20.189   1.019  50.084  1.00  0.00     0.210 C 
BRANCH  21  22
HETATM   22  N1  UNL     1      19.119   1.063  51.090  1.00  0.00    -0.302 N 
HETATM   23  C6  UNL     1      18.913   0.002  52.057  1.00  0.00     0.173 C 
BRANCH  22  24
HETATM   24  N2  UNL     1      18.260   2.193  51.105  1.00  0.00    -0.168 N 
HETATM   25  C7  UNL     1      17.271   2.496  50.242  1.00  0.00     0.161 A 
HETATM   26  C8  UNL     1      16.681   3.696  50.625  1.00  0.00     0.163 A 
HETATM   27  N3  UNL     1      17.352   4.084  51.735  1.00  0.00    -0.141 NA
HETATM   28  N4  UNL     1      18.280   3.169  51.989  1.00  0.00    -0.046 NA
ENDBRANCH  22  24
ENDBRANCH  21  22
ENDBRANCH   2  21
BRANCH   1  29
HETATM   29  C2  UNL     1      21.460   2.463  47.884  1.00  0.00     0.055 C 
HETATM   30  C1  UNL     1      21.908   3.585  46.968  1.00  0.00     0.011 C 
ENDBRANCH   1  29
TORSDOF 4
ENDMDL
MODEL 7
REMARK VINA RESULT:      -7.3      6.708     10.298
REMARK  4 active torsions:
REMARK  status: ('A' for Active; 'I' for Inactive)
REMARK    1  A    between atoms: C2_2  and  C3_3 
REMARK    2  A    between atoms: C4_4  and  C5_5 
REMARK    3  A    between atoms: C5_5  and  N1_6 
REMARK    4  A    between atoms: N1_6  and  N2_8 
ROOT
HETATM    1  C3  UNL     1      30.111   9.812  48.552  1.00  0.00     0.036 C 
HETATM    2  C4  UNL     1      30.580   8.589  48.323  1.00  0.00     0.088 C 
HETATM    3  O1  UNL     1      30.038   7.603  47.449  1.00  0.00    -0.347 OA
HETATM    4  C9  UNL     1      28.853   7.706  46.675  1.00  0.00     0.212 C 
HETATM    5  C10 UNL     1      27.853   8.552  47.303  1.00  0.00    -0.022 C 
HETATM    6  C11 UNL     1      26.896   8.193  48.134  1.00  0.00     0.051 A 
HETATM    7  C12 UNL     1      25.919   9.096  48.724  1.00  0.00     0.257 A 
HETATM    8  O2  UNL     1      25.651  10.318  48.671  1.00  0.00    -0.267 OA
HETATM    9  N5  UNL     1      25.070   8.348  49.579  1.00  0.00    -0.322 N 
HETATM   10  C13 UNL     1      25.462   6.981  49.566  1.00  0.00     0.046 A 
HETATM   11  C14 UNL     1      24.958   5.878  50.236  1.00  0.00     0.033 A 
HETATM   12  C15 UNL     1      25.527   4.635  50.071  1.00  0.00     0.044 A 
HETATM   13  C16 UNL     1      26.609   4.533  49.220  1.00  0.00     0.117 A 
HETATM   14  F1  UNL     1      27.144   3.294  49.082  1.00  0.00    -0.206 F 
HETATM   15  C17 UNL     1      27.067   5.659  48.583  1.00  0.00     0.057 A 
HETATM   16  C18 UNL     1      26.538   6.909  48.711  1.00  0.00     0.010 A 
HETATM   17  C19 UNL     1      27.976  10.001  47.013  1.00  0.00     0.157 C 
HETATM   18  N6  UNL     1      28.951  10.483  48.003  1.00  0.00    -0.387 N 
HETATM   19  H15 UNL     1      24.245   8.660  50.178  1.00  0.00     0.169 HD
HETATM   20  H21 UNL     1      28.744  11.449  48.331  1.00  0.00     0.159 HD
ENDROOT
BRANCH   2  21
HETATM   21  C5  UNL     1      31.764   8.032  48.947  1.00  0.00     0.210 C 
BRANCH  21  22
HETATM   22  N1  UNL     1      32.803   7.675  47.971  1.00  0.00    -0.302 N 
HETATM   23  C6  UNL     1      33.487   8.665  47.162  1.00  0.00     0.173 C 
BRANCH  22  24
HETATM   24  N2  UNL     1      33.142   6.304  47.825  1.00  0.00    -0.168 N 
HETATM   25  C7  UNL     1      34.272   5.778  47.313  1.00  0.00     0.161 A 
HETATM   26  C8  UNL     1      34.191   4.390  47.357  1.00  0.00     0.163 A 
HETATM   27  N3  UNL     1      32.983   4.122  47.908  1.00  0.00    -0.141 NA
HETATM   28  N4  UNL     1      32.391   5.281  48.172  1.00  0.00    -0.046 NA
ENDBRANCH  22  24
ENDBRANCH  21  22
ENDBRANCH   2  21
BRANCH   1  29
HETATM   29  C2  UNL     1      30.776  10.730  49.484  1.00  0.00     0.055 C 
HETATM   30  C1  UNL     1      30.647  12.180  49.063  1.00  0.00     0.011 C 
ENDBRANCH   1  29
TORSDOF 4
ENDMDL
MODEL 8
REMARK VINA RESULT:      -7.2      2.249      5.852
REMARK  4 active torsions:
REMARK  status: ('A' for Active; 'I' for Inactive)
REMARK    1  A    between atoms: C2_2  and  C3_3 
REMARK    2  A    between atoms: C4_4  and  C5_5 
REMARK    3  A    between atoms: C5_5  and  N1_6 
REMARK    4  A    between atoms: N1_6  and  N2_8 
ROOT
HETATM    1  C3  UNL     1      21.363   4.922  48.827  1.00  0.00     0.036 C 
HETATM    2  C4  UNL     1      20.780   4.009  49.598  1.00  0.00     0.088 C 
HETATM    3  O1  UNL     1      20.945   3.827  51.001  1.00  0.00    -0.347 OA
HETATM    4  C9  UNL     1      21.807   4.555  51.862  1.00  0.00     0.212 C 
HETATM    5  C10 UNL     1      23.004   5.022  51.182  1.00  0.00    -0.022 C 
HETATM    6  C11 UNL     1      24.163   4.405  51.069  1.00  0.00     0.051 A 
HETATM    7  C12 UNL     1      25.327   4.936  50.377  1.00  0.00     0.257 A 
HETATM    8  O2  UNL     1      25.627   5.980  49.755  1.00  0.00    -0.267 OA
HETATM    9  N5  UNL     1      26.372   3.979  50.450  1.00  0.00    -0.322 N 
HETATM   10  C13 UNL     1      25.925   2.838  51.171  1.00  0.00     0.046 A 
HETATM   11  C14 UNL     1      26.565   1.651  51.494  1.00  0.00     0.033 A 
HETATM   12  C15 UNL     1      25.908   0.669  52.200  1.00  0.00     0.044 A 
HETATM   13  C16 UNL     1      24.600   0.910  52.570  1.00  0.00     0.117 A 
HETATM   14  F1  UNL     1      23.984  -0.079  53.263  1.00  0.00    -0.206 F 
HETATM   15  C17 UNL     1      24.016   2.103  52.223  1.00  0.00     0.057 A 
HETATM   16  C18 UNL     1      24.623   3.106  51.527  1.00  0.00     0.010 A 
HETATM   17  C19 UNL     1      22.869   6.322  50.482  1.00  0.00     0.157 C 
HETATM   18  N6  UNL     1      22.307   5.966  49.170  1.00  0.00    -0.387 N 
HETATM   19  H15 UNL     1      27.365   4.010  50.063  1.00  0.00     0.169 HD
HETATM   20  H21 UNL     1      22.663   6.574  48.404  1.00  0.00     0.159 HD
ENDROOT
BRANCH   2  21
HETATM   21  C5  UNL     1      19.844   3.009  49.123  1.00  0.00     0.210 C 
BRANCH  21  22
HETATM   22  N1  UNL     1      20.241   1.643  49.489  1.00  0.00    -0.302 N 
HETATM   23  C6  UNL     1      21.493   1.052  49.057  1.00  0.00     0.173 C 
BRANCH  22  24
HETATM   24  N2  UNL     1      19.357   0.881  50.297  1.00  0.00    -0.168 N 
HETATM   25  C7  UNL     1      19.613   0.294  51.483  1.00  0.00     0.161 A 
HETATM   26  C8  UNL     1      18.465  -0.352  51.930  1.00  0.00     0.163 A 
HETATM   27  N3  UNL     1      17.533  -0.125  50.974  1.00  0.00    -0.141 NA
HETATM   28  N4  UNL     1      18.099   0.608  50.022  1.00  0.00    -0.046 NA
ENDBRANCH  22  24
ENDBRANCH  21  22
ENDBRANCH   2  21
BRANCH   1  29
HETATM   29  C2  UNL     1      21.098   4.997  47.386  1.00  0.00     0.055 C 
HETATM   30  C1  UNL     1      22.013   4.097  46.579  1.00  0.00     0.011 C 
ENDBRANCH   1  29
TORSDOF 4
ENDMDL
MODEL 9
REMARK VINA RESULT:      -7.1      7.018     11.956
REMARK  4 active torsions:
REMARK  status: ('A' for Active; 'I' for Inactive)
REMARK    1  A    between atoms: C2_2  and  C3_3 
REMARK    2  A    between atoms: C4_4  and  C5_5 
REMARK    3  A    between atoms: C5_5  and  N1_6 
REMARK    4  A    between atoms: N1_6  and  N2_8 
ROOT
HETATM    1  C3  UNL     1      29.561   8.830  46.965  1.00  0.00     0.036 C 
HETATM    2  C4  UNL     1      29.187   7.751  47.645  1.00  0.00     0.088 C 
HETATM    3  O1  UNL     1      29.913   7.078  48.670  1.00  0.00    -0.347 OA
HETATM    4  C9  UNL     1      31.213   7.394  49.145  1.00  0.00     0.212 C 
HETATM    5  C10 UNL     1      32.053   7.980  48.114  1.00  0.00    -0.022 C 
HETATM    6  C11 UNL     1      32.859   7.359  47.278  1.00  0.00     0.051 A 
HETATM    7  C12 UNL     1      33.680   8.012  46.269  1.00  0.00     0.257 A 
HETATM    8  O2  UNL     1      33.907   9.182  45.889  1.00  0.00    -0.267 OA
HETATM    9  N5  UNL     1      34.391   7.015  45.551  1.00  0.00    -0.322 N 
HETATM   10  C13 UNL     1      34.059   5.730  46.061  1.00  0.00     0.046 A 
HETATM   11  C14 UNL     1      34.477   4.462  45.689  1.00  0.00     0.033 A 
HETATM   12  C15 UNL     1      33.994   3.346  46.334  1.00  0.00     0.044 A 
HETATM   13  C16 UNL     1      33.086   3.538  47.355  1.00  0.00     0.117 A 
HETATM   14  F1  UNL     1      32.631   2.416  47.967  1.00  0.00    -0.206 F 
HETATM   15  C17 UNL     1      32.706   4.816  47.681  1.00  0.00     0.057 A 
HETATM   16  C18 UNL     1      33.156   5.951  47.076  1.00  0.00     0.010 A 
HETATM   17  C19 UNL     1      31.929   9.449  47.955  1.00  0.00     0.157 C 
HETATM   18  N6  UNL     1      30.775   9.616  47.058  1.00  0.00    -0.387 N 
HETATM   19  H15 UNL     1      35.083   7.107  44.746  1.00  0.00     0.169 HD
HETATM   20  H21 UNL     1      30.884  10.426  46.413  1.00  0.00     0.159 HD
ENDROOT
BRANCH   2  21
HETATM   21  C5  UNL     1      27.933   7.051  47.451  1.00  0.00     0.210 C 
BRANCH  21  22
HETATM   22  N1  UNL     1      27.176   6.889  48.700  1.00  0.00    -0.302 N 
HETATM   23  C6  UNL     1      26.783   8.015  49.525  1.00  0.00     0.173 C 
BRANCH  22  24
HETATM   24  N2  UNL     1      26.822   5.575  49.104  1.00  0.00    -0.168 N 
HETATM   25  C7  UNL     1      25.709   5.176  49.751  1.00  0.00     0.161 A 
HETATM   26  C8  UNL     1      25.766   3.801  49.952  1.00  0.00     0.163 A 
HETATM   27  N3  UNL     1      26.941   3.409  49.404  1.00  0.00    -0.141 NA
HETATM   28  N4  UNL     1      27.539   4.488  48.912  1.00  0.00    -0.046 NA
ENDBRANCH  22  24
ENDBRANCH  21  22
ENDBRANCH   2  21
BRANCH   1  29
HETATM   29  C2  UNL     1      28.708   9.423  45.929  1.00  0.00     0.055 C 
HETATM   30  C1  UNL     1      29.254   9.207  44.532  1.00  0.00     0.011 C 
ENDBRANCH   1  29
TORSDOF 4
ENDMDL
