MODEL 1
REMARK VINA RESULT:      -8.9      0.000      0.000
REMARK  5 active torsions:
REMARK  status: ('A' for Active; 'I' for Inactive)
REMARK    1  A    between atoms: O1_2  and  C2_3 
REMARK    2  A    between atoms: C4_5  and  O2_6 
REMARK    3  A    between atoms: O2_6  and  C5_7 
REMARK    4  A    between atoms: C10_13  and  N1_14 
REMARK    5  A    between atoms: N1_14  and  C11_15 
ROOT
HETATM    1  C2  UNL     1      20.142  -0.509  53.117  1.00  0.00     0.073 A 
HETATM    2  C3  UNL     1      20.925   0.187  52.219  1.00  0.00     0.074 A 
HETATM    3  C4  UNL     1      22.292   0.321  52.372  1.00  0.00     0.088 A 
HETATM    4  C9  UNL     1      22.809  -0.294  53.492  1.00  0.00     0.072 A 
HETATM    5  C10 UNL     1      24.149  -0.258  53.791  1.00  0.00     0.144 A 
HETATM    6  N2  UNL     1      24.701  -0.855  54.888  1.00  0.00    -0.223 NA
HETATM    7  C17 UNL     1      23.892  -1.517  55.725  1.00  0.00     0.236 A 
HETATM    8  N3  UNL     1      22.564  -1.595  55.496  1.00  0.00    -0.241 NA
HETATM    9  C18 UNL     1      22.039  -0.994  54.399  1.00  0.00     0.077 A 
HETATM   10  C19 UNL     1      20.688  -1.113  54.226  1.00  0.00     0.069 A 
ENDROOT
BRANCH   5  11
HETATM   11  N1  UNL     1      25.080   0.425  52.957  1.00  0.00    -0.340 N 
HETATM   12  H12 UNL     1      24.817   1.101  52.178  1.00  0.00     0.167 HD
BRANCH  11  13
HETATM   13  C11 UNL     1      26.476   0.182  53.181  1.00  0.00     0.035 A 
HETATM   14  C12 UNL     1      27.006  -1.034  52.815  1.00  0.00     0.032 A 
HETATM   15  C13 UNL     1      28.348  -1.251  53.034  1.00  0.00     0.046 A 
HETATM   16  C14 UNL     1      29.136  -0.262  53.612  1.00  0.00     0.138 A 
HETATM   17  F1  UNL     1      30.457  -0.546  53.799  1.00  0.00    -0.204 F 
HETATM   18  C15 UNL     1      28.622   0.944  53.977  1.00  0.00     0.074 A 
HETATM   19 CL1  UNL     1      29.671   2.163  54.705  1.00  0.00    -0.081 Cl
HETATM   20  C16 UNL     1      27.281   1.154  53.755  1.00  0.00     0.056 A 
ENDBRANCH  11  13
ENDBRANCH   5  11
BRANCH   3  21
HETATM   21  O2  UNL     1      23.142   0.997  51.525  1.00  0.00    -0.343 OA
BRANCH  21  22
HETATM   22  C5  UNL     1      22.975   2.278  51.018  1.00  0.00     0.154 C 
HETATM   23  C6  UNL     1      22.646   3.221  52.152  1.00  0.00     0.061 C 
HETATM   24  C7  UNL     1      23.790   4.213  52.159  1.00  0.00     0.170 C 
HETATM   25  O3  UNL     1      24.131   4.281  50.829  1.00  0.00    -0.389 OA
HETATM   26  C8  UNL     1      24.244   2.912  50.487  1.00  0.00     0.200 C 
ENDBRANCH  21  22
ENDBRANCH   3  21
BRANCH   1  27
HETATM   27  O1  UNL     1      18.796  -0.575  52.860  1.00  0.00    -0.356 OA
HETATM   28  C1  UNL     1      18.279  -0.153  51.612  1.00  0.00     0.210 C 
ENDBRANCH   1  27
TORSDOF 5
ENDMDL
MODEL 2
REMARK VINA RESULT:      -8.6      2.308      4.658
REMARK  5 active torsions:
REMARK  status: ('A' for Active; 'I' for Inactive)
REMARK    1  A    between atoms: O1_2  and  C2_3 
REMARK    2  A    between atoms: C4_5  and  O2_6 
REMARK    3  A    between atoms: O2_6  and  C5_7 
REMARK    4  A    between atoms: C10_13  and  N1_14 
REMARK    5  A    between atoms: N1_14  and  C11_15 
ROOT
HETATM    1  C2  UNL     1      21.957   2.052  49.487  1.00  0.00     0.073 A 
HETATM    2  C3  UNL     1      22.010   1.424  50.715  1.00  0.00     0.074 A 
HETATM    3  C4  UNL     1      23.129   1.468  51.524  1.00  0.00     0.088 A 
HETATM    4  C9  UNL     1      24.186   2.186  51.007  1.00  0.00     0.072 A 
HETATM    5  C10 UNL     1      25.371   2.330  51.686  1.00  0.00     0.144 A 
HETATM    6  N2  UNL     1      26.441   3.034  51.212  1.00  0.00    -0.223 NA
HETATM    7  C17 UNL     1      26.332   3.622  50.013  1.00  0.00     0.236 A 
HETATM    8  N3  UNL     1      25.197   3.525  49.288  1.00  0.00    -0.241 NA
HETATM    9  C18 UNL     1      24.148   2.819  49.782  1.00  0.00     0.077 A 
HETATM   10  C19 UNL     1      23.030   2.763  48.998  1.00  0.00     0.069 A 
ENDROOT
BRANCH   5  11
HETATM   11  N1  UNL     1      25.574   1.736  52.965  1.00  0.00    -0.340 N 
HETATM   12  H12 UNL     1      24.875   1.768  53.768  1.00  0.00     0.167 HD
BRANCH  11  13
HETATM   13  C11 UNL     1      26.810   1.045  53.189  1.00  0.00     0.035 A 
HETATM   14  C12 UNL     1      27.890   1.753  53.665  1.00  0.00     0.032 A 
HETATM   15  C13 UNL     1      29.070   1.076  53.878  1.00  0.00     0.046 A 
HETATM   16  C14 UNL     1      29.157  -0.286  53.614  1.00  0.00     0.138 A 
HETATM   17  F1  UNL     1      30.356  -0.892  53.848  1.00  0.00    -0.204 F 
HETATM   18  C15 UNL     1      28.095  -0.996  53.144  1.00  0.00     0.074 A 
HETATM   19 CL1  UNL     1      28.264  -2.725  52.827  1.00  0.00    -0.081 Cl
HETATM   20  C16 UNL     1      26.920  -0.313  52.934  1.00  0.00     0.056 A 
ENDBRANCH  11  13
ENDBRANCH   5  11
BRANCH   3  21
HETATM   21  O2  UNL     1      23.263   0.871  52.758  1.00  0.00    -0.343 OA
BRANCH  21  22
HETATM   22  C5  UNL     1      22.671  -0.311  53.185  1.00  0.00     0.154 C 
HETATM   23  C6  UNL     1      23.656  -1.078  54.036  1.00  0.00     0.061 C 
HETATM   24  C7  UNL     1      22.992  -1.165  55.394  1.00  0.00     0.170 C 
HETATM   25  O3  UNL     1      21.657  -1.212  55.067  1.00  0.00    -0.389 OA
HETATM   26  C8  UNL     1      21.538  -0.122  54.171  1.00  0.00     0.200 C 
ENDBRANCH  21  22
ENDBRANCH   3  21
BRANCH   1  27
HETATM   27  O1  UNL     1      20.792   1.940  48.771  1.00  0.00    -0.356 OA
HETATM   28  C1  UNL     1      20.417   2.942  47.844  1.00  0.00     0.210 C 
ENDBRANCH   1  27
TORSDOF 5
ENDMDL
MODEL 3
REMARK VINA RESULT:      -8.4      4.069      7.393
REMARK  5 active torsions:
REMARK  status: ('A' for Active; 'I' for Inactive)
REMARK    1  A    between atoms: O1_2  and  C2_3 
REMARK    2  A    between atoms: C4_5  and  O2_6 
REMARK    3  A    between atoms: O2_6  and  C5_7 
REMARK    4  A    between atoms: C10_13  and  N1_14 
REMARK    5  A    between atoms: N1_14  and  C11_15 
ROOT
HETATM    1  C2  UNL     1      26.477   4.021  49.625  1.00  0.00     0.073 A 
HETATM    2  C3  UNL     1      26.475   2.797  50.262  1.00  0.00     0.074 A 
HETATM    3  C4  UNL     1      25.483   2.422  51.148  1.00  0.00     0.088 A 
HETATM    4  C9  UNL     1      24.498   3.367  51.343  1.00  0.00     0.072 A 
HETATM    5  C10 UNL     1      23.439   3.152  52.190  1.00  0.00     0.144 A 
HETATM    6  N2  UNL     1      22.443   4.059  52.411  1.00  0.00    -0.223 NA
HETATM    7  C17 UNL     1      22.498   5.232  51.765  1.00  0.00     0.236 A 
HETATM    8  N3  UNL     1      23.509   5.514  50.916  1.00  0.00    -0.241 NA
HETATM    9  C18 UNL     1      24.487   4.595  50.714  1.00  0.00     0.077 A 
HETATM   10  C19 UNL     1      25.480   4.944  49.841  1.00  0.00     0.069 A 
ENDROOT
BRANCH   5  11
HETATM   11  N1  UNL     1      23.303   1.935  52.918  1.00  0.00    -0.340 N 
HETATM   12  H12 UNL     1      24.055   1.511  53.541  1.00  0.00     0.167 HD
BRANCH  11  13
HETATM   13  C11 UNL     1      22.061   1.227  52.804  1.00  0.00     0.035 A 
HETATM   14  C12 UNL     1      21.637   0.455  53.862  1.00  0.00     0.032 A 
HETATM   15  C13 UNL     1      20.441  -0.217  53.739  1.00  0.00     0.046 A 
HETATM   16  C14 UNL     1      19.691  -0.112  52.573  1.00  0.00     0.138 A 
HETATM   17  F1  UNL     1      18.517  -0.804  52.521  1.00  0.00    -0.204 F 
HETATM   18  C15 UNL     1      20.100   0.650  51.522  1.00  0.00     0.074 A 
HETATM   19 CL1  UNL     1      19.107   0.747  50.066  1.00  0.00    -0.081 Cl
HETATM   20  C16 UNL     1      21.296   1.318  51.652  1.00  0.00     0.056 A 
ENDBRANCH  11  13
ENDBRANCH   5  11
BRANCH   3  21
HETATM   21  O2  UNL     1      25.407   1.224  51.822  1.00  0.00    -0.343 OA
BRANCH  21  22
HETATM   22  C5  UNL     1      26.452   0.531  52.418  1.00  0.00     0.154 C 
HETATM   23  C6  UNL     1      26.836   1.223  53.705  1.00  0.00     0.061 C 
HETATM   24  C7  UNL     1      26.568   0.192  54.781  1.00  0.00     0.170 C 
HETATM   25  O3  UNL     1      26.829  -0.990  54.129  1.00  0.00    -0.389 OA
HETATM   26  C8  UNL     1      26.076  -0.841  52.940  1.00  0.00     0.200 C 
ENDBRANCH  21  22
ENDBRANCH   3  21
BRANCH   1  27
HETATM   27  O1  UNL     1      27.515   4.282  48.765  1.00  0.00    -0.356 OA
HETATM   28  C1  UNL     1      27.871   5.616  48.452  1.00  0.00     0.210 C 
ENDBRANCH   1  27
TORSDOF 5
ENDMDL
MODEL 4
REMARK VINA RESULT:      -8.1      4.202      6.683
REMARK  5 active torsions:
REMARK  status: ('A' for Active; 'I' for Inactive)
REMARK    1  A    between atoms: O1_2  and  C2_3 
REMARK    2  A    between atoms: C4_5  and  O2_6 
REMARK    3  A    between atoms: O2_6  and  C5_7 
REMARK    4  A    between atoms: C10_13  and  N1_14 
REMARK    5  A    between atoms: N1_14  and  C11_15 
ROOT
HETATM    1  C2  UNL     1      25.894  -0.261  54.681  1.00  0.00     0.073 A 
HETATM    2  C3  UNL     1      25.747   0.424  53.492  1.00  0.00     0.074 A 
HETATM    3  C4  UNL     1      24.545   0.485  52.813  1.00  0.00     0.088 A 
HETATM    4  C9  UNL     1      23.508  -0.193  53.417  1.00  0.00     0.072 A 
HETATM    5  C10 UNL     1      22.247  -0.231  52.873  1.00  0.00     0.144 A 
HETATM    6  N2  UNL     1      21.192  -0.888  53.439  1.00  0.00    -0.223 NA
HETATM    7  C17 UNL     1      21.394  -1.536  54.594  1.00  0.00     0.236 A 
HETATM    8  N3  UNL     1      22.606  -1.543  55.188  1.00  0.00    -0.241 NA
HETATM    9  C18 UNL     1      23.639  -0.882  54.605  1.00  0.00     0.077 A 
HETATM   10  C19 UNL     1      24.838  -0.928  55.260  1.00  0.00     0.069 A 
ENDROOT
BRANCH   5  11
HETATM   11  N1  UNL     1      21.944   0.429  51.648  1.00  0.00    -0.340 N 
HETATM   12  H12 UNL     1      22.561   0.414  50.780  1.00  0.00     0.167 HD
BRANCH  11  13
HETATM   13  C11 UNL     1      20.718   1.170  51.577  1.00  0.00     0.035 A 
HETATM   14  C12 UNL     1      20.628   2.372  52.242  1.00  0.00     0.032 A 
HETATM   15  C13 UNL     1      19.446   3.072  52.162  1.00  0.00     0.046 A 
HETATM   16  C14 UNL     1      18.377   2.569  51.429  1.00  0.00     0.138 A 
HETATM   17  F1  UNL     1      17.237   3.317  51.394  1.00  0.00    -0.204 F 
HETATM   18  C15 UNL     1      18.455   1.383  50.767  1.00  0.00     0.074 A 
HETATM   19 CL1  UNL     1      17.066   0.794  49.850  1.00  0.00    -0.081 Cl
HETATM   20  C16 UNL     1      19.640   0.688  50.850  1.00  0.00     0.056 A 
ENDBRANCH  11  13
ENDBRANCH   5  11
BRANCH   3  21
HETATM   21  O2  UNL     1      24.315   1.144  51.626  1.00  0.00    -0.343 OA
BRANCH  21  22
HETATM   22  C5  UNL     1      24.717   2.430  51.291  1.00  0.00     0.154 C 
HETATM   23  C6  UNL     1      24.122   2.801  49.952  1.00  0.00     0.061 C 
HETATM   24  C7  UNL     1      23.237   3.992  50.252  1.00  0.00     0.170 C 
HETATM   25  O3  UNL     1      23.902   4.603  51.289  1.00  0.00    -0.389 OA
HETATM   26  C8  UNL     1      24.130   3.517  52.168  1.00  0.00     0.200 C 
ENDBRANCH  21  22
ENDBRANCH   3  21
BRANCH   1  27
HETATM   27  O1  UNL     1      27.136  -0.251  55.265  1.00  0.00    -0.356 OA
HETATM   28  C1  UNL     1      28.290   0.040  54.498  1.00  0.00     0.210 C 
ENDBRANCH   1  27
TORSDOF 5
ENDMDL
MODEL 5
REMARK VINA RESULT:      -8.0      4.160      7.290
REMARK  5 active torsions:
REMARK  status: ('A' for Active; 'I' for Inactive)
REMARK    1  A    between atoms: O1_2  and  C2_3 
REMARK    2  A    between atoms: C4_5  and  O2_6 
REMARK    3  A    between atoms: O2_6  and  C5_7 
REMARK    4  A    between atoms: C10_13  and  N1_14 
REMARK    5  A    between atoms: N1_14  and  C11_15 
ROOT
HETATM    1  C2  UNL     1      26.668  -0.278  53.134  1.00  0.00     0.073 A 
HETATM    2  C3  UNL     1      25.310  -0.325  53.376  1.00  0.00     0.074 A 
HETATM    3  C4  UNL     1      24.428   0.597  52.845  1.00  0.00     0.088 A 
HETATM    4  C9  UNL     1      25.013   1.564  52.056  1.00  0.00     0.072 A 
HETATM    5  C10 UNL     1      24.277   2.553  51.450  1.00  0.00     0.144 A 
HETATM    6  N2  UNL     1      24.815   3.528  50.660  1.00  0.00    -0.223 NA
HETATM    7  C17 UNL     1      26.140   3.524  50.460  1.00  0.00     0.236 A 
HETATM    8  N3  UNL     1      26.927   2.582  51.022  1.00  0.00    -0.241 NA
HETATM    9  C18 UNL     1      26.368   1.624  51.804  1.00  0.00     0.077 A 
HETATM   10  C19 UNL     1      27.222   0.701  52.341  1.00  0.00     0.069 A 
ENDROOT
BRANCH   5  11
HETATM   11  N1  UNL     1      22.864   2.634  51.610  1.00  0.00    -0.340 N 
HETATM   12  H12 UNL     1      22.359   2.684  52.546  1.00  0.00     0.167 HD
BRANCH  11  13
HETATM   13  C11 UNL     1      22.060   2.649  50.423  1.00  0.00     0.035 A 
HETATM   14  C12 UNL     1      22.049   1.535  49.614  1.00  0.00     0.032 A 
HETATM   15  C13 UNL     1      21.270   1.562  48.479  1.00  0.00     0.046 A 
HETATM   16  C14 UNL     1      20.521   2.691  48.166  1.00  0.00     0.138 A 
HETATM   17  F1  UNL     1      19.773   2.648  47.026  1.00  0.00    -0.204 F 
HETATM   18  C15 UNL     1      20.524   3.798  48.959  1.00  0.00     0.074 A 
HETATM   19 CL1  UNL     1      19.552   5.202  48.512  1.00  0.00    -0.081 Cl
HETATM   20  C16 UNL     1      21.304   3.763  50.091  1.00  0.00     0.056 A 
ENDBRANCH  11  13
ENDBRANCH   5  11
BRANCH   3  21
HETATM   21  O2  UNL     1      23.065   0.621  53.038  1.00  0.00    -0.343 OA
BRANCH  21  22
HETATM   22  C5  UNL     1      22.343  -0.069  54.003  1.00  0.00     0.154 C 
HETATM   23  C6  UNL     1      20.951   0.511  54.088  1.00  0.00     0.061 C 
HETATM   24  C7  UNL     1      20.041  -0.636  53.703  1.00  0.00     0.170 C 
HETATM   25  O3  UNL     1      20.732  -1.730  54.169  1.00  0.00    -0.389 OA
HETATM   26  C8  UNL     1      22.026  -1.505  53.640  1.00  0.00     0.200 C 
ENDBRANCH  21  22
ENDBRANCH   3  21
BRANCH   1  27
HETATM   27  O1  UNL     1      27.446  -1.247  53.715  1.00  0.00    -0.356 OA
HETATM   28  C1  UNL     1      28.841  -1.289  53.479  1.00  0.00     0.210 C 
ENDBRANCH   1  27
TORSDOF 5
ENDMDL
MODEL 6
REMARK VINA RESULT:      -7.9      3.727      5.735
REMARK  5 active torsions:
REMARK  status: ('A' for Active; 'I' for Inactive)
REMARK    1  A    between atoms: O1_2  and  C2_3 
REMARK    2  A    between atoms: C4_5  and  O2_6 
REMARK    3  A    between atoms: O2_6  and  C5_7 
REMARK    4  A    between atoms: C10_13  and  N1_14 
REMARK    5  A    between atoms: N1_14  and  C11_15 
ROOT
HETATM    1  C2  UNL     1      21.416   0.179  52.646  1.00  0.00     0.073 A 
HETATM    2  C3  UNL     1      22.639   0.576  53.146  1.00  0.00     0.074 A 
HETATM    3  C4  UNL     1      23.531   1.335  52.412  1.00  0.00     0.088 A 
HETATM    4  C9  UNL     1      23.101   1.662  51.144  1.00  0.00     0.072 A 
HETATM    5  C10 UNL     1      23.866   2.414  50.286  1.00  0.00     0.144 A 
HETATM    6  N2  UNL     1      23.477   2.762  49.024  1.00  0.00    -0.223 NA
HETATM    7  C17 UNL     1      22.278   2.348  48.592  1.00  0.00     0.236 A 
HETATM    8  N3  UNL     1      21.471   1.606  49.380  1.00  0.00    -0.241 NA
HETATM    9  C18 UNL     1      21.881   1.274  50.631  1.00  0.00     0.077 A 
HETATM   10  C19 UNL     1      21.014   0.523  51.375  1.00  0.00     0.069 A 
ENDROOT
BRANCH   5  11
HETATM   11  N1  UNL     1      25.154   2.893  50.662  1.00  0.00    -0.340 N 
HETATM   12  H12 UNL     1      25.823   2.389  51.318  1.00  0.00     0.167 HD
BRANCH  11  13
HETATM   13  C11 UNL     1      25.580   4.149  50.116  1.00  0.00     0.035 A 
HETATM   14  C12 UNL     1      26.662   4.170  49.265  1.00  0.00     0.032 A 
HETATM   15  C13 UNL     1      27.059   5.383  48.747  1.00  0.00     0.046 A 
HETATM   16  C14 UNL     1      26.379   6.548  49.083  1.00  0.00     0.138 A 
HETATM   17  F1  UNL     1      26.827   7.713  48.533  1.00  0.00    -0.204 F 
HETATM   18  C15 UNL     1      25.308   6.539  49.923  1.00  0.00     0.074 A 
HETATM   19 CL1  UNL     1      24.483   8.050  50.314  1.00  0.00    -0.081 Cl
HETATM   20  C16 UNL     1      24.917   5.324  50.437  1.00  0.00     0.056 A 
ENDBRANCH  11  13
ENDBRANCH   5  11
BRANCH   3  21
HETATM   21  O2  UNL     1      24.767   1.770  52.835  1.00  0.00    -0.343 OA
BRANCH  21  22
HETATM   22  C5  UNL     1      25.651   1.099  53.668  1.00  0.00     0.154 C 
HETATM   23  C6  UNL     1      26.061  -0.200  53.013  1.00  0.00     0.061 C 
HETATM   24  C7  UNL     1      27.557  -0.069  52.822  1.00  0.00     0.170 C 
HETATM   25  O3  UNL     1      27.926   0.703  53.898  1.00  0.00    -0.389 OA
HETATM   26  C8  UNL     1      27.000   1.771  53.821  1.00  0.00     0.200 C 
ENDBRANCH  21  22
ENDBRANCH   3  21
BRANCH   1  27
HETATM   27  O1  UNL     1      20.613  -0.572  53.468  1.00  0.00    -0.356 OA
HETATM   28  C1  UNL     1      21.170  -1.575  54.297  1.00  0.00     0.210 C 
ENDBRANCH   1  27
TORSDOF 5
ENDMDL
MODEL 7
REMARK VINA RESULT:      -7.6      2.553      3.815
REMARK  5 active torsions:
REMARK  status: ('A' for Active; 'I' for Inactive)
REMARK    1  A    between atoms: O1_2  and  C2_3 
REMARK    2  A    between atoms: C4_5  and  O2_6 
REMARK    3  A    between atoms: O2_6  and  C5_7 
REMARK    4  A    between atoms: C10_13  and  N1_14 
REMARK    5  A    between atoms: N1_14  and  C11_15 
ROOT
HETATM    1  C2  UNL     1      22.099   2.160  48.901  1.00  0.00     0.073 A 
HETATM    2  C3  UNL     1      23.308   2.822  48.954  1.00  0.00     0.074 A 
HETATM    3  C4  UNL     1      24.138   2.765  50.058  1.00  0.00     0.088 A 
HETATM    4  C9  UNL     1      23.662   1.995  51.097  1.00  0.00     0.072 A 
HETATM    5  C10 UNL     1      24.366   1.832  52.266  1.00  0.00     0.144 A 
HETATM    6  N2  UNL     1      23.932   1.078  53.318  1.00  0.00    -0.223 NA
HETATM    7  C17 UNL     1      22.749   0.458  53.209  1.00  0.00     0.236 A 
HETATM    8  N3  UNL     1      22.002   0.572  52.091  1.00  0.00    -0.241 NA
HETATM    9  C18 UNL     1      22.456   1.327  51.059  1.00  0.00     0.077 A 
HETATM   10  C19 UNL     1      21.650   1.399  49.956  1.00  0.00     0.069 A 
ENDROOT
BRANCH   5  11
HETATM   11  N1  UNL     1      25.630   2.456  52.467  1.00  0.00    -0.340 N 
HETATM   12  H12 UNL     1      25.816   3.500  52.369  1.00  0.00     0.167 HD
BRANCH  11  13
HETATM   13  C11 UNL     1      26.736   1.617  52.827  1.00  0.00     0.035 A 
HETATM   14  C12 UNL     1      27.855   2.195  53.382  1.00  0.00     0.032 A 
HETATM   15  C13 UNL     1      28.908   1.377  53.725  1.00  0.00     0.046 A 
HETATM   16  C14 UNL     1      28.832   0.005  53.510  1.00  0.00     0.138 A 
HETATM   17  F1  UNL     1      29.912  -0.744  53.874  1.00  0.00    -0.204 F 
HETATM   18  C15 UNL     1      27.731  -0.577  52.963  1.00  0.00     0.074 A 
HETATM   19 CL1  UNL     1      27.691  -2.324  52.713  1.00  0.00    -0.081 Cl
HETATM   20  C16 UNL     1      26.683   0.247  52.622  1.00  0.00     0.056 A 
ENDBRANCH  11  13
ENDBRANCH   5  11
BRANCH   3  21
HETATM   21  O2  UNL     1      25.356   3.394  50.191  1.00  0.00    -0.343 OA
BRANCH  21  22
HETATM   22  C5  UNL     1      25.587   4.759  50.292  1.00  0.00     0.154 C 
HETATM   23  C6  UNL     1      25.949   5.303  48.930  1.00  0.00     0.061 C 
HETATM   24  C7  UNL     1      24.852   6.300  48.620  1.00  0.00     0.170 C 
HETATM   25  O3  UNL     1      24.526   6.778  49.867  1.00  0.00    -0.389 OA
HETATM   26  C8  UNL     1      24.353   5.581  50.603  1.00  0.00     0.200 C 
ENDBRANCH  21  22
ENDBRANCH   3  21
BRANCH   1  27
HETATM   27  O1  UNL     1      21.359   2.290  47.752  1.00  0.00    -0.356 OA
HETATM   28  C1  UNL     1      21.421   3.479  46.987  1.00  0.00     0.210 C 
ENDBRANCH   1  27
TORSDOF 5
ENDMDL
MODEL 8
REMARK VINA RESULT:      -7.5      3.633      5.503
REMARK  5 active torsions:
REMARK  status: ('A' for Active; 'I' for Inactive)
REMARK    1  A    between atoms: O1_2  and  C2_3 
REMARK    2  A    between atoms: C4_5  and  O2_6 
REMARK    3  A    between atoms: O2_6  and  C5_7 
REMARK    4  A    between atoms: C10_13  and  N1_14 
REMARK    5  A    between atoms: N1_14  and  C11_15 
ROOT
HETATM    1  C2  UNL     1      23.222  -0.237  53.679  1.00  0.00     0.073 A 
HETATM    2  C3  UNL     1      22.491   0.463  52.742  1.00  0.00     0.074 A 
HETATM    3  C4  UNL     1      23.070   1.367  51.871  1.00  0.00     0.088 A 
HETATM    4  C9  UNL     1      24.433   1.512  52.015  1.00  0.00     0.072 A 
HETATM    5  C10 UNL     1      25.162   2.369  51.227  1.00  0.00     0.144 A 
HETATM    6  N2  UNL     1      26.512   2.542  51.334  1.00  0.00    -0.223 NA
HETATM    7  C17 UNL     1      27.170   1.835  52.263  1.00  0.00     0.236 A 
HETATM    8  N3  UNL     1      26.520   0.973  53.074  1.00  0.00    -0.241 NA
HETATM    9  C18 UNL     1      25.178   0.820  52.947  1.00  0.00     0.077 A 
HETATM   10  C19 UNL     1      24.583  -0.070  53.798  1.00  0.00     0.069 A 
ENDROOT
BRANCH   5  11
HETATM   11  N1  UNL     1      24.543   3.160  50.216  1.00  0.00    -0.340 N 
HETATM   12  H12 UNL     1      23.812   2.805  49.529  1.00  0.00     0.167 HD
BRANCH  11  13
HETATM   13  C11 UNL     1      24.934   4.536  50.117  1.00  0.00     0.035 A 
HETATM   14  C12 UNL     1      24.295   5.467  50.904  1.00  0.00     0.032 A 
HETATM   15  C13 UNL     1      24.683   6.784  50.799  1.00  0.00     0.046 A 
HETATM   16  C14 UNL     1      25.693   7.153  49.917  1.00  0.00     0.138 A 
HETATM   17  F1  UNL     1      26.026   8.474  49.867  1.00  0.00    -0.204 F 
HETATM   18  C15 UNL     1      26.332   6.240  49.136  1.00  0.00     0.074 A 
HETATM   19 CL1  UNL     1      27.609   6.766  48.035  1.00  0.00    -0.081 Cl
HETATM   20  C16 UNL     1      25.940   4.927  49.246  1.00  0.00     0.056 A 
ENDBRANCH  11  13
ENDBRANCH   5  11
BRANCH   3  21
HETATM   21  O2  UNL     1      22.413   2.104  50.911  1.00  0.00    -0.343 OA
BRANCH  21  22
HETATM   22  C5  UNL     1      21.075   2.012  50.554  1.00  0.00     0.154 C 
HETATM   23  C6  UNL     1      20.517   3.402  50.360  1.00  0.00     0.061 C 
HETATM   24  C7  UNL     1      20.098   3.440  48.905  1.00  0.00     0.170 C 
HETATM   25  O3  UNL     1      19.724   2.137  48.671  1.00  0.00    -0.389 OA
HETATM   26  C8  UNL     1      20.832   1.419  49.181  1.00  0.00     0.200 C 
ENDBRANCH  21  22
ENDBRANCH   3  21
BRANCH   1  27
HETATM   27  O1  UNL     1      22.538  -1.108  54.490  1.00  0.00    -0.356 OA
HETATM   28  C1  UNL     1      21.230  -1.531  54.151  1.00  0.00     0.210 C 
ENDBRANCH   1  27
TORSDOF 5
ENDMDL
MODEL 9
REMARK VINA RESULT:      -7.4      3.456      5.499
REMARK  5 active torsions:
REMARK  status: ('A' for Active; 'I' for Inactive)
REMARK    1  A    between atoms: O1_2  and  C2_3 
REMARK    2  A    between atoms: C4_5  and  O2_6 
REMARK    3  A    between atoms: O2_6  and  C5_7 
REMARK    4  A    between atoms: C10_13  and  N1_14 
REMARK    5  A    between atoms: N1_14  and  C11_15 
ROOT
HETATM    1  C2  UNL     1      19.349  -0.235  52.517  1.00  0.00     0.073 A 
HETATM    2  C3  UNL     1      20.705  -0.186  52.770  1.00  0.00     0.074 A 
HETATM    3  C4  UNL     1      21.593   0.468  51.937  1.00  0.00     0.088 A 
HETATM    4  C9  UNL     1      21.017   1.066  50.837  1.00  0.00     0.072 A 
HETATM    5  C10 UNL     1      21.759   1.759  49.912  1.00  0.00     0.144 A 
HETATM    6  N2  UNL     1      21.229   2.367  48.810  1.00  0.00    -0.223 NA
HETATM    7  C17 UNL     1      19.905   2.286  48.616  1.00  0.00     0.236 A 
HETATM    8  N3  UNL     1      19.112   1.622  49.483  1.00  0.00    -0.241 NA
HETATM    9  C18 UNL     1      19.664   1.026  50.571  1.00  0.00     0.077 A 
HETATM   10  C19 UNL     1      18.804   0.372  51.409  1.00  0.00     0.069 A 
ENDROOT
BRANCH   5  11
HETATM   11  N1  UNL     1      23.171   1.893  50.039  1.00  0.00    -0.340 N 
HETATM   12  H12 UNL     1      23.866   1.087  49.994  1.00  0.00     0.167 HD
BRANCH  11  13
HETATM   13  C11 UNL     1      23.698   3.211  50.245  1.00  0.00     0.035 A 
HETATM   14  C12 UNL     1      23.105   4.024  51.183  1.00  0.00     0.032 A 
HETATM   15  C13 UNL     1      23.623   5.286  51.371  1.00  0.00     0.046 A 
HETATM   16  C14 UNL     1      24.715   5.717  50.626  1.00  0.00     0.138 A 
HETATM   17  F1  UNL     1      25.175   6.978  50.866  1.00  0.00    -0.204 F 
HETATM   18  C15 UNL     1      25.310   4.920  49.697  1.00  0.00     0.074 A 
HETATM   19 CL1  UNL     1      26.695   5.520  48.781  1.00  0.00    -0.081 Cl
HETATM   20  C16 UNL     1      24.787   3.661  49.514  1.00  0.00     0.056 A 
ENDBRANCH  11  13
ENDBRANCH   5  11
BRANCH   3  21
HETATM   21  O2  UNL     1      22.955   0.563  52.117  1.00  0.00    -0.343 OA
BRANCH  21  22
HETATM   22  C5  UNL     1      23.635   0.667  53.323  1.00  0.00     0.154 C 
HETATM   23  C6  UNL     1      24.053  -0.713  53.776  1.00  0.00     0.061 C 
HETATM   24  C7  UNL     1      25.565  -0.655  53.810  1.00  0.00     0.170 C 
HETATM   25  O3  UNL     1      25.804   0.657  54.147  1.00  0.00    -0.389 OA
HETATM   26  C8  UNL     1      24.984   1.349  53.224  1.00  0.00     0.200 C 
ENDBRANCH  21  22
ENDBRANCH   3  21
BRANCH   1  27
HETATM   27  O1  UNL     1      18.564  -0.914  53.415  1.00  0.00    -0.356 OA
HETATM   28  C1  UNL     1      17.359  -1.528  52.997  1.00  0.00     0.210 C 
ENDBRANCH   1  27
TORSDOF 5
ENDMDL
