MODEL 1
REMARK VINA RESULT:      -8.2      0.000      0.000
REMARK  9 active torsions:
REMARK  status: ('A' for Active; 'I' for Inactive)
REMARK    1  A    between atoms: O1_2  and  C2_3 
REMARK    2  A    between atoms: C6_9  and  C7_10 
REMARK    3  A    between atoms: C12_17  and  O2_18 
REMARK    4  A    between atoms: C15_21  and  C16_22 
REMARK    5  A    between atoms: C16_22  and  C17_23 
REMARK    6  A    between atoms: C17_23  and  N3_24 
REMARK    7  A    between atoms: N3_24  and  C18_25 
REMARK    8  A    between atoms: C18_25  and  C19_26 
REMARK    9  A    between atoms: C19_26  and  N4_27 
ROOT
HETATM    1  C2  UNL     1      22.473   1.376  51.828  1.00  0.00     0.076 A 
HETATM    2  C3  UNL     1      22.099   0.543  52.854  1.00  0.00     0.069 A 
HETATM    3  C4  UNL     1      23.029  -0.069  53.679  1.00  0.00     0.073 A 
HETATM    4  N1  UNL     1      22.592  -0.870  54.647  1.00  0.00    -0.241 NA
HETATM    5  C5  UNL     1      23.522  -1.470  55.444  1.00  0.00     0.234 A 
HETATM    6  N2  UNL     1      24.822  -1.236  55.225  1.00  0.00    -0.240 NA
HETATM    7  C6  UNL     1      25.287  -0.425  54.249  1.00  0.00     0.083 A 
HETATM    8  C13 UNL     1      24.364   0.200  53.422  1.00  0.00     0.023 A 
HETATM    9  C14 UNL     1      24.788   1.031  52.401  1.00  0.00     0.026 A 
HETATM   10  C15 UNL     1      23.806   1.616  51.607  1.00  0.00    -0.022 A 
ENDROOT
BRANCH   7  11
HETATM   11  C7  UNL     1      26.722  -0.217  54.064  1.00  0.00     0.029 A 
HETATM   12  C8  UNL     1      27.473   0.856  54.478  1.00  0.00     0.043 A 
HETATM   13  C9  UNL     1      28.825   0.896  54.230  1.00  0.00     0.073 A 
HETATM   14 CL1  UNL     1      29.770   2.287  54.755  1.00  0.00    -0.081 Cl
HETATM   15  C10 UNL     1      29.494  -0.129  53.559  1.00  0.00     0.140 A 
HETATM   16  F1  UNL     1      30.830  -0.122  53.294  1.00  0.00    -0.204 F 
HETATM   17  C11 UNL     1      28.691  -1.179  53.171  1.00  0.00     0.081 A 
HETATM   18  C12 UNL     1      27.325  -1.286  53.387  1.00  0.00     0.081 A 
BRANCH  18  19
HETATM   19  O2  UNL     1      26.719  -2.437  52.908  1.00  0.00    -0.360 OA
HETATM   20  H8  UNL     1      26.955  -3.363  53.223  1.00  0.00     0.217 HD
ENDBRANCH  18  19
ENDBRANCH   7  11
BRANCH  10  21
HETATM   21  C16 UNL     1      24.246   2.514  50.482  1.00  0.00     0.071 C 
BRANCH  21  22
HETATM   22  C17 UNL     1      24.697   3.803  51.123  1.00  0.00     0.274 C 
BRANCH  22  23
HETATM   23  N3  UNL     1      26.016   4.194  50.702  1.00  0.00     0.085 N 
HETATM   24  H14 UNL     1      26.407   4.929  51.296  1.00  0.00     0.315 HD
BRANCH  23  25
HETATM   25  C18 UNL     1      26.122   4.583  49.336  1.00  0.00     0.299 C 
BRANCH  25  26
HETATM   26  C19 UNL     1      27.481   4.772  48.781  1.00  0.00     0.301 C 
BRANCH  26  27
HETATM   27  N4  UNL     1      27.733   6.011  48.112  1.00  0.00     0.081 N 
HETATM   28  C20 UNL     1      27.199   7.150  48.814  1.00  0.00     0.309 C 
HETATM   29  C21 UNL     1      29.200   6.173  48.106  1.00  0.00     0.309 C 
ENDBRANCH  26  27
ENDBRANCH  25  26
ENDBRANCH  23  25
ENDBRANCH  22  23
ENDBRANCH  21  22
ENDBRANCH  10  21
BRANCH   1  30
HETATM   30  O1  UNL     1      21.598   2.016  50.968  1.00  0.00    -0.355 OA
HETATM   31  C1  UNL     1      20.673   2.943  51.501  1.00  0.00     0.210 C 
ENDBRANCH   1  30
TORSDOF 9
ENDMDL
MODEL 2
REMARK VINA RESULT:      -8.1      1.327      2.049
REMARK  9 active torsions:
REMARK  status: ('A' for Active; 'I' for Inactive)
REMARK    1  A    between atoms: O1_2  and  C2_3 
REMARK    2  A    between atoms: C6_9  and  C7_10 
REMARK    3  A    between atoms: C12_17  and  O2_18 
REMARK    4  A    between atoms: C15_21  and  C16_22 
REMARK    5  A    between atoms: C16_22  and  C17_23 
REMARK    6  A    between atoms: C17_23  and  N3_24 
REMARK    7  A    between atoms: N3_24  and  C18_25 
REMARK    8  A    between atoms: C18_25  and  C19_26 
REMARK    9  A    between atoms: C19_26  and  N4_27 
ROOT
HETATM    1  C2  UNL     1      22.674   1.431  51.721  1.00  0.00     0.076 A 
HETATM    2  C3  UNL     1      22.266   0.600  52.736  1.00  0.00     0.069 A 
HETATM    3  C4  UNL     1      23.169  -0.021  53.584  1.00  0.00     0.073 A 
HETATM    4  N1  UNL     1      22.700  -0.820  54.538  1.00  0.00    -0.241 NA
HETATM    5  C5  UNL     1      23.604  -1.429  55.358  1.00  0.00     0.234 A 
HETATM    6  N2  UNL     1      24.911  -1.206  55.174  1.00  0.00    -0.240 NA
HETATM    7  C6  UNL     1      25.408  -0.399  54.211  1.00  0.00     0.083 A 
HETATM    8  C13 UNL     1      24.513   0.236  53.361  1.00  0.00     0.023 A 
HETATM    9  C14 UNL     1      24.970   1.065  52.353  1.00  0.00     0.026 A 
HETATM   10  C15 UNL     1      24.014   1.659  51.534  1.00  0.00    -0.022 A 
ENDROOT
BRANCH   7  11
HETATM   11  C7  UNL     1      26.849  -0.203  54.063  1.00  0.00     0.029 A 
HETATM   12  C8  UNL     1      27.599   0.864  54.496  1.00  0.00     0.043 A 
HETATM   13  C9  UNL     1      28.957   0.892  54.284  1.00  0.00     0.073 A 
HETATM   14 CL1  UNL     1      29.900   2.274  54.834  1.00  0.00    -0.081 Cl
HETATM   15  C10 UNL     1      29.634  -0.139  53.631  1.00  0.00     0.140 A 
HETATM   16  F1  UNL     1      30.977  -0.144  53.401  1.00  0.00    -0.204 F 
HETATM   17  C11 UNL     1      28.832  -1.182  53.221  1.00  0.00     0.081 A 
HETATM   18  C12 UNL     1      27.461  -1.278  53.402  1.00  0.00     0.081 A 
BRANCH  18  19
HETATM   19  O2  UNL     1      26.856  -2.423  52.907  1.00  0.00    -0.360 OA
HETATM   20  H8  UNL     1      26.065  -2.410  52.285  1.00  0.00     0.217 HD
ENDBRANCH  18  19
ENDBRANCH   7  11
BRANCH  10  21
HETATM   21  C16 UNL     1      24.491   2.555  50.423  1.00  0.00     0.071 C 
BRANCH  21  22
HETATM   22  C17 UNL     1      25.930   2.886  50.735  1.00  0.00     0.274 C 
BRANCH  22  23
HETATM   23  N3  UNL     1      26.259   4.252  50.425  1.00  0.00     0.085 N 
HETATM   24  H14 UNL     1      26.621   4.754  51.239  1.00  0.00     0.315 HD
BRANCH  23  25
HETATM   25  C18 UNL     1      25.205   5.006  49.834  1.00  0.00     0.299 C 
BRANCH  25  26
HETATM   26  C19 UNL     1      24.750   6.221  50.546  1.00  0.00     0.301 C 
BRANCH  26  27
HETATM   27  N4  UNL     1      23.375   6.254  50.940  1.00  0.00     0.081 N 
HETATM   28  C20 UNL     1      22.487   5.719  49.939  1.00  0.00     0.309 C 
HETATM   29  C21 UNL     1      23.271   5.363  52.112  1.00  0.00     0.309 C 
ENDBRANCH  26  27
ENDBRANCH  25  26
ENDBRANCH  23  25
ENDBRANCH  22  23
ENDBRANCH  21  22
ENDBRANCH  10  21
BRANCH   1  30
HETATM   30  O1  UNL     1      21.827   2.080  50.840  1.00  0.00    -0.355 OA
HETATM   31  C1  UNL     1      20.685   2.739  51.351  1.00  0.00     0.210 C 
ENDBRANCH   1  30
TORSDOF 9
ENDMDL
MODEL 3
REMARK VINA RESULT:      -7.8      3.378      6.620
REMARK  9 active torsions:
REMARK  status: ('A' for Active; 'I' for Inactive)
REMARK    1  A    between atoms: O1_2  and  C2_3 
REMARK    2  A    between atoms: C6_9  and  C7_10 
REMARK    3  A    between atoms: C12_17  and  O2_18 
REMARK    4  A    between atoms: C15_21  and  C16_22 
REMARK    5  A    between atoms: C16_22  and  C17_23 
REMARK    6  A    between atoms: C17_23  and  N3_24 
REMARK    7  A    between atoms: N3_24  and  C18_25 
REMARK    8  A    between atoms: C18_25  and  C19_26 
REMARK    9  A    between atoms: C19_26  and  N4_27 
ROOT
HETATM    1  C2  UNL     1      22.309  -0.006  52.639  1.00  0.00     0.076 A 
HETATM    2  C3  UNL     1      21.165   0.373  51.979  1.00  0.00     0.069 A 
HETATM    3  C4  UNL     1      21.098   1.543  51.240  1.00  0.00     0.073 A 
HETATM    4  N1  UNL     1      19.954   1.849  50.635  1.00  0.00    -0.241 NA
HETATM    5  C5  UNL     1      19.904   3.008  49.919  1.00  0.00     0.234 A 
HETATM    6  N2  UNL     1      20.992   3.786  49.852  1.00  0.00    -0.240 NA
HETATM    7  C6  UNL     1      22.163   3.493  50.458  1.00  0.00     0.083 A 
HETATM    8  C13 UNL     1      22.245   2.320  51.195  1.00  0.00     0.023 A 
HETATM    9  C14 UNL     1      23.419   1.979  51.842  1.00  0.00     0.026 A 
HETATM   10  C15 UNL     1      23.423   0.791  52.569  1.00  0.00    -0.022 A 
ENDROOT
BRANCH   7  11
HETATM   11  C7  UNL     1      23.312   4.391  50.347  1.00  0.00     0.029 A 
HETATM   12  C8  UNL     1      24.492   4.163  49.681  1.00  0.00     0.043 A 
HETATM   13  C9  UNL     1      25.478   5.121  49.666  1.00  0.00     0.073 A 
HETATM   14 CL1  UNL     1      26.989   4.807  48.818  1.00  0.00    -0.081 Cl
HETATM   15  C10 UNL     1      25.338   6.350  50.313  1.00  0.00     0.140 A 
HETATM   16  F1  UNL     1      26.295   7.320  50.322  1.00  0.00    -0.204 F 
HETATM   17  C11 UNL     1      24.135   6.522  50.962  1.00  0.00     0.081 A 
HETATM   18  C12 UNL     1      23.098   5.603  51.018  1.00  0.00     0.081 A 
BRANCH  18  19
HETATM   19  O2  UNL     1      21.975   5.991  51.731  1.00  0.00    -0.360 OA
HETATM   20  H8  UNL     1      21.090   6.205  51.301  1.00  0.00     0.217 HD
ENDBRANCH  18  19
ENDBRANCH   7  11
BRANCH  10  21
HETATM   21  C16 UNL     1      24.686   0.409  53.292  1.00  0.00     0.071 C 
BRANCH  21  22
HETATM   22  C17 UNL     1      25.559   1.640  53.300  1.00  0.00     0.274 C 
BRANCH  22  23
HETATM   23  N3  UNL     1      26.413   1.700  54.456  1.00  0.00     0.085 N 
HETATM   24  H14 UNL     1      27.229   2.296  54.300  1.00  0.00     0.315 HD
BRANCH  23  25
HETATM   25  C18 UNL     1      26.840   0.436  54.956  1.00  0.00     0.299 C 
BRANCH  25  26
HETATM   26  C19 UNL     1      28.277   0.102  54.837  1.00  0.00     0.301 C 
BRANCH  26  27
HETATM   27  N4  UNL     1      28.758  -0.198  53.524  1.00  0.00     0.081 N 
HETATM   28  C20 UNL     1      30.115  -0.680  53.517  1.00  0.00     0.309 C 
HETATM   29  C21 UNL     1      27.917  -1.306  53.031  1.00  0.00     0.309 C 
ENDBRANCH  26  27
ENDBRANCH  25  26
ENDBRANCH  23  25
ENDBRANCH  22  23
ENDBRANCH  21  22
ENDBRANCH  10  21
BRANCH   1  30
HETATM   30  O1  UNL     1      22.443  -1.158  53.395  1.00  0.00    -0.355 OA
HETATM   31  C1  UNL     1      21.630  -1.321  54.540  1.00  0.00     0.210 C 
ENDBRANCH   1  30
TORSDOF 9
ENDMDL
MODEL 4
REMARK VINA RESULT:      -7.7      3.628      6.071
REMARK  9 active torsions:
REMARK  status: ('A' for Active; 'I' for Inactive)
REMARK    1  A    between atoms: O1_2  and  C2_3 
REMARK    2  A    between atoms: C6_9  and  C7_10 
REMARK    3  A    between atoms: C12_17  and  O2_18 
REMARK    4  A    between atoms: C15_21  and  C16_22 
REMARK    5  A    between atoms: C16_22  and  C17_23 
REMARK    6  A    between atoms: C17_23  and  N3_24 
REMARK    7  A    between atoms: N3_24  and  C18_25 
REMARK    8  A    between atoms: C18_25  and  C19_26 
REMARK    9  A    between atoms: C19_26  and  N4_27 
ROOT
HETATM    1  C2  UNL     1      27.092   0.773  53.370  1.00  0.00     0.076 A 
HETATM    2  C3  UNL     1      26.659  -0.050  54.381  1.00  0.00     0.069 A 
HETATM    3  C4  UNL     1      25.330  -0.420  54.508  1.00  0.00     0.073 A 
HETATM    4  N1  UNL     1      24.984  -1.214  55.518  1.00  0.00    -0.241 NA
HETATM    5  C5  UNL     1      23.670  -1.561  55.631  1.00  0.00     0.234 A 
HETATM    6  N2  UNL     1      22.789  -1.096  54.737  1.00  0.00    -0.240 NA
HETATM    7  C6  UNL     1      23.119  -0.291  53.705  1.00  0.00     0.083 A 
HETATM    8  C13 UNL     1      24.449   0.081  53.562  1.00  0.00     0.023 A 
HETATM    9  C14 UNL     1      24.838   0.912  52.527  1.00  0.00     0.026 A 
HETATM   10  C15 UNL     1      26.187   1.248  52.454  1.00  0.00    -0.022 A 
ENDROOT
BRANCH   7  11
HETATM   11  C7  UNL     1      22.103   0.184  52.766  1.00  0.00     0.029 A 
HETATM   12  C8  UNL     1      22.218   0.315  51.403  1.00  0.00     0.043 A 
HETATM   13  C9  UNL     1      21.158   0.773  50.657  1.00  0.00     0.073 A 
HETATM   14 CL1  UNL     1      21.327   0.947  48.912  1.00  0.00    -0.081 Cl
HETATM   15  C10 UNL     1      19.934   1.123  51.231  1.00  0.00     0.140 A 
HETATM   16  F1  UNL     1      18.864   1.582  50.523  1.00  0.00    -0.204 F 
HETATM   17  C11 UNL     1      19.878   0.969  52.599  1.00  0.00     0.081 A 
HETATM   18  C12 UNL     1      20.904   0.513  53.412  1.00  0.00     0.081 A 
BRANCH  18  19
HETATM   19  O2  UNL     1      20.622   0.438  54.767  1.00  0.00    -0.360 OA
HETATM   20  H8  UNL     1      21.120   0.961  55.469  1.00  0.00     0.217 HD
ENDBRANCH  18  19
ENDBRANCH   7  11
BRANCH  10  21
HETATM   21  C16 UNL     1      26.629   2.162  51.343  1.00  0.00     0.071 C 
BRANCH  21  22
HETATM   22  C17 UNL     1      25.430   3.006  50.987  1.00  0.00     0.274 C 
BRANCH  22  23
HETATM   23  N3  UNL     1      25.796   4.332  50.566  1.00  0.00     0.085 N 
HETATM   24  H14 UNL     1      26.585   4.700  51.101  1.00  0.00     0.315 HD
BRANCH  23  25
HETATM   25  C18 UNL     1      24.734   5.282  50.574  1.00  0.00     0.299 C 
BRANCH  25  26
HETATM   26  C19 UNL     1      23.705   5.149  51.628  1.00  0.00     0.301 C 
BRANCH  26  27
HETATM   27  N4  UNL     1      22.344   5.085  51.190  1.00  0.00     0.081 N 
HETATM   28  C20 UNL     1      22.193   4.432  49.914  1.00  0.00     0.309 C 
HETATM   29  C21 UNL     1      21.644   4.241  52.178  1.00  0.00     0.309 C 
ENDBRANCH  26  27
ENDBRANCH  25  26
ENDBRANCH  23  25
ENDBRANCH  22  23
ENDBRANCH  21  22
ENDBRANCH  10  21
BRANCH   1  30
HETATM   30  O1  UNL     1      28.401   1.182  53.187  1.00  0.00    -0.355 OA
HETATM   31  C1  UNL     1      29.442   0.408  53.747  1.00  0.00     0.210 C 
ENDBRANCH   1  30
TORSDOF 9
ENDMDL
MODEL 5
REMARK VINA RESULT:      -7.7      3.474      6.107
REMARK  9 active torsions:
REMARK  status: ('A' for Active; 'I' for Inactive)
REMARK    1  A    between atoms: O1_2  and  C2_3 
REMARK    2  A    between atoms: C6_9  and  C7_10 
REMARK    3  A    between atoms: C12_17  and  O2_18 
REMARK    4  A    between atoms: C15_21  and  C16_22 
REMARK    5  A    between atoms: C16_22  and  C17_23 
REMARK    6  A    between atoms: C17_23  and  N3_24 
REMARK    7  A    between atoms: N3_24  and  C18_25 
REMARK    8  A    between atoms: C18_25  and  C19_26 
REMARK    9  A    between atoms: C19_26  and  N4_27 
ROOT
HETATM    1  C2  UNL     1      26.184   0.435  53.655  1.00  0.00     0.076 A 
HETATM    2  C3  UNL     1      25.223  -0.358  54.232  1.00  0.00     0.069 A 
HETATM    3  C4  UNL     1      23.902  -0.331  53.816  1.00  0.00     0.073 A 
HETATM    4  N1  UNL     1      23.025  -1.121  54.429  1.00  0.00    -0.241 NA
HETATM    5  C5  UNL     1      21.728  -1.075  54.011  1.00  0.00     0.234 A 
HETATM    6  N2  UNL     1      21.388  -0.247  53.015  1.00  0.00    -0.240 NA
HETATM    7  C6  UNL     1      22.263   0.562  52.379  1.00  0.00     0.083 A 
HETATM    8  C13 UNL     1      23.591   0.538  52.782  1.00  0.00     0.023 A 
HETATM    9  C14 UNL     1      24.524   1.354  52.170  1.00  0.00     0.026 A 
HETATM   10  C15 UNL     1      25.835   1.282  52.633  1.00  0.00    -0.022 A 
ENDROOT
BRANCH   7  11
HETATM   11  C7  UNL     1      21.822   1.446  51.301  1.00  0.00     0.029 A 
HETATM   12  C8  UNL     1      22.253   1.455  49.996  1.00  0.00     0.043 A 
HETATM   13  C9  UNL     1      21.729   2.352  49.096  1.00  0.00     0.073 A 
HETATM   14 CL1  UNL     1      22.304   2.358  47.431  1.00  0.00    -0.081 Cl
HETATM   15  C10 UNL     1      20.751   3.283  49.451  1.00  0.00     0.140 A 
HETATM   16  F1  UNL     1      20.211   4.187  48.587  1.00  0.00    -0.204 F 
HETATM   17  C11 UNL     1      20.356   3.225  50.769  1.00  0.00     0.081 A 
HETATM   18  C12 UNL     1      20.839   2.349  51.729  1.00  0.00     0.081 A 
BRANCH  18  19
HETATM   19  O2  UNL     1      20.295   2.470  52.998  1.00  0.00    -0.360 OA
HETATM   20  H8  UNL     1      19.526   1.912  53.330  1.00  0.00     0.217 HD
ENDBRANCH  18  19
ENDBRANCH   7  11
BRANCH  10  21
HETATM   21  C16 UNL     1      26.864   2.172  51.989  1.00  0.00     0.071 C 
BRANCH  21  22
HETATM   22  C17 UNL     1      26.244   2.677  50.710  1.00  0.00     0.274 C 
BRANCH  22  23
HETATM   23  N3  UNL     1      26.660   4.017  50.390  1.00  0.00     0.085 N 
HETATM   24  H14 UNL     1      27.147   4.464  51.169  1.00  0.00     0.315 HD
BRANCH  23  25
HETATM   25  C18 UNL     1      25.622   4.876  49.925  1.00  0.00     0.299 C 
BRANCH  25  26
HETATM   26  C19 UNL     1      24.257   4.642  50.443  1.00  0.00     0.301 C 
BRANCH  26  27
HETATM   27  N4  UNL     1      23.761   5.591  51.393  1.00  0.00     0.081 N 
HETATM   28  C20 UNL     1      22.562   6.257  50.951  1.00  0.00     0.309 C 
HETATM   29  C21 UNL     1      23.389   4.807  52.587  1.00  0.00     0.309 C 
ENDBRANCH  26  27
ENDBRANCH  25  26
ENDBRANCH  23  25
ENDBRANCH  22  23
ENDBRANCH  21  22
ENDBRANCH  10  21
BRANCH   1  30
HETATM   30  O1  UNL     1      27.519   0.458  54.022  1.00  0.00    -0.355 OA
HETATM   31  C1  UNL     1      28.339  -0.642  53.684  1.00  0.00     0.210 C 
ENDBRANCH   1  30
TORSDOF 9
ENDMDL
MODEL 6
REMARK VINA RESULT:      -7.6      3.338      5.549
REMARK  9 active torsions:
REMARK  status: ('A' for Active; 'I' for Inactive)
REMARK    1  A    between atoms: O1_2  and  C2_3 
REMARK    2  A    between atoms: C6_9  and  C7_10 
REMARK    3  A    between atoms: C12_17  and  O2_18 
REMARK    4  A    between atoms: C15_21  and  C16_22 
REMARK    5  A    between atoms: C16_22  and  C17_23 
REMARK    6  A    between atoms: C17_23  and  N3_24 
REMARK    7  A    between atoms: N3_24  and  C18_25 
REMARK    8  A    between atoms: C18_25  and  C19_26 
REMARK    9  A    between atoms: C19_26  and  N4_27 
ROOT
HETATM    1  C2  UNL     1      27.114   0.719  53.363  1.00  0.00     0.076 A 
HETATM    2  C3  UNL     1      26.686  -0.091  54.387  1.00  0.00     0.069 A 
HETATM    3  C4  UNL     1      25.356  -0.450  54.532  1.00  0.00     0.073 A 
HETATM    4  N1  UNL     1      25.015  -1.231  55.554  1.00  0.00    -0.241 NA
HETATM    5  C5  UNL     1      23.700  -1.566  55.685  1.00  0.00     0.234 A 
HETATM    6  N2  UNL     1      22.812  -1.103  54.796  1.00  0.00    -0.240 NA
HETATM    7  C6  UNL     1      23.138  -0.310  53.752  1.00  0.00     0.083 A 
HETATM    8  C13 UNL     1      24.468   0.049  53.591  1.00  0.00     0.023 A 
HETATM    9  C14 UNL     1      24.853   0.866  52.544  1.00  0.00     0.026 A 
HETATM   10  C15 UNL     1      26.203   1.191  52.452  1.00  0.00    -0.022 A 
ENDROOT
BRANCH   7  11
HETATM   11  C7  UNL     1      22.115   0.163  52.820  1.00  0.00     0.029 A 
HETATM   12  C8  UNL     1      22.217   0.284  51.456  1.00  0.00     0.043 A 
HETATM   13  C9  UNL     1      21.152   0.742  50.717  1.00  0.00     0.073 A 
HETATM   14 CL1  UNL     1      21.305   0.904  48.969  1.00  0.00    -0.081 Cl
HETATM   15  C10 UNL     1      19.936   1.102  51.299  1.00  0.00     0.140 A 
HETATM   16  F1  UNL     1      18.861   1.562  50.599  1.00  0.00    -0.204 F 
HETATM   17  C11 UNL     1      19.892   0.958  52.669  1.00  0.00     0.081 A 
HETATM   18  C12 UNL     1      20.923   0.503  53.476  1.00  0.00     0.081 A 
BRANCH  18  19
HETATM   19  O2  UNL     1      20.655   0.438  54.834  1.00  0.00    -0.360 OA
HETATM   20  H8  UNL     1      20.030   1.069  55.308  1.00  0.00     0.217 HD
ENDBRANCH  18  19
ENDBRANCH   7  11
BRANCH  10  21
HETATM   21  C16 UNL     1      26.640   2.091  51.327  1.00  0.00     0.071 C 
BRANCH  21  22
HETATM   22  C17 UNL     1      25.388   2.751  50.803  1.00  0.00     0.274 C 
BRANCH  22  23
HETATM   23  N3  UNL     1      25.472   4.187  50.829  1.00  0.00     0.085 N 
HETATM   24  H14 UNL     1      24.678   4.610  51.315  1.00  0.00     0.315 HD
BRANCH  23  25
HETATM   25  C18 UNL     1      25.628   4.804  49.554  1.00  0.00     0.299 C 
BRANCH  25  26
HETATM   26  C19 UNL     1      26.981   4.807  48.956  1.00  0.00     0.301 C 
BRANCH  26  27
HETATM   27  N4  UNL     1      27.378   6.002  48.275  1.00  0.00     0.081 N 
HETATM   28  C20 UNL     1      27.005   7.202  48.979  1.00  0.00     0.309 C 
HETATM   29  C21 UNL     1      28.853   5.975  48.245  1.00  0.00     0.309 C 
ENDBRANCH  26  27
ENDBRANCH  25  26
ENDBRANCH  23  25
ENDBRANCH  22  23
ENDBRANCH  21  22
ENDBRANCH  10  21
BRANCH   1  30
HETATM   30  O1  UNL     1      28.425   1.116  53.161  1.00  0.00    -0.355 OA
HETATM   31  C1  UNL     1      29.461   0.394  53.795  1.00  0.00     0.210 C 
ENDBRANCH   1  30
TORSDOF 9
ENDMDL
MODEL 7
REMARK VINA RESULT:      -7.3      3.227      5.646
REMARK  9 active torsions:
REMARK  status: ('A' for Active; 'I' for Inactive)
REMARK    1  A    between atoms: O1_2  and  C2_3 
REMARK    2  A    between atoms: C6_9  and  C7_10 
REMARK    3  A    between atoms: C12_17  and  O2_18 
REMARK    4  A    between atoms: C15_21  and  C16_22 
REMARK    5  A    between atoms: C16_22  and  C17_23 
REMARK    6  A    between atoms: C17_23  and  N3_24 
REMARK    7  A    between atoms: N3_24  and  C18_25 
REMARK    8  A    between atoms: C18_25  and  C19_26 
REMARK    9  A    between atoms: C19_26  and  N4_27 
ROOT
HETATM    1  C2  UNL     1      26.193   0.002  53.153  1.00  0.00     0.076 A 
HETATM    2  C3  UNL     1      25.285  -0.647  53.954  1.00  0.00     0.069 A 
HETATM    3  C4  UNL     1      23.935  -0.337  53.935  1.00  0.00     0.073 A 
HETATM    4  N1  UNL     1      23.117  -1.002  54.745  1.00  0.00    -0.241 NA
HETATM    5  C5  UNL     1      21.794  -0.677  54.718  1.00  0.00     0.234 A 
HETATM    6  N2  UNL     1      21.371   0.287  53.891  1.00  0.00    -0.240 NA
HETATM    7  C6  UNL     1      22.184   0.974  53.059  1.00  0.00     0.083 A 
HETATM    8  C13 UNL     1      23.538   0.666  53.063  1.00  0.00     0.023 A 
HETATM    9  C14 UNL     1      24.414   1.346  52.238  1.00  0.00     0.026 A 
HETATM   10  C15 UNL     1      25.758   0.988  52.304  1.00  0.00    -0.022 A 
ENDROOT
BRANCH   7  11
HETATM   11  C7  UNL     1      21.656   2.018  52.183  1.00  0.00     0.029 A 
HETATM   12  C8  UNL     1      21.917   3.366  52.235  1.00  0.00     0.043 A 
HETATM   13  C9  UNL     1      21.341   4.221  51.326  1.00  0.00     0.073 A 
HETATM   14 CL1  UNL     1      21.676   5.948  51.415  1.00  0.00    -0.081 Cl
HETATM   15  C10 UNL     1      20.478   3.777  50.322  1.00  0.00     0.140 A 
HETATM   16  F1  UNL     1      19.888   4.596  49.407  1.00  0.00    -0.204 F 
HETATM   17  C11 UNL     1      20.255   2.418  50.319  1.00  0.00     0.081 A 
HETATM   18  C12 UNL     1      20.801   1.498  51.201  1.00  0.00     0.081 A 
BRANCH  18  19
HETATM   19  O2  UNL     1      20.437   0.175  51.009  1.00  0.00    -0.360 OA
HETATM   20  H8  UNL     1      21.097  -0.585  50.977  1.00  0.00     0.217 HD
ENDBRANCH  18  19
ENDBRANCH   7  11
BRANCH  10  21
HETATM   21  C16 UNL     1      26.731   1.726  51.424  1.00  0.00     0.071 C 
BRANCH  21  22
HETATM   22  C17 UNL     1      25.943   2.822  50.749  1.00  0.00     0.274 C 
BRANCH  22  23
HETATM   23  N3  UNL     1      26.780   3.903  50.300  1.00  0.00     0.085 N 
HETATM   24  H14 UNL     1      27.111   4.480  51.076  1.00  0.00     0.315 HD
BRANCH  23  25
HETATM   25  C18 UNL     1      26.200   4.740  49.303  1.00  0.00     0.299 C 
BRANCH  25  26
HETATM   26  C19 UNL     1      26.974   5.923  48.867  1.00  0.00     0.301 C 
BRANCH  26  27
HETATM   27  N4  UNL     1      26.344   7.197  49.030  1.00  0.00     0.081 N 
HETATM   28  C20 UNL     1      25.607   7.308  50.263  1.00  0.00     0.309 C 
HETATM   29  C21 UNL     1      27.441   8.180  49.108  1.00  0.00     0.309 C 
ENDBRANCH  26  27
ENDBRANCH  25  26
ENDBRANCH  23  25
ENDBRANCH  22  23
ENDBRANCH  21  22
ENDBRANCH  10  21
BRANCH   1  30
HETATM   30  O1  UNL     1      27.552  -0.257  53.124  1.00  0.00    -0.355 OA
HETATM   31  C1  UNL     1      28.293  -0.147  54.322  1.00  0.00     0.210 C 
ENDBRANCH   1  30
TORSDOF 9
ENDMDL
MODEL 8
REMARK VINA RESULT:      -7.2      3.840      5.476
REMARK  9 active torsions:
REMARK  status: ('A' for Active; 'I' for Inactive)
REMARK    1  A    between atoms: O1_2  and  C2_3 
REMARK    2  A    between atoms: C6_9  and  C7_10 
REMARK    3  A    between atoms: C12_17  and  O2_18 
REMARK    4  A    between atoms: C15_21  and  C16_22 
REMARK    5  A    between atoms: C16_22  and  C17_23 
REMARK    6  A    between atoms: C17_23  and  N3_24 
REMARK    7  A    between atoms: N3_24  and  C18_25 
REMARK    8  A    between atoms: C18_25  and  C19_26 
REMARK    9  A    between atoms: C19_26  and  N4_27 
ROOT
HETATM    1  C2  UNL     1      25.852   3.348  50.785  1.00  0.00     0.076 A 
HETATM    2  C3  UNL     1      26.664   2.353  51.271  1.00  0.00     0.069 A 
HETATM    3  C4  UNL     1      26.154   1.236  51.913  1.00  0.00     0.073 A 
HETATM    4  N1  UNL     1      27.003   0.318  52.365  1.00  0.00    -0.241 NA
HETATM    5  C5  UNL     1      26.483  -0.770  53.002  1.00  0.00     0.234 A 
HETATM    6  N2  UNL     1      25.156  -0.872  53.149  1.00  0.00    -0.240 NA
HETATM    7  C6  UNL     1      24.277   0.049  52.698  1.00  0.00     0.083 A 
HETATM    8  C13 UNL     1      24.776   1.167  52.045  1.00  0.00     0.023 A 
HETATM    9  C14 UNL     1      23.918   2.144  51.572  1.00  0.00     0.026 A 
HETATM   10  C15 UNL     1      24.492   3.241  50.936  1.00  0.00    -0.022 A 
ENDROOT
BRANCH   7  11
HETATM   11  C7  UNL     1      22.839  -0.124  52.897  1.00  0.00     0.029 A 
HETATM   12  C8  UNL     1      21.830   0.159  52.008  1.00  0.00     0.043 A 
HETATM   13  C9  UNL     1      20.518  -0.070  52.349  1.00  0.00     0.073 A 
HETATM   14 CL1  UNL     1      19.236   0.313  51.203  1.00  0.00    -0.081 Cl
HETATM   15  C10 UNL     1      20.147  -0.591  53.590  1.00  0.00     0.140 A 
HETATM   16  F1  UNL     1      18.858  -0.827  53.962  1.00  0.00    -0.204 F 
HETATM   17  C11 UNL     1      21.200  -0.857  54.438  1.00  0.00     0.081 A 
HETATM   18  C12 UNL     1      22.543  -0.653  54.161  1.00  0.00     0.081 A 
BRANCH  18  19
HETATM   19  O2  UNL     1      23.433  -0.994  55.166  1.00  0.00    -0.360 OA
HETATM   20  H8  UNL     1      23.864  -0.323  55.780  1.00  0.00     0.217 HD
ENDBRANCH  18  19
ENDBRANCH   7  11
BRANCH  10  21
HETATM   21  C16 UNL     1      23.577   4.322  50.425  1.00  0.00     0.071 C 
BRANCH  21  22
HETATM   22  C17 UNL     1      23.210   5.165  51.622  1.00  0.00     0.274 C 
BRANCH  22  23
HETATM   23  N3  UNL     1      24.129   6.253  51.829  1.00  0.00     0.085 N 
HETATM   24  H14 UNL     1      24.159   6.550  52.806  1.00  0.00     0.315 HD
BRANCH  23  25
HETATM   25  C18 UNL     1      23.915   7.390  50.996  1.00  0.00     0.299 C 
BRANCH  25  26
HETATM   26  C19 UNL     1      25.044   7.847  50.158  1.00  0.00     0.301 C 
BRANCH  26  27
HETATM   27  N4  UNL     1      25.083   7.358  48.814  1.00  0.00     0.081 N 
HETATM   28  C20 UNL     1      23.791   7.355  48.177  1.00  0.00     0.309 C 
HETATM   29  C21 UNL     1      25.919   8.315  48.062  1.00  0.00     0.309 C 
ENDBRANCH  26  27
ENDBRANCH  25  26
ENDBRANCH  23  25
ENDBRANCH  22  23
ENDBRANCH  21  22
ENDBRANCH  10  21
BRANCH   1  30
HETATM   30  O1  UNL     1      26.295   4.487  50.136  1.00  0.00    -0.355 OA
HETATM   31  C1  UNL     1      27.167   4.348  49.032  1.00  0.00     0.210 C 
ENDBRANCH   1  30
TORSDOF 9
ENDMDL
MODEL 9
REMARK VINA RESULT:      -7.2      3.505      4.812
REMARK  9 active torsions:
REMARK  status: ('A' for Active; 'I' for Inactive)
REMARK    1  A    between atoms: O1_2  and  C2_3 
REMARK    2  A    between atoms: C6_9  and  C7_10 
REMARK    3  A    between atoms: C12_17  and  O2_18 
REMARK    4  A    between atoms: C15_21  and  C16_22 
REMARK    5  A    between atoms: C16_22  and  C17_23 
REMARK    6  A    between atoms: C17_23  and  N3_24 
REMARK    7  A    between atoms: N3_24  and  C18_25 
REMARK    8  A    between atoms: C18_25  and  C19_26 
REMARK    9  A    between atoms: C19_26  and  N4_27 
ROOT
HETATM    1  C2  UNL     1      19.830  -0.816  53.293  1.00  0.00     0.076 A 
HETATM    2  C3  UNL     1      20.574  -1.393  54.292  1.00  0.00     0.069 A 
HETATM    3  C4  UNL     1      21.924  -1.122  54.453  1.00  0.00     0.073 A 
HETATM    4  N1  UNL     1      22.582  -1.726  55.439  1.00  0.00    -0.241 NA
HETATM    5  C5  UNL     1      23.910  -1.453  55.577  1.00  0.00     0.234 A 
HETATM    6  N2  UNL     1      24.497  -0.601  54.726  1.00  0.00    -0.240 NA
HETATM    7  C6  UNL     1      23.847   0.023  53.719  1.00  0.00     0.083 A 
HETATM    8  C13 UNL     1      22.494  -0.235  53.553  1.00  0.00     0.023 A 
HETATM    9  C14 UNL     1      21.785   0.371  52.532  1.00  0.00     0.026 A 
HETATM   10  C15 UNL     1      20.433   0.057  52.422  1.00  0.00    -0.022 A 
ENDROOT
BRANCH   7  11
HETATM   11  C7  UNL     1      24.552   0.939  52.824  1.00  0.00     0.029 A 
HETATM   12  C8  UNL     1      24.178   2.211  52.463  1.00  0.00     0.043 A 
HETATM   13  C9  UNL     1      24.962   2.950  51.610  1.00  0.00     0.073 A 
HETATM   14 CL1  UNL     1      24.460   4.575  51.148  1.00  0.00    -0.081 Cl
HETATM   15  C10 UNL     1      26.154   2.461  51.074  1.00  0.00     0.140 A 
HETATM   16  F1  UNL     1      26.953   3.164  50.224  1.00  0.00    -0.204 F 
HETATM   17  C11 UNL     1      26.478   1.182  51.472  1.00  0.00     0.081 A 
HETATM   18  C12 UNL     1      25.738   0.381  52.328  1.00  0.00     0.081 A 
BRANCH  18  19
HETATM   19  O2  UNL     1      26.258  -0.877  52.591  1.00  0.00    -0.360 OA
HETATM   20  H8  UNL     1      27.030  -1.040  53.217  1.00  0.00     0.217 HD
ENDBRANCH  18  19
ENDBRANCH   7  11
BRANCH  10  21
HETATM   21  C16 UNL     1      19.646   0.695  51.309  1.00  0.00     0.071 C 
BRANCH  21  22
HETATM   22  C17 UNL     1      20.657   1.164  50.292  1.00  0.00     0.274 C 
BRANCH  22  23
HETATM   23  N3  UNL     1      20.092   1.292  48.975  1.00  0.00     0.085 N 
HETATM   24  H14 UNL     1      20.574   0.705  48.291  1.00  0.00     0.315 HD
BRANCH  23  25
HETATM   25  C18 UNL     1      20.013   2.626  48.480  1.00  0.00     0.299 C 
BRANCH  25  26
HETATM   26  C19 UNL     1      20.752   3.675  49.217  1.00  0.00     0.301 C 
BRANCH  26  27
HETATM   27  N4  UNL     1      20.319   5.024  49.017  1.00  0.00     0.081 N 
HETATM   28  C20 UNL     1      19.133   5.353  49.766  1.00  0.00     0.309 C 
HETATM   29  C21 UNL     1      21.401   5.875  49.550  1.00  0.00     0.309 C 
ENDBRANCH  26  27
ENDBRANCH  25  26
ENDBRANCH  23  25
ENDBRANCH  22  23
ENDBRANCH  21  22
ENDBRANCH  10  21
BRANCH   1  30
HETATM   30  O1  UNL     1      18.482  -1.044  53.075  1.00  0.00    -0.355 OA
HETATM   31  C1  UNL     1      17.905  -2.238  53.565  1.00  0.00     0.210 C 
ENDBRANCH   1  30
TORSDOF 9
ENDMDL
