MODEL 1
REMARK VINA RESULT:      -8.5      0.000      0.000
REMARK  3 active torsions:
REMARK  status: ('A' for Active; 'I' for Inactive)
REMARK    1  A    between atoms: O1_2  and  C2_3 
REMARK    2  A    between atoms: C19_24  and  C20_25 
REMARK    3  A    between atoms: C21_26  and  C22_28 
ROOT
HETATM    1  C2  UNL     1      22.762   3.986  50.997  1.00  0.00     0.184 C 
HETATM    2  C3  UNL     1      22.941   3.023  52.116  1.00  0.00     0.163 C 
HETATM    3  N1  UNL     1      21.814   2.353  52.655  1.00  0.00    -0.377 N 
HETATM    4  C4  UNL     1      21.943   1.025  53.207  1.00  0.00     0.039 A 
HETATM    5  C5  UNL     1      20.883   0.419  53.845  1.00  0.00     0.030 A 
HETATM    6  C6  UNL     1      20.979  -0.872  54.389  1.00  0.00     0.002 A 
HETATM    7  C7  UNL     1      22.201  -1.605  54.289  1.00  0.00     0.001 A 
HETATM    8  C8  UNL     1      23.130  -0.874  53.641  1.00  0.00     0.014 A 
HETATM    9  C9  UNL     1      23.138   0.361  53.087  1.00  0.00    -0.001 A 
HETATM   10  C10 UNL     1      24.357   0.900  52.438  1.00  0.00    -0.019 C 
HETATM   11  C11 UNL     1      24.099   2.131  52.028  1.00  0.00     0.040 C 
HETATM   12  N2  UNL     1      25.222   2.503  51.215  1.00  0.00    -0.379 N 
HETATM   13  C12 UNL     1      26.366   1.771  51.631  1.00  0.00     0.127 C 
HETATM   14  C13 UNL     1      25.751   0.482  52.213  1.00  0.00     0.061 C 
HETATM   15  C14 UNL     1      25.082   3.466  50.120  1.00  0.00     0.161 C 
HETATM   16  C15 UNL     1      24.093   4.513  50.577  1.00  0.00     0.272 A 
HETATM   17  N3  UNL     1      24.135   5.698  49.800  1.00  0.00     0.106 N 
HETATM   18  C16 UNL     1      24.716   7.005  50.228  1.00  0.00     0.311 C 
HETATM   19  C17 UNL     1      23.641   5.865  48.466  1.00  0.00     0.204 A 
HETATM   20  O2  UNL     1      23.634   4.913  49.250  1.00  0.00     0.000 OA
HETATM   21  C18 UNL     1      23.579   6.922  47.425  1.00  0.00     0.024 A 
HETATM   22  C19 UNL     1      22.973   5.917  46.880  1.00  0.00     0.084 A 
HETATM   23  H6  UNL     1      20.862   2.788  52.673  1.00  0.00     0.160 HD
ENDROOT
BRANCH   1  24
HETATM   24  O1  UNL     1      22.099   5.102  51.591  1.00  0.00    -0.386 OA
HETATM   25  C1  UNL     1      20.848   5.336  51.052  1.00  0.00     0.202 C 
ENDBRANCH   1  24
BRANCH  22  26
HETATM   26  C20 UNL     1      22.442   6.115  45.498  1.00  0.00     0.005 C 
HETATM   27  C21 UNL     1      21.817   4.926  45.447  1.00  0.00     0.032 C 
HETATM   28 CL1  UNL     1      21.841   3.759  46.771  1.00  0.00    -0.085 Cl
BRANCH  27  29
HETATM   29  C22 UNL     1      20.979   4.115  44.626  1.00  0.00     0.053 C 
HETATM   30  C23 UNL     1      20.524   3.761  43.487  1.00  0.00     0.190 C 
HETATM   31  F1  UNL     1      20.514   3.919  42.159  1.00  0.00    -0.219 F 
ENDBRANCH  27  29
ENDBRANCH  22  26
TORSDOF 3
ENDMDL
MODEL 2
REMARK VINA RESULT:      -8.3      3.952      8.434
REMARK  3 active torsions:
REMARK  status: ('A' for Active; 'I' for Inactive)
REMARK    1  A    between atoms: O1_2  and  C2_3 
REMARK    2  A    between atoms: C19_24  and  C20_25 
REMARK    3  A    between atoms: C21_26  and  C22_28 
ROOT
HETATM    1  C2  UNL     1      24.125   3.937  51.601  1.00  0.00     0.184 C 
HETATM    2  C3  UNL     1      23.769   5.152  50.818  1.00  0.00     0.163 C 
HETATM    3  N1  UNL     1      24.561   6.322  50.937  1.00  0.00    -0.377 N 
HETATM    4  C4  UNL     1      24.707   7.226  49.822  1.00  0.00     0.039 A 
HETATM    5  C5  UNL     1      25.369   8.426  49.967  1.00  0.00     0.030 A 
HETATM    6  C6  UNL     1      25.528   9.324  48.899  1.00  0.00     0.002 A 
HETATM    7  C7  UNL     1      25.000   9.009  47.610  1.00  0.00     0.001 A 
HETATM    8  C8  UNL     1      24.387   7.808  47.640  1.00  0.00     0.014 A 
HETATM    9  C9  UNL     1      24.182   6.880  48.603  1.00  0.00    -0.001 A 
HETATM   10  C10 UNL     1      23.438   5.631  48.313  1.00  0.00    -0.019 C 
HETATM   11  C11 UNL     1      23.346   4.934  49.434  1.00  0.00     0.040 C 
HETATM   12  N2  UNL     1      22.832   3.652  49.042  1.00  0.00    -0.379 N 
HETATM   13  C12 UNL     1      22.073   3.795  47.849  1.00  0.00     0.127 C 
HETATM   14  C13 UNL     1      22.725   5.021  47.178  1.00  0.00     0.061 C 
HETATM   15  C14 UNL     1      23.145   2.441  49.805  1.00  0.00     0.161 C 
HETATM   16  C15 UNL     1      23.177   2.835  51.263  1.00  0.00     0.272 A 
HETATM   17  N3  UNL     1      23.091   1.726  52.143  1.00  0.00     0.106 N 
HETATM   18  C16 UNL     1      21.897   1.342  52.952  1.00  0.00     0.311 C 
HETATM   19  C17 UNL     1      24.120   0.768  52.415  1.00  0.00     0.204 A 
HETATM   20  O2  UNL     1      24.081   1.780  51.711  1.00  0.00     0.000 OA
HETATM   21  C18 UNL     1      24.309  -0.466  53.219  1.00  0.00     0.024 A 
HETATM   22  C19 UNL     1      25.462  -0.282  52.662  1.00  0.00     0.084 A 
HETATM   23  H6  UNL     1      25.062   6.569  51.823  1.00  0.00     0.160 HD
ENDROOT
BRANCH   1  24
HETATM   24  O1  UNL     1      23.816   4.282  52.951  1.00  0.00    -0.386 OA
HETATM   25  C1  UNL     1      22.603   4.933  53.077  1.00  0.00     0.202 C 
ENDBRANCH   1  24
BRANCH  22  26
HETATM   26  C20 UNL     1      26.531  -1.276  52.977  1.00  0.00     0.005 C 
HETATM   27  C21 UNL     1      27.511  -0.361  53.070  1.00  0.00     0.032 C 
HETATM   28 CL1  UNL     1      27.251   1.368  52.828  1.00  0.00    -0.085 Cl
BRANCH  27  29
HETATM   29  C22 UNL     1      28.897  -0.202  53.368  1.00  0.00     0.053 C 
HETATM   30  C23 UNL     1      30.028  -0.667  53.734  1.00  0.00     0.190 C 
HETATM   31  F1  UNL     1      30.763  -1.714  54.127  1.00  0.00    -0.219 F 
ENDBRANCH  27  29
ENDBRANCH  22  26
TORSDOF 3
ENDMDL
MODEL 3
REMARK VINA RESULT:      -8.3      3.716      8.288
REMARK  3 active torsions:
REMARK  status: ('A' for Active; 'I' for Inactive)
REMARK    1  A    between atoms: O1_2  and  C2_3 
REMARK    2  A    between atoms: C19_24  and  C20_25 
REMARK    3  A    between atoms: C21_26  and  C22_28 
ROOT
HETATM    1  C2  UNL     1      23.117   3.802  51.174  1.00  0.00     0.184 C 
HETATM    2  C3  UNL     1      22.709   4.821  50.171  1.00  0.00     0.163 C 
HETATM    3  N1  UNL     1      23.383   6.068  50.121  1.00  0.00    -0.377 N 
HETATM    4  C4  UNL     1      23.525   6.777  48.871  1.00  0.00     0.039 A 
HETATM    5  C5  UNL     1      24.065   8.044  48.836  1.00  0.00     0.030 A 
HETATM    6  C6  UNL     1      24.217   8.756  47.634  1.00  0.00     0.002 A 
HETATM    7  C7  UNL     1      23.809   8.172  46.396  1.00  0.00     0.001 A 
HETATM    8  C8  UNL     1      23.305   6.939  46.607  1.00  0.00     0.014 A 
HETATM    9  C9  UNL     1      23.118   6.175  47.707  1.00  0.00    -0.001 A 
HETATM   10  C10 UNL     1      22.511   4.826  47.607  1.00  0.00    -0.019 C 
HETATM   11  C11 UNL     1      22.404   4.327  48.827  1.00  0.00     0.040 C 
HETATM   12  N2  UNL     1      22.035   2.952  48.643  1.00  0.00    -0.379 N 
HETATM   13  C12 UNL     1      21.351   2.811  47.405  1.00  0.00     0.127 C 
HETATM   14  C13 UNL     1      21.936   3.962  46.562  1.00  0.00     0.061 C 
HETATM   15  C14 UNL     1      22.402   1.928  49.624  1.00  0.00     0.161 C 
HETATM   16  C15 UNL     1      22.298   2.569  50.989  1.00  0.00     0.272 A 
HETATM   17  N3  UNL     1      22.251   1.625  52.046  1.00  0.00     0.106 N 
HETATM   18  C16 UNL     1      21.042   1.268  52.847  1.00  0.00     0.311 C 
HETATM   19  C17 UNL     1      23.339   0.836  52.539  1.00  0.00     0.204 A 
HETATM   20  O2  UNL     1      23.259   1.702  51.664  1.00  0.00     0.000 OA
HETATM   21  C18 UNL     1      23.582  -0.216  53.558  1.00  0.00     0.024 A 
HETATM   22  C19 UNL     1      24.750  -0.016  53.039  1.00  0.00     0.084 A 
HETATM   23  H6  UNL     1      23.798   6.513  50.973  1.00  0.00     0.160 HD
ENDROOT
BRANCH   1  24
HETATM   24  O1  UNL     1      22.686   4.341  52.423  1.00  0.00    -0.386 OA
HETATM   25  C1  UNL     1      23.737   4.678  53.257  1.00  0.00     0.202 C 
ENDBRANCH   1  24
BRANCH  22  26
HETATM   26  C20 UNL     1      25.880  -0.829  53.581  1.00  0.00     0.005 C 
HETATM   27  C21 UNL     1      26.797   0.141  53.430  1.00  0.00     0.032 C 
HETATM   28 CL1  UNL     1      26.427   1.734  52.765  1.00  0.00    -0.085 Cl
BRANCH  27  29
HETATM   29  C22 UNL     1      28.168   0.457  53.663  1.00  0.00     0.053 C 
HETATM   30  C23 UNL     1      29.407   0.149  53.674  1.00  0.00     0.190 C 
HETATM   31  F1  UNL     1      30.362  -0.763  53.457  1.00  0.00    -0.219 F 
ENDBRANCH  27  29
ENDBRANCH  22  26
TORSDOF 3
ENDMDL
MODEL 4
REMARK VINA RESULT:      -8.2      8.569     11.163
REMARK  3 active torsions:
REMARK  status: ('A' for Active; 'I' for Inactive)
REMARK    1  A    between atoms: O1_2  and  C2_3 
REMARK    2  A    between atoms: C19_24  and  C20_25 
REMARK    3  A    between atoms: C21_26  and  C22_28 
ROOT
HETATM    1  C2  UNL     1      30.935   7.675  46.141  1.00  0.00     0.184 C 
HETATM    2  C3  UNL     1      29.696   8.485  45.994  1.00  0.00     0.163 C 
HETATM    3  N1  UNL     1      28.855   8.286  44.869  1.00  0.00    -0.377 N 
HETATM    4  C4  UNL     1      27.431   8.495  44.971  1.00  0.00     0.039 A 
HETATM    5  C5  UNL     1      26.625   8.428  43.855  1.00  0.00     0.030 A 
HETATM    6  C6  UNL     1      25.236   8.624  43.926  1.00  0.00     0.002 A 
HETATM    7  C7  UNL     1      24.612   8.902  45.180  1.00  0.00     0.001 A 
HETATM    8  C8  UNL     1      25.535   8.934  46.162  1.00  0.00     0.014 A 
HETATM    9  C9  UNL     1      26.877   8.761  46.198  1.00  0.00    -0.001 A 
HETATM   10  C10 UNL     1      27.628   8.873  47.471  1.00  0.00    -0.019 C 
HETATM   11  C11 UNL     1      28.914   8.706  47.211  1.00  0.00     0.040 C 
HETATM   12  N2  UNL     1      29.548   8.594  48.494  1.00  0.00    -0.379 N 
HETATM   13  C12 UNL     1      28.772   9.283  49.464  1.00  0.00     0.127 C 
HETATM   14  C13 UNL     1      27.347   9.197  48.881  1.00  0.00     0.061 C 
HETATM   15  C14 UNL     1      30.782   7.822  48.667  1.00  0.00     0.161 C 
HETATM   16  C15 UNL     1      31.612   8.033  47.422  1.00  0.00     0.272 A 
HETATM   17  N3  UNL     1      32.972   7.670  47.590  1.00  0.00     0.106 N 
HETATM   18  C16 UNL     1      34.120   8.616  47.721  1.00  0.00     0.311 C 
HETATM   19  C17 UNL     1      33.500   6.341  47.675  1.00  0.00     0.204 A 
HETATM   20  O2  UNL     1      32.362   6.782  47.497  1.00  0.00     0.000 OA
HETATM   21  C18 UNL     1      34.810   5.673  47.880  1.00  0.00     0.024 A 
HETATM   22  C19 UNL     1      33.984   4.690  47.727  1.00  0.00     0.084 A 
HETATM   23  H6  UNL     1      29.229   7.984  43.939  1.00  0.00     0.160 HD
ENDROOT
BRANCH   1  24
HETATM   24  O1  UNL     1      31.804   8.165  45.121  1.00  0.00    -0.386 OA
HETATM   25  C1  UNL     1      32.059   7.231  44.134  1.00  0.00     0.202 C 
ENDBRANCH   1  24
BRANCH  22  26
HETATM   26  C20 UNL     1      34.554   3.310  47.792  1.00  0.00     0.005 C 
HETATM   27  C21 UNL     1      33.410   2.700  47.439  1.00  0.00     0.032 C 
HETATM   28 CL1  UNL     1      31.912   3.568  47.094  1.00  0.00    -0.085 Cl
BRANCH  27  29
HETATM   29  C22 UNL     1      32.841   1.423  47.155  1.00  0.00     0.053 C 
HETATM   30  C23 UNL     1      31.915   0.686  46.677  1.00  0.00     0.190 C 
HETATM   31  F1  UNL     1      30.731   0.591  46.060  1.00  0.00    -0.219 F 
ENDBRANCH  27  29
ENDBRANCH  22  26
TORSDOF 3
ENDMDL
MODEL 5
REMARK VINA RESULT:      -8.1      1.264      1.361
REMARK  3 active torsions:
REMARK  status: ('A' for Active; 'I' for Inactive)
REMARK    1  A    between atoms: O1_2  and  C2_3 
REMARK    2  A    between atoms: C19_24  and  C20_25 
REMARK    3  A    between atoms: C21_26  and  C22_28 
ROOT
HETATM    1  C2  UNL     1      22.329   3.817  50.513  1.00  0.00     0.184 C 
HETATM    2  C3  UNL     1      22.683   3.063  51.746  1.00  0.00     0.163 C 
HETATM    3  N1  UNL     1      21.682   2.336  52.438  1.00  0.00    -0.377 N 
HETATM    4  C4  UNL     1      22.016   1.134  53.164  1.00  0.00     0.039 A 
HETATM    5  C5  UNL     1      21.076   0.494  53.942  1.00  0.00     0.030 A 
HETATM    6  C6  UNL     1      21.372  -0.678  54.656  1.00  0.00     0.002 A 
HETATM    7  C7  UNL     1      22.681  -1.247  54.592  1.00  0.00     0.001 A 
HETATM    8  C8  UNL     1      23.473  -0.503  53.795  1.00  0.00     0.014 A 
HETATM    9  C9  UNL     1      23.287   0.625  53.072  1.00  0.00    -0.001 A 
HETATM   10  C10 UNL     1      24.393   1.220  52.284  1.00  0.00    -0.019 C 
HETATM   11  C11 UNL     1      23.950   2.331  51.720  1.00  0.00     0.040 C 
HETATM   12  N2  UNL     1      24.979   2.724  50.799  1.00  0.00    -0.379 N 
HETATM   13  C12 UNL     1      26.230   2.221  51.249  1.00  0.00     0.127 C 
HETATM   14  C13 UNL     1      25.823   0.963  52.042  1.00  0.00     0.061 C 
HETATM   15  C14 UNL     1      24.666   3.487  49.588  1.00  0.00     0.161 C 
HETATM   16  C15 UNL     1      23.557   4.449  49.948  1.00  0.00     0.272 A 
HETATM   17  N3  UNL     1      23.404   5.500  49.009  1.00  0.00     0.106 N 
HETATM   18  C16 UNL     1      23.811   6.922  49.214  1.00  0.00     0.311 C 
HETATM   19  C17 UNL     1      22.843   5.399  47.696  1.00  0.00     0.204 A 
HETATM   20  O2  UNL     1      22.998   4.582  48.606  1.00  0.00     0.000 OA
HETATM   21  C18 UNL     1      22.594   6.272  46.520  1.00  0.00     0.024 A 
HETATM   22  C19 UNL     1      22.116   5.126  46.159  1.00  0.00     0.084 A 
HETATM   23  H6  UNL     1      20.679   2.638  52.448  1.00  0.00     0.160 HD
ENDROOT
BRANCH   1  24
HETATM   24  O1  UNL     1      21.539   4.910  50.980  1.00  0.00    -0.386 OA
HETATM   25  C1  UNL     1      20.231   4.858  50.536  1.00  0.00     0.202 C 
ENDBRANCH   1  24
BRANCH  22  26
HETATM   26  C20 UNL     1      21.511   5.044  44.795  1.00  0.00     0.005 C 
HETATM   27  C21 UNL     1      20.556   4.168  45.149  1.00  0.00     0.032 C 
HETATM   28 CL1  UNL     1      20.380   3.530  46.786  1.00  0.00    -0.085 Cl
BRANCH  27  29
HETATM   29  C22 UNL     1      19.422   3.458  44.654  1.00  0.00     0.053 C 
HETATM   30  C23 UNL     1      18.196   3.107  44.726  1.00  0.00     0.190 C 
HETATM   31  F1  UNL     1      17.025   3.164  45.370  1.00  0.00    -0.219 F 
ENDBRANCH  27  29
ENDBRANCH  22  26
TORSDOF 3
ENDMDL
MODEL 6
REMARK VINA RESULT:      -8.0      7.650     10.499
REMARK  3 active torsions:
REMARK  status: ('A' for Active; 'I' for Inactive)
REMARK    1  A    between atoms: O1_2  and  C2_3 
REMARK    2  A    between atoms: C19_24  and  C20_25 
REMARK    3  A    between atoms: C21_26  and  C22_28 
ROOT
HETATM    1  C2  UNL     1      15.088   0.546  52.528  1.00  0.00     0.184 C 
HETATM    2  C3  UNL     1      13.656   0.683  52.908  1.00  0.00     0.163 C 
HETATM    3  N1  UNL     1      13.026  -0.342  53.660  1.00  0.00    -0.377 N 
HETATM    4  C4  UNL     1      11.961  -0.028  54.582  1.00  0.00     0.039 A 
HETATM    5  C5  UNL     1      11.261  -1.029  55.220  1.00  0.00     0.030 A 
HETATM    6  C6  UNL     1      10.221  -0.752  56.123  1.00  0.00     0.002 A 
HETATM    7  C7  UNL     1       9.858   0.599  56.409  1.00  0.00     0.001 A 
HETATM    8  C8  UNL     1      10.634   1.448  55.706  1.00  0.00     0.014 A 
HETATM    9  C9  UNL     1      11.647   1.286  54.824  1.00  0.00    -0.001 A 
HETATM   10  C10 UNL     1      12.309   2.455  54.197  1.00  0.00    -0.019 C 
HETATM   11  C11 UNL     1      13.223   2.009  53.350  1.00  0.00     0.040 C 
HETATM   12  N2  UNL     1      13.975   3.168  52.960  1.00  0.00    -0.379 N 
HETATM   13  C12 UNL     1      13.156   4.323  53.084  1.00  0.00     0.127 C 
HETATM   14  C13 UNL     1      12.169   3.921  54.198  1.00  0.00     0.061 C 
HETATM   15  C14 UNL     1      15.380   3.064  52.559  1.00  0.00     0.161 C 
HETATM   16  C15 UNL     1      15.524   1.769  51.793  1.00  0.00     0.272 A 
HETATM   17  N3  UNL     1      16.713   1.705  51.024  1.00  0.00     0.106 N 
HETATM   18  C16 UNL     1      16.802   1.829  49.538  1.00  0.00     0.311 C 
HETATM   19  C17 UNL     1      18.044   1.519  51.519  1.00  0.00     0.204 A 
HETATM   20  O2  UNL     1      16.941   1.558  52.070  1.00  0.00     0.000 OA
HETATM   21  C18 UNL     1      19.430   1.451  50.991  1.00  0.00     0.024 A 
HETATM   22  C19 UNL     1      19.575   1.258  52.262  1.00  0.00     0.084 A 
HETATM   23  H6  UNL     1      13.308  -1.347  53.578  1.00  0.00     0.160 HD
ENDROOT
BRANCH   1  24
HETATM   24  O1  UNL     1      15.097  -0.491  51.548  1.00  0.00    -0.386 OA
HETATM   25  C1  UNL     1      15.730  -1.640  51.985  1.00  0.00     0.202 C 
ENDBRANCH   1  24
BRANCH  22  26
HETATM   26  C20 UNL     1      20.967   1.041  52.759  1.00  0.00     0.005 C 
HETATM   27  C21 UNL     1      20.676  -0.097  53.412  1.00  0.00     0.032 C 
HETATM   28 CL1  UNL     1      19.060  -0.805  53.457  1.00  0.00    -0.085 Cl
BRANCH  27  29
HETATM   29  C22 UNL     1      21.256  -1.149  54.181  1.00  0.00     0.053 C 
HETATM   30  C23 UNL     1      22.164  -1.609  54.951  1.00  0.00     0.190 C 
HETATM   31  F1  UNL     1      23.300  -1.408  55.630  1.00  0.00    -0.219 F 
ENDBRANCH  27  29
ENDBRANCH  22  26
TORSDOF 3
ENDMDL
MODEL 7
REMARK VINA RESULT:      -7.9      3.968      8.218
REMARK  3 active torsions:
REMARK  status: ('A' for Active; 'I' for Inactive)
REMARK    1  A    between atoms: O1_2  and  C2_3 
REMARK    2  A    between atoms: C19_24  and  C20_25 
REMARK    3  A    between atoms: C21_26  and  C22_28 
ROOT
HETATM    1  C2  UNL     1      21.483   3.378  51.475  1.00  0.00     0.184 C 
HETATM    2  C3  UNL     1      21.135   4.436  50.488  1.00  0.00     0.163 C 
HETATM    3  N1  UNL     1      21.275   5.802  50.843  1.00  0.00    -0.377 N 
HETATM    4  C4  UNL     1      21.600   6.791  49.843  1.00  0.00     0.039 A 
HETATM    5  C5  UNL     1      21.612   8.133  50.155  1.00  0.00     0.030 A 
HETATM    6  C6  UNL     1      21.928   9.117  49.203  1.00  0.00     0.002 A 
HETATM    7  C7  UNL     1      22.251   8.743  47.863  1.00  0.00     0.001 A 
HETATM    8  C8  UNL     1      22.193   7.403  47.727  1.00  0.00     0.014 A 
HETATM    9  C9  UNL     1      21.904   6.383  48.569  1.00  0.00    -0.001 A 
HETATM   10  C10 UNL     1      21.915   4.978  48.098  1.00  0.00    -0.019 C 
HETATM   11  C11 UNL     1      21.553   4.200  49.106  1.00  0.00     0.040 C 
HETATM   12  N2  UNL     1      21.808   2.860  48.660  1.00  0.00    -0.379 N 
HETATM   13  C12 UNL     1      21.734   2.814  47.241  1.00  0.00     0.127 C 
HETATM   14  C13 UNL     1      22.126   4.250  46.836  1.00  0.00     0.061 C 
HETATM   15  C14 UNL     1      22.131   1.791  49.608  1.00  0.00     0.161 C 
HETATM   16  C15 UNL     1      21.302   2.037  50.848  1.00  0.00     0.272 A 
HETATM   17  N3  UNL     1      21.214   0.902  51.694  1.00  0.00     0.106 N 
HETATM   18  C16 UNL     1      20.016   0.029  51.865  1.00  0.00     0.311 C 
HETATM   19  C17 UNL     1      22.250   0.378  52.533  1.00  0.00     0.204 A 
HETATM   20  O2  UNL     1      22.189   1.360  51.789  1.00  0.00     0.000 OA
HETATM   21  C18 UNL     1      22.463  -0.762  53.460  1.00  0.00     0.024 A 
HETATM   22  C19 UNL     1      23.580  -0.111  53.511  1.00  0.00     0.084 A 
HETATM   23  H6  UNL     1      21.150   6.139  51.827  1.00  0.00     0.160 HD
ENDROOT
BRANCH   1  24
HETATM   24  O1  UNL     1      20.455   3.461  52.462  1.00  0.00    -0.386 OA
HETATM   25  C1  UNL     1      19.188   3.539  51.914  1.00  0.00     0.202 C 
ENDBRANCH   1  24
BRANCH  22  26
HETATM   26  C20 UNL     1      24.640  -0.657  54.410  1.00  0.00     0.005 C 
HETATM   27  C21 UNL     1      25.662  -0.239  53.644  1.00  0.00     0.032 C 
HETATM   28 CL1  UNL     1      25.444   0.636  52.127  1.00  0.00    -0.085 Cl
BRANCH  27  29
HETATM   29  C22 UNL     1      27.086  -0.184  53.575  1.00  0.00     0.053 C 
HETATM   30  C23 UNL     1      28.236  -0.125  54.126  1.00  0.00     0.190 C 
HETATM   31  F1  UNL     1      28.969  -0.067  55.244  1.00  0.00    -0.219 F 
ENDBRANCH  27  29
ENDBRANCH  22  26
TORSDOF 3
ENDMDL
MODEL 8
REMARK VINA RESULT:      -7.6      5.804      8.216
REMARK  3 active torsions:
REMARK  status: ('A' for Active; 'I' for Inactive)
REMARK    1  A    between atoms: O1_2  and  C2_3 
REMARK    2  A    between atoms: C19_24  and  C20_25 
REMARK    3  A    between atoms: C21_26  and  C22_28 
ROOT
HETATM    1  C2  UNL     1      18.204  -0.750  52.627  1.00  0.00     0.184 C 
HETATM    2  C3  UNL     1      19.441  -0.035  53.043  1.00  0.00     0.163 C 
HETATM    3  N1  UNL     1      20.599  -0.775  53.392  1.00  0.00    -0.377 N 
HETATM    4  C4  UNL     1      21.916  -0.233  53.158  1.00  0.00     0.039 A 
HETATM    5  C5  UNL     1      23.040  -0.890  53.609  1.00  0.00     0.030 A 
HETATM    6  C6  UNL     1      24.334  -0.387  53.394  1.00  0.00     0.002 A 
HETATM    7  C7  UNL     1      24.519   0.840  52.687  1.00  0.00     0.001 A 
HETATM    8  C8  UNL     1      23.327   1.350  52.318  1.00  0.00     0.014 A 
HETATM    9  C9  UNL     1      22.044   0.949  52.474  1.00  0.00    -0.001 A 
HETATM   10  C10 UNL     1      20.920   1.761  51.948  1.00  0.00    -0.019 C 
HETATM   11  C11 UNL     1      19.787   1.165  52.279  1.00  0.00     0.040 C 
HETATM   12  N2  UNL     1      18.765   1.862  51.550  1.00  0.00    -0.379 N 
HETATM   13  C12 UNL     1      19.197   3.191  51.291  1.00  0.00     0.127 C 
HETATM   14  C13 UNL     1      20.732   3.049  51.258  1.00  0.00     0.061 C 
HETATM   15  C14 UNL     1      17.527   1.192  51.146  1.00  0.00     0.161 C 
HETATM   16  C15 UNL     1      17.154   0.245  52.264  1.00  0.00     0.272 A 
HETATM   17  N3  UNL     1      15.806  -0.190  52.200  1.00  0.00     0.106 N 
HETATM   18  C16 UNL     1      14.699   0.259  53.097  1.00  0.00     0.311 C 
HETATM   19  C17 UNL     1      15.251  -1.126  51.269  1.00  0.00     0.204 A 
HETATM   20  O2  UNL     1      16.394  -0.698  51.449  1.00  0.00     0.000 OA
HETATM   21  C18 UNL     1      13.931  -1.723  50.942  1.00  0.00     0.024 A 
HETATM   22  C19 UNL     1      14.741  -2.287  50.105  1.00  0.00     0.084 A 
HETATM   23  H6  UNL     1      20.542  -1.727  53.824  1.00  0.00     0.160 HD
ENDROOT
BRANCH   1  24
HETATM   24  O1  UNL     1      17.728  -1.361  53.826  1.00  0.00    -0.386 OA
HETATM   25  C1  UNL     1      17.782  -2.742  53.786  1.00  0.00     0.202 C 
ENDBRANCH   1  24
BRANCH  22  26
HETATM   26  C20 UNL     1      14.151  -3.280  49.157  1.00  0.00     0.005 C 
HETATM   27  C21 UNL     1      14.759  -2.773  48.072  1.00  0.00     0.032 C 
HETATM   28 CL1  UNL     1      15.834  -1.373  48.125  1.00  0.00    -0.085 Cl
BRANCH  27  29
HETATM   29  C22 UNL     1      14.937  -2.968  46.670  1.00  0.00     0.053 C 
HETATM   30  C23 UNL     1      14.651  -3.554  45.572  1.00  0.00     0.190 C 
HETATM   31  F1  UNL     1      13.927  -4.468  44.916  1.00  0.00    -0.219 F 
ENDBRANCH  27  29
ENDBRANCH  22  26
TORSDOF 3
ENDMDL
MODEL 9
REMARK VINA RESULT:      -7.5      3.107      4.980
REMARK  3 active torsions:
REMARK  status: ('A' for Active; 'I' for Inactive)
REMARK    1  A    between atoms: O1_2  and  C2_3 
REMARK    2  A    between atoms: C19_24  and  C20_25 
REMARK    3  A    between atoms: C21_26  and  C22_28 
ROOT
HETATM    1  C2  UNL     1      24.248   2.843  50.634  1.00  0.00     0.184 C 
HETATM    2  C3  UNL     1      25.175   1.883  51.291  1.00  0.00     0.163 C 
HETATM    3  N1  UNL     1      26.467   2.312  51.689  1.00  0.00    -0.377 N 
HETATM    4  C4  UNL     1      27.115   1.725  52.837  1.00  0.00     0.039 A 
HETATM    5  C5  UNL     1      28.417   2.044  53.153  1.00  0.00     0.030 A 
HETATM    6  C6  UNL     1      29.072   1.491  54.266  1.00  0.00     0.002 A 
HETATM    7  C7  UNL     1      28.389   0.566  55.115  1.00  0.00     0.001 A 
HETATM    8  C8  UNL     1      27.134   0.364  54.668  1.00  0.00     0.014 A 
HETATM    9  C9  UNL     1      26.419   0.841  53.622  1.00  0.00    -0.001 A 
HETATM   10  C10 UNL     1      25.022   0.402  53.388  1.00  0.00    -0.019 C 
HETATM   11  C11 UNL     1      24.584   0.984  52.284  1.00  0.00     0.040 C 
HETATM   12  N2  UNL     1      23.176   0.708  52.244  1.00  0.00    -0.379 N 
HETATM   13  C12 UNL     1      22.912  -0.495  52.952  1.00  0.00     0.127 C 
HETATM   14  C13 UNL     1      24.058  -0.539  53.983  1.00  0.00     0.061 C 
HETATM   15  C14 UNL     1      22.240   1.623  51.584  1.00  0.00     0.161 C 
HETATM   16  C15 UNL     1      22.945   2.169  50.364  1.00  0.00     0.272 A 
HETATM   17  N3  UNL     1      22.061   2.761  49.427  1.00  0.00     0.106 N 
HETATM   18  C16 UNL     1      21.652   2.173  48.117  1.00  0.00     0.311 C 
HETATM   19  C17 UNL     1      21.390   4.020  49.560  1.00  0.00     0.204 A 
HETATM   20  O2  UNL     1      22.197   3.419  50.274  1.00  0.00     0.000 OA
HETATM   21  C18 UNL     1      20.419   4.850  48.803  1.00  0.00     0.024 A 
HETATM   22  C19 UNL     1      20.683   5.562  49.851  1.00  0.00     0.084 A 
HETATM   23  H6  UNL     1      26.990   3.058  51.173  1.00  0.00     0.160 HD
ENDROOT
BRANCH   1  24
HETATM   24  O1  UNL     1      24.820   3.061  49.344  1.00  0.00    -0.386 OA
HETATM   25  C1  UNL     1      25.335   4.335  49.191  1.00  0.00     0.202 C 
ENDBRANCH   1  24
BRANCH  22  26
HETATM   26  C20 UNL     1      19.995   6.883  49.962  1.00  0.00     0.005 C 
HETATM   27  C21 UNL     1      21.057   7.598  49.555  1.00  0.00     0.032 C 
HETATM   28 CL1  UNL     1      22.607   6.872  49.120  1.00  0.00    -0.085 Cl
BRANCH  27  29
HETATM   29  C22 UNL     1      21.491   8.923  49.254  1.00  0.00     0.053 C 
HETATM   30  C23 UNL     1      21.263  10.165  49.064  1.00  0.00     0.190 C 
HETATM   31  F1  UNL     1      20.384  11.172  49.009  1.00  0.00    -0.219 F 
ENDBRANCH  27  29
ENDBRANCH  22  26
TORSDOF 3
ENDMDL
