MODEL 1
REMARK VINA RESULT:      -8.0      0.000      0.000
REMARK  4 active torsions:
REMARK  status: ('A' for Active; 'I' for Inactive)
REMARK    1  A    between atoms: C3_3  and  C4_4 
REMARK    2  A    between atoms: C5_6  and  C6_7 
REMARK    3  A    between atoms: C6_7  and  C7_8 
REMARK    4  A    between atoms: C14_18  and  O1_19 
ROOT
HETATM    1  C6  UNL     1      25.587   1.217  52.614  1.00  0.00     0.148 C 
HETATM    2  N1  UNL     1      25.712   1.709  53.953  1.00  0.00    -0.355 N 
HETATM    3  C13 UNL     1      26.982   1.221  54.571  1.00  0.00     0.200 A 
HETATM    4  N2  UNL     1      28.152   0.581  54.861  1.00  0.00    -0.180 NA
HETATM    5  C14 UNL     1      28.651  -0.401  53.946  1.00  0.00     0.217 A 
HETATM    6  C15 UNL     1      27.645  -0.328  52.994  1.00  0.00     0.177 A 
HETATM    7  S1  UNL     1      28.412   0.336  54.775  1.00  0.00    -0.059 SA
HETATM    8  N3  UNL     1      26.398   0.063  52.255  1.00  0.00    -0.365 N 
HETATM    9  H11 UNL     1      25.557   2.181  54.857  1.00  0.00     0.159 HD
HETATM   10  H13 UNL     1      26.580  -0.744  51.659  1.00  0.00     0.158 HD
ENDROOT
BRANCH   1  11
HETATM   11  C5  UNL     1      24.182   0.671  52.482  1.00  0.00     0.050 C 
HETATM   12  C4  UNL     1      23.864  -0.198  53.394  1.00  0.00     0.011 C 
HETATM   13 BR1  UNL     1      24.832  -0.891  54.852  1.00  0.00    -0.051 Br
BRANCH  12  14
HETATM   14  C3  UNL     1      22.568  -0.841  53.448  1.00  0.00     0.014 C 
HETATM   15  C2  UNL     1      21.509  -0.883  54.220  1.00  0.00    -0.030 C 
HETATM   16  C1  UNL     1      20.240  -1.606  54.135  1.00  0.00     0.036 C 
ENDBRANCH  12  14
ENDBRANCH   1  11
BRANCH   1  17
HETATM   17  C7  UNL     1      25.714   2.284  51.592  1.00  0.00    -0.006 A 
HETATM   18  C8  UNL     1      26.672   2.447  50.625  1.00  0.00     0.013 A 
HETATM   19  C9  UNL     1      26.602   3.503  49.753  1.00  0.00     0.024 A 
HETATM   20  C10 UNL     1      25.555   4.386  49.871  1.00  0.00     0.034 A 
HETATM   21 CL1  UNL     1      25.480   5.731  48.747  1.00  0.00    -0.084 Cl
HETATM   22  C11 UNL     1      24.537   4.292  50.829  1.00  0.00     0.024 A 
HETATM   23  C12 UNL     1      24.683   3.188  51.679  1.00  0.00     0.013 A 
ENDBRANCH   1  17
BRANCH   5  24
HETATM   24  O1  UNL     1      29.077  -1.418  52.904  1.00  0.00    -0.363 OA
HETATM   25  H12 UNL     1      29.976  -1.807  52.950  1.00  0.00     0.213 HD
ENDBRANCH   5  24
TORSDOF 4
ENDMDL
MODEL 2
REMARK VINA RESULT:      -7.8      4.433      5.967
REMARK  4 active torsions:
REMARK  status: ('A' for Active; 'I' for Inactive)
REMARK    1  A    between atoms: C3_3  and  C4_4 
REMARK    2  A    between atoms: C5_6  and  C6_7 
REMARK    3  A    between atoms: C6_7  and  C7_8 
REMARK    4  A    between atoms: C14_18  and  O1_19 
ROOT
HETATM    1  C6  UNL     1      25.443   4.083  49.968  1.00  0.00     0.148 C 
HETATM    2  N1  UNL     1      24.576   3.308  49.134  1.00  0.00    -0.355 N 
HETATM    3  C13 UNL     1      23.148   3.668  49.387  1.00  0.00     0.200 A 
HETATM    4  N2  UNL     1      21.976   4.167  49.879  1.00  0.00    -0.180 NA
HETATM    5  C14 UNL     1      22.010   4.994  51.047  1.00  0.00     0.217 A 
HETATM    6  C15 UNL     1      23.379   4.982  51.270  1.00  0.00     0.177 A 
HETATM    7  S1  UNL     1      21.793   4.366  50.128  1.00  0.00    -0.059 SA
HETATM    8  N3  UNL     1      24.849   4.706  51.141  1.00  0.00    -0.365 N 
HETATM    9  H11 UNL     1      24.193   2.641  48.445  1.00  0.00     0.159 HD
HETATM   10  H13 UNL     1      24.939   5.119  52.068  1.00  0.00     0.158 HD
ENDROOT
BRANCH   1  11
HETATM   11  C5  UNL     1      26.429   3.118  50.586  1.00  0.00     0.050 C 
HETATM   12  C4  UNL     1      25.875   2.160  51.268  1.00  0.00     0.011 C 
HETATM   13 BR1  UNL     1      24.070   1.755  51.616  1.00  0.00    -0.051 Br
BRANCH  12  14
HETATM   14  C3  UNL     1      26.640   1.131  51.940  1.00  0.00     0.014 C 
HETATM   15  C2  UNL     1      26.583  -0.158  52.177  1.00  0.00    -0.030 C 
HETATM   16  C1  UNL     1      27.461  -1.080  52.897  1.00  0.00     0.036 C 
ENDBRANCH  12  14
ENDBRANCH   1  11
BRANCH   1  17
HETATM   17  C7  UNL     1      26.250   5.067  49.205  1.00  0.00    -0.006 A 
HETATM   18  C8  UNL     1      25.901   6.318  48.766  1.00  0.00     0.013 A 
HETATM   19  C9  UNL     1      26.808   7.090  48.085  1.00  0.00     0.024 A 
HETATM   20  C10 UNL     1      28.065   6.582  47.857  1.00  0.00     0.034 A 
HETATM   21 CL1  UNL     1      29.213   7.581  46.984  1.00  0.00    -0.084 Cl
HETATM   22  C11 UNL     1      28.500   5.315  48.270  1.00  0.00     0.024 A 
HETATM   23  C12 UNL     1      27.515   4.593  48.957  1.00  0.00     0.013 A 
ENDBRANCH   1  17
BRANCH   5  24
HETATM   24  O1  UNL     1      22.173   5.855  52.286  1.00  0.00    -0.363 OA
HETATM   25  H12 UNL     1      22.887   6.527  52.315  1.00  0.00     0.213 HD
ENDBRANCH   5  24
TORSDOF 4
ENDMDL
MODEL 3
REMARK VINA RESULT:      -7.7      4.320      5.680
REMARK  4 active torsions:
REMARK  status: ('A' for Active; 'I' for Inactive)
REMARK    1  A    between atoms: C3_3  and  C4_4 
REMARK    2  A    between atoms: C5_6  and  C6_7 
REMARK    3  A    between atoms: C6_7  and  C7_8 
REMARK    4  A    between atoms: C14_18  and  O1_19 
ROOT
HETATM    1  C6  UNL     1      22.989   2.707  51.742  1.00  0.00     0.148 C 
HETATM    2  N1  UNL     1      22.875   2.844  50.322  1.00  0.00    -0.355 N 
HETATM    3  C13 UNL     1      23.433   4.158  49.877  1.00  0.00     0.200 A 
HETATM    4  N2  UNL     1      23.948   5.419  49.803  1.00  0.00    -0.180 NA
HETATM    5  C14 UNL     1      24.171   6.150  51.014  1.00  0.00     0.217 A 
HETATM    6  C15 UNL     1      23.731   5.194  51.918  1.00  0.00     0.177 A 
HETATM    7  S1  UNL     1      24.062   5.728  49.967  1.00  0.00    -0.059 SA
HETATM    8  N3  UNL     1      23.185   3.928  52.510  1.00  0.00    -0.365 N 
HETATM    9  H11 UNL     1      22.677   2.690  49.321  1.00  0.00     0.159 HD
HETATM   10  H13 UNL     1      23.133   4.442  53.389  1.00  0.00     0.158 HD
ENDROOT
BRANCH   1  11
HETATM   11  C5  UNL     1      21.644   2.230  52.242  1.00  0.00     0.050 C 
HETATM   12  C4  UNL     1      20.999   1.484  51.395  1.00  0.00     0.011 C 
HETATM   13 BR1  UNL     1      21.442   0.885  49.666  1.00  0.00    -0.051 Br
BRANCH  12  14
HETATM   14  C3  UNL     1      19.694   0.924  51.678  1.00  0.00     0.014 C 
HETATM   15  C2  UNL     1      19.166  -0.164  52.185  1.00  0.00    -0.030 C 
HETATM   16  C1  UNL     1      17.786  -0.593  52.407  1.00  0.00     0.036 C 
ENDBRANCH  12  14
ENDBRANCH   1  11
BRANCH   1  17
HETATM   17  C7  UNL     1      23.972   1.672  52.146  1.00  0.00    -0.006 A 
HETATM   18  C8  UNL     1      23.805   0.602  52.987  1.00  0.00     0.013 A 
HETATM   19  C9  UNL     1      24.844  -0.262  53.220  1.00  0.00     0.024 A 
HETATM   20  C10 UNL     1      26.047  -0.030  52.595  1.00  0.00     0.034 A 
HETATM   21 CL1  UNL     1      27.366  -1.145  52.905  1.00  0.00    -0.084 Cl
HETATM   22  C11 UNL     1      26.300   1.039  51.724  1.00  0.00     0.024 A 
HETATM   23  C12 UNL     1      25.188   1.872  51.540  1.00  0.00     0.013 A 
ENDBRANCH   1  17
BRANCH   5  24
HETATM   24  O1  UNL     1      24.362   6.823  52.360  1.00  0.00    -0.363 OA
HETATM   25  H12 UNL     1      23.655   7.405  52.712  1.00  0.00     0.213 HD
ENDBRANCH   5  24
TORSDOF 4
ENDMDL
MODEL 4
REMARK VINA RESULT:      -7.7      3.811      5.136
REMARK  4 active torsions:
REMARK  status: ('A' for Active; 'I' for Inactive)
REMARK    1  A    between atoms: C3_3  and  C4_4 
REMARK    2  A    between atoms: C5_6  and  C6_7 
REMARK    3  A    between atoms: C6_7  and  C7_8 
REMARK    4  A    between atoms: C14_18  and  O1_19 
ROOT
HETATM    1  C6  UNL     1      24.532   1.459  52.495  1.00  0.00     0.148 C 
HETATM    2  N1  UNL     1      24.299   1.521  51.084  1.00  0.00    -0.355 N 
HETATM    3  C13 UNL     1      24.138   2.940  50.643  1.00  0.00     0.200 A 
HETATM    4  N2  UNL     1      23.982   4.294  50.572  1.00  0.00    -0.180 NA
HETATM    5  C14 UNL     1      23.886   5.046  51.787  1.00  0.00     0.217 A 
HETATM    6  C15 UNL     1      24.001   3.998  52.689  1.00  0.00     0.177 A 
HETATM    7  S1  UNL     1      23.943   4.620  50.737  1.00  0.00    -0.059 SA
HETATM    8  N3  UNL     1      24.156   2.627  53.279  1.00  0.00    -0.365 N 
HETATM    9  H11 UNL     1      24.150   1.288  50.090  1.00  0.00     0.159 HD
HETATM   10  H13 UNL     1      23.907   3.056  54.169  1.00  0.00     0.158 HD
ENDROOT
BRANCH   1  11
HETATM   11  C5  UNL     1      23.605   0.397  53.043  1.00  0.00     0.050 C 
HETATM   12  C4  UNL     1      22.372   0.516  52.647  1.00  0.00     0.011 C 
HETATM   13 BR1  UNL     1      21.539   1.762  51.509  1.00  0.00    -0.051 Br
BRANCH  12  14
HETATM   14  C3  UNL     1      21.326  -0.398  53.055  1.00  0.00     0.014 C 
HETATM   15  C2  UNL     1      20.029  -0.404  53.250  1.00  0.00    -0.030 C 
HETATM   16  C1  UNL     1      19.090  -1.439  53.679  1.00  0.00     0.036 C 
ENDBRANCH  12  14
ENDBRANCH   1  11
BRANCH   1  17
HETATM   17  C7  UNL     1      25.908   1.022  52.835  1.00  0.00    -0.006 A 
HETATM   18  C8  UNL     1      26.955   1.761  53.324  1.00  0.00     0.013 A 
HETATM   19  C9  UNL     1      28.158   1.160  53.594  1.00  0.00     0.024 A 
HETATM   20  C10 UNL     1      28.286  -0.190  53.366  1.00  0.00     0.034 A 
HETATM   21 CL1  UNL     1      29.831  -0.943  53.717  1.00  0.00    -0.084 Cl
HETATM   22  C11 UNL     1      27.268  -1.014  52.868  1.00  0.00     0.024 A 
HETATM   23  C12 UNL     1      26.075  -0.324  52.619  1.00  0.00     0.013 A 
ENDBRANCH   1  17
BRANCH   5  24
HETATM   24  O1  UNL     1      23.795   5.732  53.137  1.00  0.00    -0.363 OA
HETATM   25  H12 UNL     1      23.205   5.361  53.827  1.00  0.00     0.213 HD
ENDBRANCH   5  24
TORSDOF 4
ENDMDL
MODEL 5
REMARK VINA RESULT:      -7.7      7.702      9.694
REMARK  4 active torsions:
REMARK  status: ('A' for Active; 'I' for Inactive)
REMARK    1  A    between atoms: C3_3  and  C4_4 
REMARK    2  A    between atoms: C5_6  and  C6_7 
REMARK    3  A    between atoms: C6_7  and  C7_8 
REMARK    4  A    between atoms: C14_18  and  O1_19 
ROOT
HETATM    1  C6  UNL     1      30.331   6.619  47.876  1.00  0.00     0.148 C 
HETATM    2  N1  UNL     1      29.791   7.364  46.780  1.00  0.00    -0.355 N 
HETATM    3  C13 UNL     1      29.877   8.831  47.054  1.00  0.00     0.200 A 
HETATM    4  N2  UNL     1      30.039  10.065  47.613  1.00  0.00    -0.180 NA
HETATM    5  C14 UNL     1      30.417  10.159  48.991  1.00  0.00     0.217 A 
HETATM    6  C15 UNL     1      30.488   8.803  49.279  1.00  0.00     0.177 A 
HETATM    7  S1  UNL     1      30.119  10.277  47.903  1.00  0.00    -0.059 SA
HETATM    8  N3  UNL     1      30.444   7.309  49.153  1.00  0.00    -0.365 N 
HETATM    9  H11 UNL     1      29.360   7.646  45.886  1.00  0.00     0.159 HD
HETATM   10  H13 UNL     1      30.524   7.289  50.169  1.00  0.00     0.158 HD
ENDROOT
BRANCH   1  11
HETATM   11  C5  UNL     1      29.333   5.527  48.193  1.00  0.00     0.050 C 
HETATM   12  C4  UNL     1      28.128   5.960  48.412  1.00  0.00     0.011 C 
HETATM   13 BR1  UNL     1      27.400   7.696  48.397  1.00  0.00    -0.051 Br
BRANCH  12  14
HETATM   14  C3  UNL     1      27.024   5.079  48.731  1.00  0.00     0.014 C 
HETATM   15  C2  UNL     1      26.797   3.961  49.379  1.00  0.00    -0.030 C 
HETATM   16  C1  UNL     1      25.588   3.174  49.615  1.00  0.00     0.036 C 
ENDBRANCH  12  14
ENDBRANCH   1  11
BRANCH   1  17
HETATM   17  C7  UNL     1      31.602   5.932  47.539  1.00  0.00    -0.006 A 
HETATM   18  C8  UNL     1      32.855   6.464  47.368  1.00  0.00     0.013 A 
HETATM   19  C9  UNL     1      33.917   5.649  47.072  1.00  0.00     0.024 A 
HETATM   20  C10 UNL     1      33.697   4.297  46.954  1.00  0.00     0.034 A 
HETATM   21 CL1  UNL     1      35.067   3.268  46.577  1.00  0.00    -0.084 Cl
HETATM   22  C11 UNL     1      32.451   3.675  47.113  1.00  0.00     0.024 A 
HETATM   23  C12 UNL     1      31.421   4.576  47.412  1.00  0.00     0.013 A 
ENDBRANCH   1  17
BRANCH   5  24
HETATM   24  O1  UNL     1      30.817  10.130  50.454  1.00  0.00    -0.363 OA
HETATM   25  H12 UNL     1      31.428  10.815  50.800  1.00  0.00     0.213 HD
ENDBRANCH   5  24
TORSDOF 4
ENDMDL
MODEL 6
REMARK VINA RESULT:      -7.4      3.910      6.192
REMARK  4 active torsions:
REMARK  status: ('A' for Active; 'I' for Inactive)
REMARK    1  A    between atoms: C3_3  and  C4_4 
REMARK    2  A    between atoms: C5_6  and  C6_7 
REMARK    3  A    between atoms: C6_7  and  C7_8 
REMARK    4  A    between atoms: C14_18  and  O1_19 
ROOT
HETATM    1  C6  UNL     1      23.608   1.135  52.546  1.00  0.00     0.148 C 
HETATM    2  N1  UNL     1      23.855   2.235  53.428  1.00  0.00    -0.355 N 
HETATM    3  C13 UNL     1      23.902   3.517  52.662  1.00  0.00     0.200 A 
HETATM    4  N2  UNL     1      23.943   4.481  51.697  1.00  0.00    -0.180 NA
HETATM    5  C14 UNL     1      23.959   4.085  50.321  1.00  0.00     0.217 A 
HETATM    6  C15 UNL     1      23.920   2.710  50.500  1.00  0.00     0.177 A 
HETATM    7  S1  UNL     1      23.953   4.578  51.343  1.00  0.00    -0.059 SA
HETATM    8  N3  UNL     1      23.873   1.349  51.131  1.00  0.00    -0.365 N 
HETATM    9  H11 UNL     1      24.036   2.825  54.255  1.00  0.00     0.159 HD
HETATM   10  H13 UNL     1      24.073   0.986  50.201  1.00  0.00     0.158 HD
ENDROOT
BRANCH   1  11
HETATM   11  C5  UNL     1      24.614   0.061  52.898  1.00  0.00     0.050 C 
HETATM   12  C4  UNL     1      25.852   0.421  52.731  1.00  0.00     0.011 C 
HETATM   13 BR1  UNL     1      26.616   2.036  52.139  1.00  0.00    -0.051 Br
BRANCH  12  14
HETATM   14  C3  UNL     1      26.969  -0.457  53.010  1.00  0.00     0.014 C 
HETATM   15  C2  UNL     1      28.274  -0.402  53.128  1.00  0.00    -0.030 C 
HETATM   16  C1  UNL     1      29.292  -1.410  53.420  1.00  0.00     0.036 C 
ENDBRANCH  12  14
ENDBRANCH   1  11
BRANCH   1  17
HETATM   17  C7  UNL     1      22.269   0.527  52.741  1.00  0.00    -0.006 A 
HETATM   18  C8  UNL     1      21.083   0.828  52.123  1.00  0.00     0.013 A 
HETATM   19  C9  UNL     1      19.945   0.130  52.433  1.00  0.00     0.024 A 
HETATM   20  C10 UNL     1      20.022  -0.872  53.372  1.00  0.00     0.034 A 
HETATM   21 CL1  UNL     1      18.556  -1.757  53.757  1.00  0.00    -0.084 Cl
HETATM   22  C11 UNL     1      21.192  -1.242  54.049  1.00  0.00     0.024 A 
HETATM   23  C12 UNL     1      22.307  -0.480  53.675  1.00  0.00     0.013 A 
ENDBRANCH   1  17
BRANCH   5  24
HETATM   24  O1  UNL     1      23.973   3.544  48.904  1.00  0.00    -0.363 OA
HETATM   25  H12 UNL     1      23.767   4.145  48.157  1.00  0.00     0.213 HD
ENDBRANCH   5  24
TORSDOF 4
ENDMDL
MODEL 7
REMARK VINA RESULT:      -7.2      4.855      7.587
REMARK  4 active torsions:
REMARK  status: ('A' for Active; 'I' for Inactive)
REMARK    1  A    between atoms: C3_3  and  C4_4 
REMARK    2  A    between atoms: C5_6  and  C6_7 
REMARK    3  A    between atoms: C6_7  and  C7_8 
REMARK    4  A    between atoms: C14_18  and  O1_19 
ROOT
HETATM    1  C6  UNL     1      24.870   3.767  50.637  1.00  0.00     0.148 C 
HETATM    2  N1  UNL     1      24.665   4.871  51.527  1.00  0.00    -0.355 N 
HETATM    3  C13 UNL     1      23.260   5.368  51.426  1.00  0.00     0.200 A 
HETATM    4  N2  UNL     1      21.966   5.616  51.069  1.00  0.00    -0.180 NA
HETATM    5  C14 UNL     1      21.419   4.940  49.931  1.00  0.00     0.217 A 
HETATM    6  C15 UNL     1      22.536   4.198  49.574  1.00  0.00     0.177 A 
HETATM    7  S1  UNL     1      21.680   5.558  50.846  1.00  0.00    -0.059 SA
HETATM    8  N3  UNL     1      23.916   3.610  49.549  1.00  0.00    -0.365 N 
HETATM    9  H11 UNL     1      24.786   5.618  52.227  1.00  0.00     0.159 HD
HETATM   10  H13 UNL     1      23.669   3.242  48.631  1.00  0.00     0.158 HD
ENDROOT
BRANCH   1  11
HETATM   11  C5  UNL     1      26.158   4.042  49.894  1.00  0.00     0.050 C 
HETATM   12  C4  UNL     1      26.182   5.190  49.284  1.00  0.00     0.011 C 
HETATM   13 BR1  UNL     1      24.910   6.572  49.168  1.00  0.00    -0.051 Br
BRANCH  12  14
HETATM   14  C3  UNL     1      27.322   5.645  48.516  1.00  0.00     0.014 C 
HETATM   15  C2  UNL     1      27.888   6.769  48.145  1.00  0.00    -0.030 C 
HETATM   16  C1  UNL     1      29.072   7.071  47.341  1.00  0.00     0.036 C 
ENDBRANCH  12  14
ENDBRANCH   1  11
BRANCH   1  17
HETATM   17  C7  UNL     1      25.069   2.481  51.349  1.00  0.00    -0.006 A 
HETATM   18  C8  UNL     1      24.157   1.722  52.036  1.00  0.00     0.013 A 
HETATM   19  C9  UNL     1      24.539   0.539  52.615  1.00  0.00     0.024 A 
HETATM   20  C10 UNL     1      25.848   0.137  52.490  1.00  0.00     0.034 A 
HETATM   21 CL1  UNL     1      26.320  -1.379  53.237  1.00  0.00    -0.084 Cl
HETATM   22  C11 UNL     1      26.840   0.852  51.807  1.00  0.00     0.024 A 
HETATM   23  C12 UNL     1      26.368   2.046  51.246  1.00  0.00     0.013 A 
ENDBRANCH   1  17
BRANCH   5  24
HETATM   24  O1  UNL     1      20.954   4.167  48.711  1.00  0.00    -0.363 OA
HETATM   25  H12 UNL     1      19.994   4.107  48.516  1.00  0.00     0.213 HD
ENDBRANCH   5  24
TORSDOF 4
ENDMDL
MODEL 8
REMARK VINA RESULT:      -6.9      4.637      6.053
REMARK  4 active torsions:
REMARK  status: ('A' for Active; 'I' for Inactive)
REMARK    1  A    between atoms: C3_3  and  C4_4 
REMARK    2  A    between atoms: C5_6  and  C6_7 
REMARK    3  A    between atoms: C6_7  and  C7_8 
REMARK    4  A    between atoms: C14_18  and  O1_19 
ROOT
HETATM    1  C6  UNL     1      25.093   4.620  49.845  1.00  0.00     0.148 C 
HETATM    2  N1  UNL     1      24.785   5.716  50.713  1.00  0.00    -0.355 N 
HETATM    3  C13 UNL     1      25.539   6.938  50.299  1.00  0.00     0.200 A 
HETATM    4  N2  UNL     1      26.389   7.835  49.720  1.00  0.00    -0.180 NA
HETATM    5  C14 UNL     1      27.327   7.372  48.742  1.00  0.00     0.217 A 
HETATM    6  C15 UNL     1      26.984   6.028  48.745  1.00  0.00     0.177 A 
HETATM    7  S1  UNL     1      26.662   7.912  49.486  1.00  0.00    -0.059 SA
HETATM    8  N3  UNL     1      26.315   4.722  49.059  1.00  0.00    -0.365 N 
HETATM    9  H11 UNL     1      24.400   6.314  51.460  1.00  0.00     0.159 HD
HETATM   10  H13 UNL     1      27.066   4.287  48.526  1.00  0.00     0.158 HD
ENDROOT
BRANCH   1  11
HETATM   11  C5  UNL     1      25.386   3.431  50.733  1.00  0.00     0.050 C 
HETATM   12  C4  UNL     1      24.576   3.314  51.743  1.00  0.00     0.011 C 
HETATM   13 BR1  UNL     1      23.104   4.350  52.293  1.00  0.00    -0.051 Br
BRANCH  12  14
HETATM   14  C3  UNL     1      24.683   2.245  52.713  1.00  0.00     0.014 C 
HETATM   15  C2  UNL     1      24.854   0.944  52.747  1.00  0.00    -0.030 C 
HETATM   16  C1  UNL     1      24.940  -0.021  53.842  1.00  0.00     0.036 C 
ENDBRANCH  12  14
ENDBRANCH   1  11
BRANCH   1  17
HETATM   17  C7  UNL     1      23.950   4.224  48.986  1.00  0.00    -0.006 A 
HETATM   18  C8  UNL     1      23.430   2.975  48.759  1.00  0.00     0.013 A 
HETATM   19  C9  UNL     1      22.345   2.818  47.935  1.00  0.00     0.024 A 
HETATM   20  C10 UNL     1      21.797   3.934  47.347  1.00  0.00     0.034 A 
HETATM   21 CL1  UNL     1      20.410   3.715  46.296  1.00  0.00    -0.084 Cl
HETATM   22  C11 UNL     1      22.268   5.242  47.525  1.00  0.00     0.024 A 
HETATM   23  C12 UNL     1      23.376   5.314  48.380  1.00  0.00     0.013 A 
ENDBRANCH   1  17
BRANCH   5  24
HETATM   24  O1  UNL     1      28.274   6.764  47.724  1.00  0.00    -0.363 OA
HETATM   25  H12 UNL     1      27.919   6.445  46.868  1.00  0.00     0.213 HD
ENDBRANCH   5  24
TORSDOF 4
ENDMDL
MODEL 9
REMARK VINA RESULT:      -6.8      7.360      9.412
REMARK  4 active torsions:
REMARK  status: ('A' for Active; 'I' for Inactive)
REMARK    1  A    between atoms: C3_3  and  C4_4 
REMARK    2  A    between atoms: C5_6  and  C6_7 
REMARK    3  A    between atoms: C6_7  and  C7_8 
REMARK    4  A    between atoms: C14_18  and  O1_19 
ROOT
HETATM    1  C6  UNL     1      29.255   6.933  48.116  1.00  0.00     0.148 C 
HETATM    2  N1  UNL     1      28.784   7.293  46.813  1.00  0.00    -0.355 N 
HETATM    3  C13 UNL     1      28.400   8.737  46.778  1.00  0.00     0.200 A 
HETATM    4  N2  UNL     1      28.090  10.032  47.079  1.00  0.00    -0.180 NA
HETATM    5  C14 UNL     1      28.116  10.451  48.448  1.00  0.00     0.217 A 
HETATM    6  C15 UNL     1      28.492   9.247  49.027  1.00  0.00     0.177 A 
HETATM    7  S1  UNL     1      28.043  10.300  47.326  1.00  0.00    -0.059 SA
HETATM    8  N3  UNL     1      28.891   7.813  49.217  1.00  0.00    -0.365 N 
HETATM    9  H11 UNL     1      28.499   7.284  45.821  1.00  0.00     0.159 HD
HETATM   10  H13 UNL     1      28.748   7.976  50.213  1.00  0.00     0.158 HD
ENDROOT
BRANCH   1  11
HETATM   11  C5  UNL     1      28.552   5.647  48.491  1.00  0.00     0.050 C 
HETATM   12  C4  UNL     1      27.263   5.765  48.610  1.00  0.00     0.011 C 
HETATM   13 BR1  UNL     1      26.116   7.241  48.390  1.00  0.00    -0.051 Br
BRANCH  12  14
HETATM   14  C3  UNL     1      26.404   4.654  48.962  1.00  0.00     0.014 C 
HETATM   15  C2  UNL     1      25.171   4.433  49.354  1.00  0.00    -0.030 C 
HETATM   16  C1  UNL     1      24.432   3.215  49.682  1.00  0.00     0.036 C 
ENDBRANCH  12  14
ENDBRANCH   1  11
BRANCH   1  17
HETATM   17  C7  UNL     1      30.707   6.634  48.144  1.00  0.00    -0.006 A 
HETATM   18  C8  UNL     1      31.763   7.485  48.350  1.00  0.00     0.013 A 
HETATM   19  C9  UNL     1      33.047   7.004  48.356  1.00  0.00     0.024 A 
HETATM   20  C10 UNL     1      33.248   5.659  48.154  1.00  0.00     0.034 A 
HETATM   21 CL1  UNL     1      34.897   5.060  48.166  1.00  0.00    -0.084 Cl
HETATM   22  C11 UNL     1      32.227   4.724  47.936  1.00  0.00     0.024 A 
HETATM   23  C12 UNL     1      30.948   5.296  47.945  1.00  0.00     0.013 A 
ENDBRANCH   1  17
BRANCH   5  24
HETATM   24  O1  UNL     1      28.178  10.775  49.929  1.00  0.00    -0.363 OA
HETATM   25  H12 UNL     1      28.636  10.158  50.538  1.00  0.00     0.213 HD
ENDBRANCH   5  24
TORSDOF 4
ENDMDL
