MODEL 1
REMARK VINA RESULT:      -7.4      0.000      0.000
REMARK  2 active torsions:
REMARK  status: ('A' for Active; 'I' for Inactive)
REMARK    1  A    between atoms: C1_2  and  N1_3 
REMARK    2  A    between atoms: C11_16  and  N4_17 
ROOT
HETATM    1  N1  UNL     1      25.200   2.147  52.266  1.00  0.00    -0.344 N 
HETATM    2  C2  UNL     1      25.647   2.946  51.184  1.00  0.00     0.091 C 
HETATM    3  C3  UNL     1      25.634   3.671  50.089  1.00  0.00     0.036 C 
HETATM    4  C4  UNL     1      24.526   4.026  49.245  1.00  0.00     0.119 C 
HETATM    5  N2  UNL     1      23.775   3.353  50.033  1.00  0.00    -0.254 NA
HETATM    6  C5  UNL     1      22.383   3.319  49.686  1.00  0.00     0.232 C 
HETATM    7  N3  UNL     1      22.596   2.190  49.071  1.00  0.00    -0.253 NA
HETATM    8  C6  UNL     1      21.460   1.570  48.439  1.00  0.00     0.132 C 
HETATM    9  C7  UNL     1      21.225   0.699  49.403  1.00  0.00     0.017 C 
HETATM   10  C8  UNL     1      20.706   1.234  50.490  1.00  0.00     0.148 C 
HETATM   11  O1  UNL     1      21.999   0.847  50.914  1.00  0.00    -0.362 OA
HETATM   12  C9  UNL     1      22.298   1.117  52.268  1.00  0.00     0.178 C 
HETATM   13  C10 UNL     1      23.493   0.438  52.819  1.00  0.00     0.073 C 
HETATM   14  C11 UNL     1      24.812   0.726  52.213  1.00  0.00     0.185 C 
ENDROOT
BRANCH  14  15
HETATM   15  N4  UNL     1      25.831   0.016  52.891  1.00  0.00    -0.388 N 
HETATM   16  C12 UNL     1      25.661  -0.229  54.276  1.00  0.00     0.145 C 
HETATM   17  C13 UNL     1      26.988   0.071  54.971  1.00  0.00     0.187 C 
HETATM   18  O2  UNL     1      28.001  -0.712  54.481  1.00  0.00    -0.388 OA
HETATM   19  C14 UNL     1      27.949  -0.994  53.140  1.00  0.00     0.187 C 
HETATM   20  C15 UNL     1      27.167   0.141  52.456  1.00  0.00     0.145 C 
ENDBRANCH  14  15
BRANCH   1  21
HETATM   21  C1  UNL     1      25.145   2.827  53.578  1.00  0.00     0.349 C 
HETATM   22  F1  UNL     1      24.142   3.807  53.481  1.00  0.00    -0.234 F 
ENDBRANCH   1  21
TORSDOF 2
ENDMDL
MODEL 2
REMARK VINA RESULT:      -7.2      0.777      1.270
REMARK  2 active torsions:
REMARK  status: ('A' for Active; 'I' for Inactive)
REMARK    1  A    between atoms: C1_2  and  N1_3 
REMARK    2  A    between atoms: C11_16  and  N4_17 
ROOT
HETATM    1  N1  UNL     1      24.769   2.849  52.092  1.00  0.00    -0.344 N 
HETATM    2  C2  UNL     1      25.258   3.718  51.084  1.00  0.00     0.091 C 
HETATM    3  C3  UNL     1      25.306   4.457  49.999  1.00  0.00     0.036 C 
HETATM    4  C4  UNL     1      24.290   4.685  49.008  1.00  0.00     0.119 C 
HETATM    5  N2  UNL     1      23.528   3.909  49.681  1.00  0.00    -0.254 NA
HETATM    6  C5  UNL     1      22.214   3.707  49.141  1.00  0.00     0.232 C 
HETATM    7  N3  UNL     1      22.653   2.625  48.561  1.00  0.00    -0.253 NA
HETATM    8  C6  UNL     1      21.705   1.879  47.774  1.00  0.00     0.132 C 
HETATM    9  C7  UNL     1      21.450   0.967  48.695  1.00  0.00     0.017 C 
HETATM   10  C8  UNL     1      20.720   1.412  49.698  1.00  0.00     0.148 C 
HETATM   11  O1  UNL     1      21.980   1.183  50.300  1.00  0.00    -0.362 OA
HETATM   12  C9  UNL     1      22.051   1.462  51.683  1.00  0.00     0.178 C 
HETATM   13  C10 UNL     1      23.234   0.928  52.396  1.00  0.00     0.073 C 
HETATM   14  C11 UNL     1      24.577   1.392  51.982  1.00  0.00     0.185 C 
ENDROOT
BRANCH  14  15
HETATM   15  N4  UNL     1      25.573   0.802  52.796  1.00  0.00    -0.388 N 
HETATM   16  C12 UNL     1      26.793   0.424  52.184  1.00  0.00     0.145 C 
HETATM   17  C13 UNL     1      27.165  -0.965  52.700  1.00  0.00     0.187 C 
HETATM   18  O2  UNL     1      27.306  -0.975  54.063  1.00  0.00    -0.388 OA
HETATM   19  C14 UNL     1      26.450  -0.163  54.763  1.00  0.00     0.187 C 
HETATM   20  C15 UNL     1      25.185   0.025  53.909  1.00  0.00     0.145 C 
ENDBRANCH  14  15
BRANCH   1  21
HETATM   21  C1  UNL     1      24.446   3.491  53.383  1.00  0.00     0.349 C 
HETATM   22  F1  UNL     1      23.571   4.553  53.095  1.00  0.00    -0.234 F 
ENDBRANCH   1  21
TORSDOF 2
ENDMDL
MODEL 3
REMARK VINA RESULT:      -7.1      1.989      6.081
REMARK  2 active torsions:
REMARK  status: ('A' for Active; 'I' for Inactive)
REMARK    1  A    between atoms: C1_2  and  N1_3 
REMARK    2  A    between atoms: C11_16  and  N4_17 
ROOT
HETATM    1  N1  UNL     1      22.674   2.106  51.841  1.00  0.00    -0.344 N 
HETATM    2  C2  UNL     1      22.024   0.976  52.398  1.00  0.00     0.091 C 
HETATM    3  C3  UNL     1      21.821  -0.128  53.082  1.00  0.00     0.036 C 
HETATM    4  C4  UNL     1      22.742  -0.882  53.887  1.00  0.00     0.119 C 
HETATM    5  N2  UNL     1      23.638  -0.021  53.579  1.00  0.00    -0.254 NA
HETATM    6  C5  UNL     1      24.938  -0.250  54.143  1.00  0.00     0.232 C 
HETATM    7  N3  UNL     1      25.274  -0.860  53.041  1.00  0.00    -0.253 NA
HETATM    8  C6  UNL     1      26.613  -1.384  52.970  1.00  0.00     0.132 C 
HETATM    9  C7  UNL     1      27.113  -0.387  52.262  1.00  0.00     0.017 C 
HETATM   10  C8  UNL     1      27.265   0.729  52.946  1.00  0.00     0.148 C 
HETATM   11  O1  UNL     1      26.225   1.050  52.041  1.00  0.00    -0.362 OA
HETATM   12  C9  UNL     1      25.728   2.369  52.133  1.00  0.00     0.178 C 
HETATM   13  C10 UNL     1      24.890   2.830  51.002  1.00  0.00     0.073 C 
HETATM   14  C11 UNL     1      23.628   2.110  50.719  1.00  0.00     0.185 C 
ENDROOT
BRANCH  14  15
HETATM   15  N4  UNL     1      22.952   2.713  49.631  1.00  0.00    -0.388 N 
HETATM   16  C12 UNL     1      22.105   1.898  48.842  1.00  0.00     0.145 C 
HETATM   17  C13 UNL     1      22.375   2.224  47.374  1.00  0.00     0.187 C 
HETATM   18  O2  UNL     1      22.137   3.546  47.100  1.00  0.00    -0.388 OA
HETATM   19  C14 UNL     1      22.454   4.434  48.096  1.00  0.00     0.187 C 
HETATM   20  C15 UNL     1      23.557   3.794  48.956  1.00  0.00     0.145 C 
ENDBRANCH  14  15
BRANCH   1  21
HETATM   21  C1  UNL     1      22.326   3.404  52.456  1.00  0.00     0.349 C 
HETATM   22  F1  UNL     1      20.926   3.435  52.566  1.00  0.00    -0.234 F 
ENDBRANCH   1  21
TORSDOF 2
ENDMDL
MODEL 4
REMARK VINA RESULT:      -6.7      3.181      5.043
REMARK  2 active torsions:
REMARK  status: ('A' for Active; 'I' for Inactive)
REMARK    1  A    between atoms: C1_2  and  N1_3 
REMARK    2  A    between atoms: C11_16  and  N4_17 
ROOT
HETATM    1  N1  UNL     1      23.761   3.717  50.584  1.00  0.00    -0.344 N 
HETATM    2  C2  UNL     1      22.691   4.501  51.084  1.00  0.00     0.091 C 
HETATM    3  C3  UNL     1      21.898   5.527  51.298  1.00  0.00     0.036 C 
HETATM    4  C4  UNL     1      21.978   6.863  50.775  1.00  0.00     0.119 C 
HETATM    5  N2  UNL     1      23.034   6.502  50.149  1.00  0.00    -0.254 NA
HETATM    6  C5  UNL     1      23.661   7.517  49.351  1.00  0.00     0.232 C 
HETATM    7  N3  UNL     1      24.452   7.775  50.355  1.00  0.00    -0.253 NA
HETATM    8  C6  UNL     1      25.425   8.819  50.164  1.00  0.00     0.132 C 
HETATM    9  C7  UNL     1      26.441   8.013  49.909  1.00  0.00     0.017 C 
HETATM   10  C8  UNL     1      26.382   7.440  48.724  1.00  0.00     0.148 C 
HETATM   11  O1  UNL     1      26.180   6.356  49.611  1.00  0.00    -0.362 OA
HETATM   12  C9  UNL     1      26.012   5.095  48.998  1.00  0.00     0.178 C 
HETATM   13  C10 UNL     1      26.130   3.917  49.887  1.00  0.00     0.073 C 
HETATM   14  C11 UNL     1      25.171   3.777  51.006  1.00  0.00     0.185 C 
ENDROOT
BRANCH  14  15
HETATM   15  N4  UNL     1      25.418   2.579  51.718  1.00  0.00    -0.388 N 
HETATM   16  C12 UNL     1      24.966   2.498  53.058  1.00  0.00     0.145 C 
HETATM   17  C13 UNL     1      26.086   1.884  53.895  1.00  0.00     0.187 C 
HETATM   18  O2  UNL     1      26.426   0.636  53.443  1.00  0.00    -0.388 OA
HETATM   19  C14 UNL     1      26.371   0.452  52.084  1.00  0.00     0.187 C 
HETATM   20  C15 UNL     1      26.573   1.825  51.421  1.00  0.00     0.145 C 
ENDBRANCH  14  15
BRANCH   1  21
HETATM   21  C1  UNL     1      23.393   2.731  49.545  1.00  0.00     0.349 C 
HETATM   22  F1  UNL     1      23.114   3.461  48.378  1.00  0.00    -0.234 F 
ENDBRANCH   1  21
TORSDOF 2
ENDMDL
MODEL 5
REMARK VINA RESULT:      -6.4      3.092      5.039
REMARK  2 active torsions:
REMARK  status: ('A' for Active; 'I' for Inactive)
REMARK    1  A    between atoms: C1_2  and  N1_3 
REMARK    2  A    between atoms: C11_16  and  N4_17 
ROOT
HETATM    1  N1  UNL     1      24.217   3.094  51.664  1.00  0.00    -0.344 N 
HETATM    2  C2  UNL     1      25.335   2.789  50.849  1.00  0.00     0.091 C 
HETATM    3  C3  UNL     1      26.340   2.934  50.015  1.00  0.00     0.036 C 
HETATM    4  C4  UNL     1      26.806   4.120  49.350  1.00  0.00     0.119 C 
HETATM    5  N2  UNL     1      25.861   4.757  49.931  1.00  0.00    -0.254 NA
HETATM    6  C5  UNL     1      25.785   6.160  49.636  1.00  0.00     0.232 C 
HETATM    7  N3  UNL     1      24.909   5.885  48.710  1.00  0.00    -0.253 NA
HETATM    8  C6  UNL     1      24.384   6.998  47.962  1.00  0.00     0.132 C 
HETATM    9  C7  UNL     1      23.252   7.094  48.636  1.00  0.00     0.017 C 
HETATM   10  C8  UNL     1      23.395   7.591  49.849  1.00  0.00     0.148 C 
HETATM   11  O1  UNL     1      23.038   6.244  50.097  1.00  0.00    -0.362 OA
HETATM   12  C9  UNL     1      22.936   5.887  51.460  1.00  0.00     0.178 C 
HETATM   13  C10 UNL     1      22.254   4.604  51.748  1.00  0.00     0.073 C 
HETATM   14  C11 UNL     1      22.840   3.356  51.210  1.00  0.00     0.185 C 
ENDROOT
BRANCH  14  15
HETATM   15  N4  UNL     1      22.073   2.238  51.615  1.00  0.00    -0.388 N 
HETATM   16  C12 UNL     1      22.048   1.106  50.765  1.00  0.00     0.145 C 
HETATM   17  C13 UNL     1      20.602   0.623  50.669  1.00  0.00     0.187 C 
HETATM   18  O2  UNL     1      20.099   0.292  51.900  1.00  0.00    -0.388 OA
HETATM   19  C14 UNL     1      20.523   1.064  52.951  1.00  0.00     0.187 C 
HETATM   20  C15 UNL     1      20.910   2.443  52.389  1.00  0.00     0.145 C 
ENDBRANCH  14  15
BRANCH   1  21
HETATM   21  C1  UNL     1      24.480   3.128  53.118  1.00  0.00     0.349 C 
HETATM   22  F1  UNL     1      24.533   1.792  53.548  1.00  0.00    -0.234 F 
ENDBRANCH   1  21
TORSDOF 2
ENDMDL
MODEL 6
REMARK VINA RESULT:      -6.4      9.979     12.140
REMARK  2 active torsions:
REMARK  status: ('A' for Active; 'I' for Inactive)
REMARK    1  A    between atoms: C1_2  and  N1_3 
REMARK    2  A    between atoms: C11_16  and  N4_17 
ROOT
HETATM    1  N1  UNL     1      33.363   6.480  47.832  1.00  0.00    -0.344 N 
HETATM    2  C2  UNL     1      33.458   5.070  47.932  1.00  0.00     0.091 C 
HETATM    3  C3  UNL     1      33.695   3.816  47.617  1.00  0.00     0.036 C 
HETATM    4  C4  UNL     1      34.205   3.266  46.391  1.00  0.00     0.119 C 
HETATM    5  N2  UNL     1      34.253   4.460  45.934  1.00  0.00    -0.254 NA
HETATM    6  C5  UNL     1      34.736   4.591  44.589  1.00  0.00     0.232 C 
HETATM    7  N3  UNL     1      33.499   4.579  44.176  1.00  0.00    -0.253 NA
HETATM    8  C6  UNL     1      33.287   4.690  42.756  1.00  0.00     0.132 C 
HETATM    9  C7  UNL     1      32.998   5.978  42.761  1.00  0.00     0.017 C 
HETATM   10  C8  UNL     1      34.040   6.758  42.968  1.00  0.00     0.148 C 
HETATM   11  O1  UNL     1      33.279   6.925  44.149  1.00  0.00    -0.362 OA
HETATM   12  C9  UNL     1      33.822   7.820  45.097  1.00  0.00     0.178 C 
HETATM   13  C10 UNL     1      32.907   8.264  46.174  1.00  0.00     0.073 C 
HETATM   14  C11 UNL     1      32.346   7.246  47.089  1.00  0.00     0.185 C 
ENDROOT
BRANCH  14  15
HETATM   15  N4  UNL     1      31.527   7.860  48.066  1.00  0.00    -0.388 N 
HETATM   16  C12 UNL     1      30.414   7.132  48.553  1.00  0.00     0.145 C 
HETATM   17  C13 UNL     1      29.218   8.080  48.601  1.00  0.00     0.187 C 
HETATM   18  O2  UNL     1      29.461   9.157  49.413  1.00  0.00    -0.388 OA
HETATM   19  C14 UNL     1      30.746   9.634  49.412  1.00  0.00     0.187 C 
HETATM   20  C15 UNL     1      31.378   9.263  48.059  1.00  0.00     0.145 C 
ENDBRANCH  14  15
BRANCH   1  21
HETATM   21  C1  UNL     1      34.391   7.240  48.574  1.00  0.00     0.349 C 
HETATM   22  F1  UNL     1      35.635   6.706  48.198  1.00  0.00    -0.234 F 
ENDBRANCH   1  21
TORSDOF 2
ENDMDL
MODEL 7
REMARK VINA RESULT:      -6.1      8.607     10.434
REMARK  2 active torsions:
REMARK  status: ('A' for Active; 'I' for Inactive)
REMARK    1  A    between atoms: C1_2  and  N1_3 
REMARK    2  A    between atoms: C11_16  and  N4_17 
ROOT
HETATM    1  N1  UNL     1      32.363   7.416  47.683  1.00  0.00    -0.344 N 
HETATM    2  C2  UNL     1      32.315   8.831  47.631  1.00  0.00     0.091 C 
HETATM    3  C3  UNL     1      31.876  10.064  47.752  1.00  0.00     0.036 C 
HETATM    4  C4  UNL     1      30.615  10.535  48.254  1.00  0.00     0.119 C 
HETATM    5  N2  UNL     1      30.288   9.312  48.441  1.00  0.00    -0.254 NA
HETATM    6  C5  UNL     1      28.980   9.095  48.991  1.00  0.00     0.232 C 
HETATM    7  N3  UNL     1      28.531   8.935  47.777  1.00  0.00    -0.253 NA
HETATM    8  C6  UNL     1      27.126   8.658  47.635  1.00  0.00     0.132 C 
HETATM    9  C7  UNL     1      27.259   7.353  47.478  1.00  0.00     0.017 C 
HETATM   10  C8  UNL     1      27.579   6.713  48.584  1.00  0.00     0.148 C 
HETATM   11  O1  UNL     1      28.748   6.589  47.796  1.00  0.00    -0.362 OA
HETATM   12  C9  UNL     1      29.802   5.858  48.388  1.00  0.00     0.178 C 
HETATM   13  C10 UNL     1      30.891   5.433  47.478  1.00  0.00     0.073 C 
HETATM   14  C11 UNL     1      31.676   6.476  46.780  1.00  0.00     0.185 C 
ENDROOT
BRANCH  14  15
HETATM   15  N4  UNL     1      32.687   5.882  45.988  1.00  0.00    -0.388 N 
HETATM   16  C12 UNL     1      33.010   6.497  44.754  1.00  0.00     0.145 C 
HETATM   17  C13 UNL     1      33.131   5.398  43.700  1.00  0.00     0.187 C 
HETATM   18  O2  UNL     1      34.098   4.486  44.032  1.00  0.00    -0.388 OA
HETATM   19  C14 UNL     1      34.228   4.206  45.369  1.00  0.00     0.187 C 
HETATM   20  C15 UNL     1      32.870   4.484  46.036  1.00  0.00     0.145 C 
ENDBRANCH  14  15
BRANCH   1  21
HETATM   21  C1  UNL     1      33.212   6.848  48.751  1.00  0.00     0.349 C 
HETATM   22  F1  UNL     1      34.309   7.715  48.896  1.00  0.00    -0.234 F 
ENDBRANCH   1  21
TORSDOF 2
ENDMDL
MODEL 8
REMARK VINA RESULT:      -6.1      2.847      3.609
REMARK  2 active torsions:
REMARK  status: ('A' for Active; 'I' for Inactive)
REMARK    1  A    between atoms: C1_2  and  N1_3 
REMARK    2  A    between atoms: C11_16  and  N4_17 
ROOT
HETATM    1  N1  UNL     1      23.726   2.965  52.256  1.00  0.00    -0.344 N 
HETATM    2  C2  UNL     1      24.899   2.884  51.466  1.00  0.00     0.091 C 
HETATM    3  C3  UNL     1      25.755   3.088  50.489  1.00  0.00     0.036 C 
HETATM    4  C4  UNL     1      25.621   3.912  49.319  1.00  0.00     0.119 C 
HETATM    5  N2  UNL     1      24.450   4.222  49.732  1.00  0.00    -0.254 NA
HETATM    6  C5  UNL     1      23.715   5.127  48.895  1.00  0.00     0.232 C 
HETATM    7  N3  UNL     1      23.146   4.096  48.334  1.00  0.00    -0.253 NA
HETATM    8  C6  UNL     1      22.192   4.368  47.291  1.00  0.00     0.132 C 
HETATM    9  C7  UNL     1      21.118   4.220  48.047  1.00  0.00     0.017 C 
HETATM   10  C8  UNL     1      20.923   5.209  48.895  1.00  0.00     0.148 C 
HETATM   11  O1  UNL     1      21.256   4.126  49.742  1.00  0.00    -0.362 OA
HETATM   12  C9  UNL     1      21.256   4.415  51.124  1.00  0.00     0.178 C 
HETATM   13  C10 UNL     1      21.274   3.248  52.035  1.00  0.00     0.073 C 
HETATM   14  C11 UNL     1      22.429   2.324  51.977  1.00  0.00     0.185 C 
ENDROOT
BRANCH  14  15
HETATM   15  N4  UNL     1      22.284   1.295  52.939  1.00  0.00    -0.388 N 
HETATM   16  C12 UNL     1      23.234   0.245  52.935  1.00  0.00     0.145 C 
HETATM   17  C13 UNL     1      22.476  -1.073  53.086  1.00  0.00     0.187 C 
HETATM   18  O2  UNL     1      21.750  -1.106  54.248  1.00  0.00    -0.388 OA
HETATM   19  C14 UNL     1      21.194   0.084  54.645  1.00  0.00     0.187 C 
HETATM   20  C15 UNL     1      20.992   0.945  53.386  1.00  0.00     0.145 C 
ENDBRANCH  14  15
BRANCH   1  21
HETATM   21  C1  UNL     1      23.847   3.764  53.493  1.00  0.00     0.349 C 
HETATM   22  F1  UNL     1      23.798   5.114  53.106  1.00  0.00    -0.234 F 
ENDBRANCH   1  21
TORSDOF 2
ENDMDL
MODEL 9
REMARK VINA RESULT:      -6.0      2.979      6.154
REMARK  2 active torsions:
REMARK  status: ('A' for Active; 'I' for Inactive)
REMARK    1  A    between atoms: C1_2  and  N1_3 
REMARK    2  A    between atoms: C11_16  and  N4_17 
ROOT
HETATM    1  N1  UNL     1      22.473   3.027  50.665  1.00  0.00    -0.344 N 
HETATM    2  C2  UNL     1      23.762   2.719  51.165  1.00  0.00     0.091 C 
HETATM    3  C3  UNL     1      24.737   2.087  51.779  1.00  0.00     0.036 C 
HETATM    4  C4  UNL     1      24.703   0.848  52.507  1.00  0.00     0.119 C 
HETATM    5  N2  UNL     1      23.451   0.787  52.246  1.00  0.00    -0.254 NA
HETATM    6  C5  UNL     1      22.764  -0.360  52.766  1.00  0.00     0.232 C 
HETATM    7  N3  UNL     1      22.422   0.353  53.802  1.00  0.00    -0.253 NA
HETATM    8  C6  UNL     1      21.628  -0.303  54.809  1.00  0.00     0.132 C 
HETATM    9  C7  UNL     1      20.469   0.193  54.413  1.00  0.00     0.017 C 
HETATM   10  C8  UNL     1      20.020  -0.331  53.291  1.00  0.00     0.148 C 
HETATM   11  O1  UNL     1      20.335   0.997  52.917  1.00  0.00    -0.362 OA
HETATM   12  C9  UNL     1      20.071   1.324  51.568  1.00  0.00     0.178 C 
HETATM   13  C10 UNL     1      20.076   2.767  51.236  1.00  0.00     0.073 C 
HETATM   14  C11 UNL     1      21.325   3.535  51.436  1.00  0.00     0.185 C 
ENDROOT
BRANCH  14  15
HETATM   15  N4  UNL     1      21.146   4.880  51.033  1.00  0.00    -0.388 N 
HETATM   16  C12 UNL     1      20.079   5.172  50.148  1.00  0.00     0.145 C 
HETATM   17  C13 UNL     1      20.609   6.117  49.071  1.00  0.00     0.187 C 
HETATM   18  O2  UNL     1      21.094   7.278  49.614  1.00  0.00    -0.388 OA
HETATM   19  C14 UNL     1      21.723   7.158  50.827  1.00  0.00     0.187 C 
HETATM   20  C15 UNL     1      22.271   5.724  50.927  1.00  0.00     0.145 C 
ENDBRANCH  14  15
BRANCH   1  21
HETATM   21  C1  UNL     1      22.292   2.827  49.211  1.00  0.00     0.349 C 
HETATM   22  F1  UNL     1      22.325   1.440  48.989  1.00  0.00    -0.234 F 
ENDBRANCH   1  21
TORSDOF 2
ENDMDL
