MODEL 1
REMARK VINA RESULT:      -8.2      0.000      0.000
REMARK  4 active torsions:
REMARK  status: ('A' for Active; 'I' for Inactive)
REMARK    1  A    between atoms: O1_2  and  C2_3 
REMARK    2  A    between atoms: C6_7  and  C7_8 
REMARK       I    between atoms: C7_8  and  N1_10 
REMARK    3  A    between atoms: N1_10  and  C8_11 
REMARK    4  A    between atoms: C14_17  and  S1_18 
ROOT
HETATM    1  C2  UNL     1      20.135  -0.588  53.527  1.00  0.00     0.070 A 
HETATM    2  C3  UNL     1      21.250  -1.320  53.881  1.00  0.00     0.038 A 
HETATM    3  C4  UNL     1      22.495  -0.771  53.660  1.00  0.00     0.017 A 
HETATM    4  C5  UNL     1      22.712   0.467  53.105  1.00  0.00     0.009 A 
HETATM    5  C6  UNL     1      23.775   1.275  52.762  1.00  0.00     0.079 A 
HETATM    6  C14 UNL     1      23.210   2.414  52.236  1.00  0.00     0.104 A 
HETATM    7  N2  UNL     1      21.871   2.362  52.231  1.00  0.00    -0.343 N 
HETATM    8  C15 UNL     1      20.956   3.386  51.748  1.00  0.00     0.157 C 
HETATM    9  C16 UNL     1      21.551   1.171  52.763  1.00  0.00     0.049 A 
HETATM   10  C17 UNL     1      20.273   0.661  52.965  1.00  0.00     0.067 A 
ENDROOT
BRANCH   5  11
HETATM   11  C7  UNL     1      25.151   0.858  52.981  1.00  0.00     0.260 C 
HETATM   12  O2  UNL     1      25.549   0.720  54.167  1.00  0.00    -0.267 OA
HETATM   13  N1  UNL     1      26.135   0.577  52.011  1.00  0.00    -0.323 N 
HETATM   14  H6  UNL     1      25.859   0.675  51.010  1.00  0.00     0.169 HD
BRANCH  13  15
HETATM   15  C8  UNL     1      27.355   0.199  52.647  1.00  0.00     0.035 A 
HETATM   16  C9  UNL     1      27.550  -1.179  52.720  1.00  0.00     0.029 A 
HETATM   17  C10 UNL     1      28.700  -1.637  53.316  1.00  0.00     0.002 A 
HETATM   18  C11 UNL     1      29.651  -0.773  53.836  1.00  0.00     0.000 A 
HETATM   19  C12 UNL     1      29.451   0.593  53.760  1.00  0.00     0.002 A 
HETATM   20  C13 UNL     1      28.294   1.074  53.160  1.00  0.00     0.029 A 
ENDBRANCH  13  15
ENDBRANCH   5  11
BRANCH   6  21
HETATM   21  S1  UNL     1      24.138   3.791  51.634  1.00  0.00     0.000 SA
HETATM   22 CL1  UNL     1      25.110   3.423  49.843  1.00  0.00    -0.037 Cl
ENDBRANCH   6  21
BRANCH   1  23
HETATM   23  O1  UNL     1      18.893  -1.186  53.769  1.00  0.00    -0.356 OA
HETATM   24  C1  UNL     1      17.888  -0.974  52.794  1.00  0.00     0.210 C 
ENDBRANCH   1  23
TORSDOF 4
ENDMDL
MODEL 2
REMARK VINA RESULT:      -7.9      1.919      6.884
REMARK  4 active torsions:
REMARK  status: ('A' for Active; 'I' for Inactive)
REMARK    1  A    between atoms: O1_2  and  C2_3 
REMARK    2  A    between atoms: C6_7  and  C7_8 
REMARK       I    between atoms: C7_8  and  N1_10 
REMARK    3  A    between atoms: N1_10  and  C8_11 
REMARK    4  A    between atoms: C14_17  and  S1_18 
ROOT
HETATM    1  C2  UNL     1      26.576   0.025  54.184  1.00  0.00     0.070 A 
HETATM    2  C3  UNL     1      25.395  -0.603  54.520  1.00  0.00     0.038 A 
HETATM    3  C4  UNL     1      24.256  -0.282  53.813  1.00  0.00     0.017 A 
HETATM    4  C5  UNL     1      24.208   0.629  52.785  1.00  0.00     0.009 A 
HETATM    5  C6  UNL     1      23.281   1.157  51.913  1.00  0.00     0.079 A 
HETATM    6  C14 UNL     1      23.982   2.050  51.135  1.00  0.00     0.104 A 
HETATM    7  N2  UNL     1      25.277   2.107  51.469  1.00  0.00    -0.343 N 
HETATM    8  C15 UNL     1      26.304   2.941  50.859  1.00  0.00     0.157 C 
HETATM    9  C16 UNL     1      25.432   1.239  52.482  1.00  0.00     0.049 A 
HETATM   10  C17 UNL     1      26.608   0.950  53.166  1.00  0.00     0.067 A 
ENDROOT
BRANCH   5  11
HETATM   11  C7  UNL     1      21.886   0.745  51.941  1.00  0.00     0.260 C 
HETATM   12  O2  UNL     1      21.499  -0.102  51.094  1.00  0.00    -0.267 OA
HETATM   13  N1  UNL     1      20.873   1.179  52.820  1.00  0.00    -0.323 N 
HETATM   14  H6  UNL     1      21.138   1.882  53.543  1.00  0.00     0.169 HD
BRANCH  13  15
HETATM   15  C8  UNL     1      19.642   0.527  52.510  1.00  0.00     0.035 A 
HETATM   16  C9  UNL     1      19.369  -0.576  53.317  1.00  0.00     0.029 A 
HETATM   17  C10 UNL     1      18.205  -1.268  53.092  1.00  0.00     0.002 A 
HETATM   18  C11 UNL     1      17.313  -0.899  52.097  1.00  0.00     0.000 A 
HETATM   19  C12 UNL     1      17.590   0.196  51.299  1.00  0.00     0.002 A 
HETATM   20  C13 UNL     1      18.764   0.908  51.513  1.00  0.00     0.029 A 
ENDBRANCH  13  15
ENDBRANCH   5  11
BRANCH   6  21
HETATM   21  S1  UNL     1      23.260   3.013  49.841  1.00  0.00     0.000 SA
HETATM   22 CL1  UNL     1      22.264   1.885  48.417  1.00  0.00    -0.037 Cl
ENDBRANCH   6  21
BRANCH   1  23
HETATM   23  O1  UNL     1      27.706  -0.331  54.930  1.00  0.00    -0.356 OA
HETATM   24  C1  UNL     1      28.934   0.256  54.537  1.00  0.00     0.210 C 
ENDBRANCH   1  23
TORSDOF 4
ENDMDL
MODEL 3
REMARK VINA RESULT:      -7.6      3.578      6.756
REMARK  4 active torsions:
REMARK  status: ('A' for Active; 'I' for Inactive)
REMARK    1  A    between atoms: O1_2  and  C2_3 
REMARK    2  A    between atoms: C6_7  and  C7_8 
REMARK       I    between atoms: C7_8  and  N1_10 
REMARK    3  A    between atoms: N1_10  and  C8_11 
REMARK    4  A    between atoms: C14_17  and  S1_18 
ROOT
HETATM    1  C2  UNL     1      27.566   0.093  53.728  1.00  0.00     0.070 A 
HETATM    2  C3  UNL     1      28.051   1.184  53.039  1.00  0.00     0.038 A 
HETATM    3  C4  UNL     1      27.170   1.934  52.289  1.00  0.00     0.017 A 
HETATM    4  C5  UNL     1      25.825   1.671  52.176  1.00  0.00     0.009 A 
HETATM    5  C6  UNL     1      24.719   2.194  51.541  1.00  0.00     0.079 A 
HETATM    6  C14 UNL     1      23.674   1.376  51.902  1.00  0.00     0.104 A 
HETATM    7  N2  UNL     1      24.060   0.386  52.716  1.00  0.00    -0.343 N 
HETATM    8  C15 UNL     1      23.221  -0.658  53.288  1.00  0.00     0.157 C 
HETATM    9  C16 UNL     1      25.381   0.554  52.893  1.00  0.00     0.049 A 
HETATM   10  C17 UNL     1      26.230  -0.234  53.664  1.00  0.00     0.067 A 
ENDROOT
BRANCH   5  11
HETATM   11  C7  UNL     1      24.812   3.375  50.697  1.00  0.00     0.260 C 
HETATM   12  O2  UNL     1      24.778   3.218  49.449  1.00  0.00    -0.267 OA
HETATM   13  N1  UNL     1      24.941   4.719  51.101  1.00  0.00    -0.323 N 
HETATM   14  H6  UNL     1      24.975   4.908  52.126  1.00  0.00     0.169 HD
BRANCH  13  15
HETATM   15  C8  UNL     1      24.998   5.572  49.958  1.00  0.00     0.035 A 
HETATM   16  C9  UNL     1      23.753   6.033  49.535  1.00  0.00     0.029 A 
HETATM   17  C10 UNL     1      23.710   6.860  48.440  1.00  0.00     0.002 A 
HETATM   18  C11 UNL     1      24.858   7.239  47.761  1.00  0.00     0.000 A 
HETATM   19  C12 UNL     1      26.089   6.777  48.185  1.00  0.00     0.002 A 
HETATM   20  C13 UNL     1      26.152   5.939  49.292  1.00  0.00     0.029 A 
ENDBRANCH  13  15
ENDBRANCH   5  11
BRANCH   6  21
HETATM   21  S1  UNL     1      22.008   1.602  51.358  1.00  0.00     0.000 SA
HETATM   22 CL1  UNL     1      21.694   1.058  49.385  1.00  0.00    -0.037 Cl
ENDBRANCH   6  21
BRANCH   1  23
HETATM   23  O1  UNL     1      28.497  -0.639  54.475  1.00  0.00    -0.356 OA
HETATM   24  C1  UNL     1      29.734  -0.919  53.844  1.00  0.00     0.210 C 
ENDBRANCH   1  23
TORSDOF 4
ENDMDL
MODEL 4
REMARK VINA RESULT:      -7.5      3.166      6.777
REMARK  4 active torsions:
REMARK  status: ('A' for Active; 'I' for Inactive)
REMARK    1  A    between atoms: O1_2  and  C2_3 
REMARK    2  A    between atoms: C6_7  and  C7_8 
REMARK       I    between atoms: C7_8  and  N1_10 
REMARK    3  A    between atoms: N1_10  and  C8_11 
REMARK    4  A    between atoms: C14_17  and  S1_18 
ROOT
HETATM    1  C2  UNL     1      26.478   0.325  54.258  1.00  0.00     0.070 A 
HETATM    2  C3  UNL     1      26.784   1.624  53.911  1.00  0.00     0.038 A 
HETATM    3  C4  UNL     1      25.829   2.374  53.260  1.00  0.00     0.017 A 
HETATM    4  C5  UNL     1      24.576   1.918  52.925  1.00  0.00     0.009 A 
HETATM    5  C6  UNL     1      23.437   2.383  52.303  1.00  0.00     0.079 A 
HETATM    6  C14 UNL     1      22.553   1.330  52.331  1.00  0.00     0.104 A 
HETATM    7  N2  UNL     1      23.069   0.248  52.927  1.00  0.00    -0.343 N 
HETATM    8  C15 UNL     1      22.415  -1.038  53.129  1.00  0.00     0.157 C 
HETATM    9  C16 UNL     1      24.313   0.594  53.298  1.00  0.00     0.049 A 
HETATM   10  C17 UNL     1      25.243  -0.203  53.956  1.00  0.00     0.067 A 
ENDROOT
BRANCH   5  11
HETATM   11  C7  UNL     1      23.354   3.739  51.782  1.00  0.00     0.260 C 
HETATM   12  O2  UNL     1      23.485   3.907  50.541  1.00  0.00    -0.267 OA
HETATM   13  N1  UNL     1      23.139   4.931  52.502  1.00  0.00    -0.323 N 
HETATM   14  H6  UNL     1      23.023   4.850  53.535  1.00  0.00     0.169 HD
BRANCH  13  15
HETATM   15  C8  UNL     1      23.125   6.046  51.610  1.00  0.00     0.035 A 
HETATM   16  C9  UNL     1      21.860   6.357  51.116  1.00  0.00     0.029 A 
HETATM   17  C10 UNL     1      21.749   7.417  50.249  1.00  0.00     0.002 A 
HETATM   18  C11 UNL     1      22.848   8.168  49.865  1.00  0.00     0.000 A 
HETATM   19  C12 UNL     1      24.100   7.854  50.359  1.00  0.00     0.002 A 
HETATM   20  C13 UNL     1      24.231   6.785  51.238  1.00  0.00     0.029 A 
ENDBRANCH  13  15
ENDBRANCH   5  11
BRANCH   6  21
HETATM   21  S1  UNL     1      20.920   1.392  51.658  1.00  0.00     0.000 SA
HETATM   22 CL1  UNL     1      20.838   0.989  49.628  1.00  0.00    -0.037 Cl
ENDBRANCH   6  21
BRANCH   1  23
HETATM   23  O1  UNL     1      27.479  -0.398  54.916  1.00  0.00    -0.356 OA
HETATM   24  C1  UNL     1      28.817  -0.036  54.625  1.00  0.00     0.210 C 
ENDBRANCH   1  23
TORSDOF 4
ENDMDL
MODEL 5
REMARK VINA RESULT:      -7.5      2.869      4.277
REMARK  4 active torsions:
REMARK  status: ('A' for Active; 'I' for Inactive)
REMARK    1  A    between atoms: O1_2  and  C2_3 
REMARK    2  A    between atoms: C6_7  and  C7_8 
REMARK       I    between atoms: C7_8  and  N1_10 
REMARK    3  A    between atoms: N1_10  and  C8_11 
REMARK    4  A    between atoms: C14_17  and  S1_18 
ROOT
HETATM    1  C2  UNL     1      22.415   5.100  51.428  1.00  0.00     0.070 A 
HETATM    2  C3  UNL     1      23.786   5.007  51.540  1.00  0.00     0.038 A 
HETATM    3  C4  UNL     1      24.336   3.797  51.909  1.00  0.00     0.017 A 
HETATM    4  C5  UNL     1      23.609   2.662  52.177  1.00  0.00     0.009 A 
HETATM    5  C6  UNL     1      23.833   1.355  52.554  1.00  0.00     0.079 A 
HETATM    6  C14 UNL     1      22.585   0.782  52.634  1.00  0.00     0.104 A 
HETATM    7  N2  UNL     1      21.608   1.646  52.333  1.00  0.00    -0.343 N 
HETATM    8  C15 UNL     1      20.176   1.381  52.318  1.00  0.00     0.157 C 
HETATM    9  C16 UNL     1      22.222   2.807  52.051  1.00  0.00     0.049 A 
HETATM   10  C17 UNL     1      21.620   4.006  51.682  1.00  0.00     0.067 A 
ENDROOT
BRANCH   5  11
HETATM   11  C7  UNL     1      25.178   0.847  52.778  1.00  0.00     0.260 C 
HETATM   12  O2  UNL     1      25.915   0.656  51.776  1.00  0.00    -0.267 OA
HETATM   13  N1  UNL     1      25.789   0.527  54.007  1.00  0.00    -0.323 N 
HETATM   14  H6  UNL     1      25.222   0.666  54.871  1.00  0.00     0.169 HD
BRANCH  13  15
HETATM   15  C8  UNL     1      27.119   0.059  53.786  1.00  0.00     0.035 A 
HETATM   16  C9  UNL     1      28.106   0.971  54.156  1.00  0.00     0.029 A 
HETATM   17  C10 UNL     1      29.418   0.607  53.980  1.00  0.00     0.002 A 
HETATM   18  C11 UNL     1      29.774  -0.624  53.452  1.00  0.00     0.000 A 
HETATM   19  C12 UNL     1      28.789  -1.523  53.087  1.00  0.00     0.002 A 
HETATM   20  C13 UNL     1      27.456  -1.173  53.259  1.00  0.00     0.029 A 
ENDBRANCH  13  15
ENDBRANCH   5  11
BRANCH   6  21
HETATM   21  S1  UNL     1      22.298  -0.903  53.082  1.00  0.00     0.000 SA
HETATM   22 CL1  UNL     1      21.480  -1.137  54.970  1.00  0.00    -0.037 Cl
ENDBRANCH   6  21
BRANCH   1  23
HETATM   23  O1  UNL     1      21.903   6.347  51.052  1.00  0.00    -0.356 OA
HETATM   24  C1  UNL     1      20.829   6.337  50.127  1.00  0.00     0.210 C 
ENDBRANCH   1  23
TORSDOF 4
ENDMDL
MODEL 6
REMARK VINA RESULT:      -7.5      3.045      6.817
REMARK  4 active torsions:
REMARK  status: ('A' for Active; 'I' for Inactive)
REMARK    1  A    between atoms: O1_2  and  C2_3 
REMARK    2  A    between atoms: C6_7  and  C7_8 
REMARK       I    between atoms: C7_8  and  N1_10 
REMARK    3  A    between atoms: N1_10  and  C8_11 
REMARK    4  A    between atoms: C14_17  and  S1_18 
ROOT
HETATM    1  C2  UNL     1      26.856  -0.516  53.420  1.00  0.00     0.070 A 
HETATM    2  C3  UNL     1      26.951   0.400  52.393  1.00  0.00     0.038 A 
HETATM    3  C4  UNL     1      25.796   1.002  51.940  1.00  0.00     0.017 A 
HETATM    4  C5  UNL     1      24.541   0.755  52.442  1.00  0.00     0.009 A 
HETATM    5  C6  UNL     1      23.242   1.163  52.227  1.00  0.00     0.079 A 
HETATM    6  C14 UNL     1      22.486   0.462  53.139  1.00  0.00     0.104 A 
HETATM    7  N2  UNL     1      23.231  -0.350  53.899  1.00  0.00    -0.343 N 
HETATM    8  C15 UNL     1      22.763  -1.235  54.957  1.00  0.00     0.157 C 
HETATM    9  C16 UNL     1      24.497  -0.182  53.482  1.00  0.00     0.049 A 
HETATM   10  C17 UNL     1      25.633  -0.817  53.974  1.00  0.00     0.067 A 
ENDROOT
BRANCH   5  11
HETATM   11  C7  UNL     1      22.911   2.145  51.207  1.00  0.00     0.260 C 
HETATM   12  O2  UNL     1      22.667   1.733  50.042  1.00  0.00    -0.267 OA
HETATM   13  N1  UNL     1      22.822   3.545  51.348  1.00  0.00    -0.323 N 
HETATM   14  H6  UNL     1      23.015   3.941  52.293  1.00  0.00     0.169 HD
BRANCH  13  15
HETATM   15  C8  UNL     1      22.470   4.142  50.101  1.00  0.00     0.035 A 
HETATM   16  C9  UNL     1      23.563   4.587  49.360  1.00  0.00     0.029 A 
HETATM   17  C10 UNL     1      23.320   5.177  48.143  1.00  0.00     0.002 A 
HETATM   18  C11 UNL     1      22.036   5.335  47.648  1.00  0.00     0.000 A 
HETATM   19  C12 UNL     1      20.956   4.892  48.389  1.00  0.00     0.002 A 
HETATM   20  C13 UNL     1      21.182   4.292  49.622  1.00  0.00     0.029 A 
ENDBRANCH  13  15
ENDBRANCH   5  11
BRANCH   6  21
HETATM   21  S1  UNL     1      20.733   0.613  53.293  1.00  0.00     0.000 SA
HETATM   22 CL1  UNL     1      19.705   0.239  51.534  1.00  0.00    -0.037 Cl
ENDBRANCH   6  21
BRANCH   1  23
HETATM   23  O1  UNL     1      28.053  -1.102  53.846  1.00  0.00    -0.356 OA
HETATM   24  C1  UNL     1      29.051  -0.221  54.334  1.00  0.00     0.210 C 
ENDBRANCH   1  23
TORSDOF 4
ENDMDL
MODEL 7
REMARK VINA RESULT:      -7.5      3.071      7.371
REMARK  4 active torsions:
REMARK  status: ('A' for Active; 'I' for Inactive)
REMARK    1  A    between atoms: O1_2  and  C2_3 
REMARK    2  A    between atoms: C6_7  and  C7_8 
REMARK       I    between atoms: C7_8  and  N1_10 
REMARK    3  A    between atoms: N1_10  and  C8_11 
REMARK    4  A    between atoms: C14_17  and  S1_18 
ROOT
HETATM    1  C2  UNL     1      26.322   3.187  50.348  1.00  0.00     0.070 A 
HETATM    2  C3  UNL     1      24.996   3.147  49.971  1.00  0.00     0.038 A 
HETATM    3  C4  UNL     1      24.135   2.338  50.681  1.00  0.00     0.017 A 
HETATM    4  C5  UNL     1      24.503   1.558  51.751  1.00  0.00     0.009 A 
HETATM    5  C6  UNL     1      23.922   0.677  52.637  1.00  0.00     0.079 A 
HETATM    6  C14 UNL     1      24.943   0.268  53.464  1.00  0.00     0.104 A 
HETATM    7  N2  UNL     1      26.113   0.837  53.147  1.00  0.00    -0.343 N 
HETATM    8  C15 UNL     1      27.395   0.633  53.806  1.00  0.00     0.157 C 
HETATM    9  C16 UNL     1      25.858   1.633  52.095  1.00  0.00     0.049 A 
HETATM   10  C17 UNL     1      26.767   2.433  51.410  1.00  0.00     0.067 A 
ENDROOT
BRANCH   5  11
HETATM   11  C7  UNL     1      22.505   0.356  52.574  1.00  0.00     0.260 C 
HETATM   12  O2  UNL     1      22.167  -0.749  52.075  1.00  0.00    -0.267 OA
HETATM   13  N1  UNL     1      21.419   1.142  53.011  1.00  0.00    -0.323 N 
HETATM   14  H6  UNL     1      21.641   2.069  53.434  1.00  0.00     0.169 HD
BRANCH  13  15
HETATM   15  C8  UNL     1      20.190   0.459  52.767  1.00  0.00     0.035 A 
HETATM   16  C9  UNL     1      19.546   0.858  51.597  1.00  0.00     0.029 A 
HETATM   17  C10 UNL     1      18.354   0.254  51.279  1.00  0.00     0.002 A 
HETATM   18  C11 UNL     1      17.790  -0.724  52.081  1.00  0.00     0.000 A 
HETATM   19  C12 UNL     1      18.434  -1.115  53.241  1.00  0.00     0.002 A 
HETATM   20  C13 UNL     1      19.641  -0.516  53.578  1.00  0.00     0.029 A 
ENDBRANCH  13  15
ENDBRANCH   5  11
BRANCH   6  21
HETATM   21  S1  UNL     1      24.740  -0.876  54.794  1.00  0.00     0.000 SA
HETATM   22 CL1  UNL     1      22.768  -1.155  55.362  1.00  0.00    -0.037 Cl
ENDBRANCH   6  21
BRANCH   1  23
HETATM   23  O1  UNL     1      27.159   4.022  49.599  1.00  0.00    -0.356 OA
HETATM   24  C1  UNL     1      26.551   5.148  48.991  1.00  0.00     0.210 C 
ENDBRANCH   1  23
TORSDOF 4
ENDMDL
MODEL 8
REMARK VINA RESULT:      -7.3      3.273      4.401
REMARK  4 active torsions:
REMARK  status: ('A' for Active; 'I' for Inactive)
REMARK    1  A    between atoms: O1_2  and  C2_3 
REMARK    2  A    between atoms: C6_7  and  C7_8 
REMARK       I    between atoms: C7_8  and  N1_10 
REMARK    3  A    between atoms: N1_10  and  C8_11 
REMARK    4  A    between atoms: C14_17  and  S1_18 
ROOT
HETATM    1  C2  UNL     1      21.995   3.448  48.503  1.00  0.00     0.070 A 
HETATM    2  C3  UNL     1      23.318   3.727  48.778  1.00  0.00     0.038 A 
HETATM    3  C4  UNL     1      23.927   3.064  49.822  1.00  0.00     0.017 A 
HETATM    4  C5  UNL     1      23.306   2.133  50.621  1.00  0.00     0.009 A 
HETATM    5  C6  UNL     1      23.609   1.326  51.696  1.00  0.00     0.079 A 
HETATM    6  C14 UNL     1      22.450   0.637  51.970  1.00  0.00     0.104 A 
HETATM    7  N2  UNL     1      21.454   0.966  51.138  1.00  0.00    -0.343 N 
HETATM    8  C15 UNL     1      20.097   0.437  51.142  1.00  0.00     0.157 C 
HETATM    9  C16 UNL     1      21.965   1.885  50.303  1.00  0.00     0.049 A 
HETATM   10  C17 UNL     1      21.306   2.528  49.260  1.00  0.00     0.067 A 
ENDROOT
BRANCH   5  11
HETATM   11  C7  UNL     1      24.934   1.322  52.296  1.00  0.00     0.260 C 
HETATM   12  O2  UNL     1      25.068   1.827  53.442  1.00  0.00    -0.267 OA
HETATM   13  N1  UNL     1      26.130   0.813  51.752  1.00  0.00    -0.323 N 
HETATM   14  H6  UNL     1      26.077   0.383  50.803  1.00  0.00     0.169 HD
BRANCH  13  15
HETATM   15  C8  UNL     1      27.208   1.009  52.667  1.00  0.00     0.035 A 
HETATM   16  C9  UNL     1      27.598  -0.151  53.335  1.00  0.00     0.029 A 
HETATM   17  C10 UNL     1      28.629  -0.059  54.237  1.00  0.00     0.002 A 
HETATM   18  C11 UNL     1      29.277   1.139  54.491  1.00  0.00     0.000 A 
HETATM   19  C12 UNL     1      28.884   2.285  53.826  1.00  0.00     0.002 A 
HETATM   20  C13 UNL     1      27.843   2.212  52.909  1.00  0.00     0.029 A 
ENDBRANCH  13  15
ENDBRANCH   5  11
BRANCH   6  21
HETATM   21  S1  UNL     1      22.289  -0.547  53.271  1.00  0.00     0.000 SA
HETATM   22 CL1  UNL     1      21.091   0.090  54.836  1.00  0.00    -0.037 Cl
ENDBRANCH   6  21
BRANCH   1  23
HETATM   23  O1  UNL     1      21.419   4.146  47.435  1.00  0.00    -0.356 OA
HETATM   24  C1  UNL     1      22.186   5.200  46.881  1.00  0.00     0.210 C 
ENDBRANCH   1  23
TORSDOF 4
ENDMDL
MODEL 9
REMARK VINA RESULT:      -7.3      5.187      7.504
REMARK  4 active torsions:
REMARK  status: ('A' for Active; 'I' for Inactive)
REMARK    1  A    between atoms: O1_2  and  C2_3 
REMARK    2  A    between atoms: C6_7  and  C7_8 
REMARK       I    between atoms: C7_8  and  N1_10 
REMARK    3  A    between atoms: N1_10  and  C8_11 
REMARK    4  A    between atoms: C14_17  and  S1_18 
ROOT
HETATM    1  C2  UNL     1      27.956   6.723  47.715  1.00  0.00     0.070 A 
HETATM    2  C3  UNL     1      28.390   5.537  48.269  1.00  0.00     0.038 A 
HETATM    3  C4  UNL     1      27.513   4.816  49.050  1.00  0.00     0.017 A 
HETATM    4  C5  UNL     1      26.219   5.194  49.321  1.00  0.00     0.009 A 
HETATM    5  C6  UNL     1      25.132   4.729  50.028  1.00  0.00     0.079 A 
HETATM    6  C14 UNL     1      24.146   5.669  49.837  1.00  0.00     0.104 A 
HETATM    7  N2  UNL     1      24.552   6.682  49.061  1.00  0.00    -0.343 N 
HETATM    8  C15 UNL     1      23.773   7.844  48.657  1.00  0.00     0.157 C 
HETATM    9  C16 UNL     1      25.826   6.404  48.736  1.00  0.00     0.049 A 
HETATM   10  C17 UNL     1      26.673   7.169  47.941  1.00  0.00     0.067 A 
ENDROOT
BRANCH   5  11
HETATM   11  C7  UNL     1      25.183   3.479  50.769  1.00  0.00     0.260 C 
HETATM   12  O2  UNL     1      24.449   2.530  50.387  1.00  0.00    -0.267 OA
HETATM   13  N1  UNL     1      25.971   3.173  51.898  1.00  0.00    -0.323 N 
HETATM   14  H6  UNL     1      26.599   3.924  52.258  1.00  0.00     0.169 HD
BRANCH  13  15
HETATM   15  C8  UNL     1      25.723   1.833  52.321  1.00  0.00     0.035 A 
HETATM   16  C9  UNL     1      26.682   0.919  51.889  1.00  0.00     0.029 A 
HETATM   17  C10 UNL     1      26.526  -0.398  52.249  1.00  0.00     0.002 A 
HETATM   18  C11 UNL     1      25.455  -0.826  53.017  1.00  0.00     0.000 A 
HETATM   19  C12 UNL     1      24.507   0.086  53.440  1.00  0.00     0.002 A 
HETATM   20  C13 UNL     1      24.649   1.422  53.087  1.00  0.00     0.029 A 
ENDBRANCH  13  15
ENDBRANCH   5  11
BRANCH   6  21
HETATM   21  S1  UNL     1      22.526   5.558  50.533  1.00  0.00     0.000 SA
HETATM   22 CL1  UNL     1      22.500   4.844  52.477  1.00  0.00    -0.037 Cl
ENDBRANCH   6  21
BRANCH   1  23
HETATM   23  O1  UNL     1      28.881   7.421  46.931  1.00  0.00    -0.356 OA
HETATM   24  C1  UNL     1      29.349   8.653  47.451  1.00  0.00     0.210 C 
ENDBRANCH   1  23
TORSDOF 4
ENDMDL
