MODEL 1
REMARK VINA RESULT:      -7.5      0.000      0.000
REMARK  6 active torsions:
REMARK  status: ('A' for Active; 'I' for Inactive)
REMARK    1  A    between atoms: C5_5  and  N1_6 
REMARK    2  A    between atoms: N1_6  and  C6_7 
REMARK    3  A    between atoms: C6_7  and  C7_8 
REMARK    4  A    between atoms: C7_8  and  C8_10 
REMARK    5  A    between atoms: C8_10  and  C9_11 
REMARK    6  A    between atoms: C13_16  and  O3_17 
ROOT
HETATM    1  C6  UNL     1      25.243   2.877  52.091  1.00  0.00     0.197 C 
ENDROOT
BRANCH   1   2
HETATM    2  N1  UNL     1      24.173   2.501  52.994  1.00  0.00    -0.391 N 
HETATM    3  H6  UNL     1      24.387   2.428  53.994  1.00  0.00     0.159 HD
BRANCH   2   4
HETATM    4  C5  UNL     1      22.921   2.277  52.377  1.00  0.00     0.094 C 
HETATM    5  C4  UNL     1      22.248   1.241  52.791  1.00  0.00    -0.021 A 
HETATM    6  C3  UNL     1      22.739   0.344  53.832  1.00  0.00     0.015 A 
HETATM    7  C14 UNL     1      20.931   0.787  52.296  1.00  0.00     0.009 A 
HETATM    8  C2  UNL     1      22.306  -0.744  54.427  1.00  0.00    -0.080 A 
HETATM    9  C1  UNL     1      23.033  -1.469  55.482  1.00  0.00     0.043 C 
HETATM   10  C16 UNL     1      20.981  -1.177  53.904  1.00  0.00     0.061 A 
HETATM   11  C15 UNL     1      20.480  -0.288  52.865  1.00  0.00    -0.021 A 
ENDBRANCH   2   4
ENDBRANCH   1   2
BRANCH   1  12
HETATM   12  C7  UNL     1      26.172   1.727  51.905  1.00  0.00     0.145 C 
HETATM   13  O1  UNL     1      27.280   2.249  51.695  1.00  0.00    -0.296 OA
BRANCH  12  14
HETATM   14  C8  UNL     1      26.041   0.234  51.922  1.00  0.00     0.093 C 
BRANCH  14  15
HETATM   15  C9  UNL     1      26.422  -0.406  53.209  1.00  0.00     0.070 C 
HETATM   16  C10 UNL     1      27.844  -0.903  53.016  1.00  0.00    -0.019 C 
HETATM   17  C11 UNL     1      28.907  -0.622  53.782  1.00  0.00    -0.004 C 
HETATM   18  C12 UNL     1      28.687   0.263  54.943  1.00  0.00     0.198 C 
HETATM   19  O2  UNL     1      27.656   1.137  54.586  1.00  0.00    -0.357 OA
HETATM   20  C13 UNL     1      26.439   0.436  54.424  1.00  0.00     0.265 C 
BRANCH  20  21
HETATM   21  O3  UNL     1      26.432  -0.466  55.526  1.00  0.00    -0.371 OA
HETATM   22  H17 UNL     1      27.352  -0.802  55.723  1.00  0.00     0.212 HD
ENDBRANCH  20  21
ENDBRANCH  14  15
ENDBRANCH  12  14
ENDBRANCH   1  12
TORSDOF 6
ENDMDL
MODEL 2
REMARK VINA RESULT:      -7.3      1.596      2.159
REMARK  6 active torsions:
REMARK  status: ('A' for Active; 'I' for Inactive)
REMARK    1  A    between atoms: C5_5  and  N1_6 
REMARK    2  A    between atoms: N1_6  and  C6_7 
REMARK    3  A    between atoms: C6_7  and  C7_8 
REMARK    4  A    between atoms: C7_8  and  C8_10 
REMARK    5  A    between atoms: C8_10  and  C9_11 
REMARK    6  A    between atoms: C13_16  and  O3_17 
ROOT
HETATM    1  C6  UNL     1      24.988   3.614  50.672  1.00  0.00     0.197 C 
ENDROOT
BRANCH   1   2
HETATM    2  N1  UNL     1      24.400   3.915  51.962  1.00  0.00    -0.391 N 
HETATM    3  H6  UNL     1      25.023   3.981  52.775  1.00  0.00     0.159 HD
BRANCH   2   4
HETATM    4  C5  UNL     1      22.998   4.092  51.953  1.00  0.00     0.094 C 
HETATM    5  C4  UNL     1      22.281   3.067  52.317  1.00  0.00    -0.021 A 
HETATM    6  C3  UNL     1      22.870   1.792  52.716  1.00  0.00     0.015 A 
HETATM    7  C14 UNL     1      20.805   2.996  52.377  1.00  0.00     0.009 A 
HETATM    8  C2  UNL     1      22.420   0.622  53.107  1.00  0.00    -0.080 A 
HETATM    9  C1  UNL     1      23.270  -0.528  53.458  1.00  0.00     0.043 C 
HETATM   10  C16 UNL     1      20.933   0.582  53.152  1.00  0.00     0.061 A 
HETATM   11  C15 UNL     1      20.334   1.849  52.758  1.00  0.00    -0.021 A 
ENDBRANCH   2   4
ENDBRANCH   1   2
BRANCH   1  12
HETATM   12  C7  UNL     1      26.273   2.884  50.862  1.00  0.00     0.145 C 
HETATM   13  O1  UNL     1      27.091   3.499  50.158  1.00  0.00    -0.296 OA
BRANCH  12  14
HETATM   14  C8  UNL     1      26.715   1.689  51.651  1.00  0.00     0.093 C 
BRANCH  14  15
HETATM   15  C9  UNL     1      27.228   2.000  53.011  1.00  0.00     0.070 C 
HETATM   16  C10 UNL     1      26.461   1.093  53.958  1.00  0.00    -0.019 C 
HETATM   17  C11 UNL     1      26.978   0.237  54.850  1.00  0.00    -0.004 C 
HETATM   18  C12 UNL     1      28.449   0.157  54.933  1.00  0.00     0.198 C 
HETATM   19  O2  UNL     1      28.935   0.427  53.650  1.00  0.00    -0.357 OA
HETATM   20  C13 UNL     1      28.662   1.764  53.283  1.00  0.00     0.265 C 
BRANCH  20  21
HETATM   21  O3  UNL     1      28.962   2.497  54.467  1.00  0.00    -0.371 OA
HETATM   22  H17 UNL     1      29.930   2.743  54.502  1.00  0.00     0.212 HD
ENDBRANCH  20  21
ENDBRANCH  14  15
ENDBRANCH  12  14
ENDBRANCH   1  12
TORSDOF 6
ENDMDL
MODEL 3
REMARK VINA RESULT:      -7.3      1.358      1.764
REMARK  6 active torsions:
REMARK  status: ('A' for Active; 'I' for Inactive)
REMARK    1  A    between atoms: C5_5  and  N1_6 
REMARK    2  A    between atoms: N1_6  and  C6_7 
REMARK    3  A    between atoms: C6_7  and  C7_8 
REMARK    4  A    between atoms: C7_8  and  C8_10 
REMARK    5  A    between atoms: C8_10  and  C9_11 
REMARK    6  A    between atoms: C13_16  and  O3_17 
ROOT
HETATM    1  C6  UNL     1      24.006   2.723  50.922  1.00  0.00     0.197 C 
ENDROOT
BRANCH   1   2
HETATM    2  N1  UNL     1      23.354   2.277  52.138  1.00  0.00    -0.391 N 
HETATM    3  H6  UNL     1      23.891   2.301  53.012  1.00  0.00     0.159 HD
BRANCH   2   4
HETATM    4  C5  UNL     1      22.016   1.852  51.977  1.00  0.00     0.094 C 
HETATM    5  C4  UNL     1      21.636   0.844  52.711  1.00  0.00    -0.021 A 
HETATM    6  C3  UNL     1      22.525   0.173  53.654  1.00  0.00     0.015 A 
HETATM    7  C14 UNL     1      20.301   0.209  52.716  1.00  0.00     0.009 A 
HETATM    8  C2  UNL     1      22.432  -0.836  54.490  1.00  0.00    -0.080 A 
HETATM    9  C1  UNL     1      23.526  -1.316  55.350  1.00  0.00     0.043 C 
HETATM   10  C16 UNL     1      21.079  -1.457  54.467  1.00  0.00     0.061 A 
HETATM   11  C15 UNL     1      20.182  -0.793  53.531  1.00  0.00    -0.021 A 
ENDBRANCH   2   4
ENDBRANCH   1   2
BRANCH   1  12
HETATM   12  C7  UNL     1      25.484   2.608  51.072  1.00  0.00     0.145 C 
HETATM   13  O1  UNL     1      25.934   3.648  50.563  1.00  0.00    -0.296 OA
BRANCH  12  14
HETATM   14  C8  UNL     1      26.423   1.595  51.655  1.00  0.00     0.093 C 
BRANCH  14  15
HETATM   15  C9  UNL     1      26.968   1.952  52.991  1.00  0.00     0.070 C 
HETATM   16  C10 UNL     1      26.312   0.996  53.972  1.00  0.00    -0.019 C 
HETATM   17  C11 UNL     1      26.929   0.187  54.843  1.00  0.00    -0.004 C 
HETATM   18  C12 UNL     1      28.405   0.218  54.864  1.00  0.00     0.198 C 
HETATM   19  O2  UNL     1      28.814   0.516  53.561  1.00  0.00    -0.357 OA
HETATM   20  C13 UNL     1      28.426   1.826  53.202  1.00  0.00     0.265 C 
BRANCH  20  21
HETATM   21  O3  UNL     1      28.720   2.587  54.370  1.00  0.00    -0.371 OA
HETATM   22  H17 UNL     1      28.010   2.472  55.063  1.00  0.00     0.212 HD
ENDBRANCH  20  21
ENDBRANCH  14  15
ENDBRANCH  12  14
ENDBRANCH   1  12
TORSDOF 6
ENDMDL
MODEL 4
REMARK VINA RESULT:      -6.9      1.850      3.016
REMARK  6 active torsions:
REMARK  status: ('A' for Active; 'I' for Inactive)
REMARK    1  A    between atoms: C5_5  and  N1_6 
REMARK    2  A    between atoms: N1_6  and  C6_7 
REMARK    3  A    between atoms: C6_7  and  C7_8 
REMARK    4  A    between atoms: C7_8  and  C8_10 
REMARK    5  A    between atoms: C8_10  and  C9_11 
REMARK    6  A    between atoms: C13_16  and  O3_17 
ROOT
HETATM    1  C6  UNL     1      25.651   2.608  52.965  1.00  0.00     0.197 C 
ENDROOT
BRANCH   1   2
HETATM    2  N1  UNL     1      24.385   2.880  52.314  1.00  0.00    -0.391 N 
HETATM    3  H6  UNL     1      24.337   3.668  51.658  1.00  0.00     0.159 HD
BRANCH   2   4
HETATM    4  C5  UNL     1      23.333   2.003  52.662  1.00  0.00     0.094 C 
HETATM    5  C4  UNL     1      22.570   1.597  51.687  1.00  0.00    -0.021 A 
HETATM    6  C3  UNL     1      22.769   2.013  50.302  1.00  0.00     0.015 A 
HETATM    7  C14 UNL     1      21.403   0.696  51.794  1.00  0.00     0.009 A 
HETATM    8  C2  UNL     1      22.178   1.786  49.151  1.00  0.00    -0.080 A 
HETATM    9  C1  UNL     1      22.605   2.358  47.863  1.00  0.00     0.043 C 
HETATM   10  C16 UNL     1      21.006   0.881  49.293  1.00  0.00     0.061 A 
HETATM   11  C15 UNL     1      20.799   0.457  50.671  1.00  0.00    -0.021 A 
ENDBRANCH   2   4
ENDBRANCH   1   2
BRANCH   1  12
HETATM   12  C7  UNL     1      26.470   1.700  52.115  1.00  0.00     0.145 C 
HETATM   13  O1  UNL     1      27.059   2.455  51.324  1.00  0.00    -0.296 OA
BRANCH  12  14
HETATM   14  C8  UNL     1      26.695   0.220  52.041  1.00  0.00     0.093 C 
BRANCH  14  15
HETATM   15  C9  UNL     1      27.242  -0.387  53.283  1.00  0.00     0.070 C 
HETATM   16  C10 UNL     1      27.807  -1.735  52.869  1.00  0.00    -0.019 C 
HETATM   17  C11 UNL     1      29.052  -2.184  53.078  1.00  0.00    -0.004 C 
HETATM   18  C12 UNL     1      29.984  -1.284  53.784  1.00  0.00     0.198 C 
HETATM   19  O2  UNL     1      29.609   0.020  53.449  1.00  0.00    -0.357 OA
HETATM   20  C13 UNL     1      28.335   0.325  53.979  1.00  0.00     0.265 C 
BRANCH  20  21
HETATM   21  O3  UNL     1      28.386  -0.224  55.292  1.00  0.00    -0.371 OA
HETATM   22  H17 UNL     1      29.171   0.129  55.799  1.00  0.00     0.212 HD
ENDBRANCH  20  21
ENDBRANCH  14  15
ENDBRANCH  12  14
ENDBRANCH   1  12
TORSDOF 6
ENDMDL
MODEL 5
REMARK VINA RESULT:      -6.9      2.423      5.324
REMARK  6 active torsions:
REMARK  status: ('A' for Active; 'I' for Inactive)
REMARK    1  A    between atoms: C5_5  and  N1_6 
REMARK    2  A    between atoms: N1_6  and  C6_7 
REMARK    3  A    between atoms: C6_7  and  C7_8 
REMARK    4  A    between atoms: C7_8  and  C8_10 
REMARK    5  A    between atoms: C8_10  and  C9_11 
REMARK    6  A    between atoms: C13_16  and  O3_17 
ROOT
HETATM    1  C6  UNL     1      23.500   2.688  50.909  1.00  0.00     0.197 C 
ENDROOT
BRANCH   1   2
HETATM    2  N1  UNL     1      24.735   1.930  50.943  1.00  0.00    -0.391 N 
HETATM    3  H6  UNL     1      24.757   1.018  50.473  1.00  0.00     0.159 HD
BRANCH   2   4
HETATM    4  C5  UNL     1      25.800   2.553  51.632  1.00  0.00     0.094 C 
HETATM    5  C4  UNL     1      26.658   1.761  52.211  1.00  0.00    -0.021 A 
HETATM    6  C3  UNL     1      26.547   0.306  52.165  1.00  0.00     0.015 A 
HETATM    7  C14 UNL     1      27.841   2.165  53.000  1.00  0.00     0.009 A 
HETATM    8  C2  UNL     1      27.227  -0.711  52.642  1.00  0.00    -0.080 A 
HETATM    9  C1  UNL     1      26.875  -2.125  52.435  1.00  0.00     0.043 C 
HETATM   10  C16 UNL     1      28.407  -0.271  53.436  1.00  0.00     0.061 A 
HETATM   11  C15 UNL     1      28.529   1.179  53.486  1.00  0.00    -0.021 A 
ENDBRANCH   2   4
ENDBRANCH   1   2
BRANCH   1  12
HETATM   12  C7  UNL     1      22.360   1.808  51.293  1.00  0.00     0.145 C 
HETATM   13  O1  UNL     1      21.998   1.280  50.228  1.00  0.00    -0.296 OA
BRANCH  12  14
HETATM   14  C8  UNL     1      21.650   1.476  52.570  1.00  0.00     0.093 C 
BRANCH  14  15
HETATM   15  C9  UNL     1      21.635   0.029  52.913  1.00  0.00     0.070 C 
HETATM   16  C10 UNL     1      23.088  -0.359  53.124  1.00  0.00    -0.019 C 
HETATM   17  C11 UNL     1      23.616  -0.946  54.207  1.00  0.00    -0.004 C 
HETATM   18  C12 UNL     1      22.699  -1.255  55.321  1.00  0.00     0.198 C 
HETATM   19  O2  UNL     1      21.703  -0.274  55.300  1.00  0.00    -0.357 OA
HETATM   20  C13 UNL     1      20.913  -0.388  54.134  1.00  0.00     0.265 C 
BRANCH  20  21
HETATM   21  O3  UNL     1      20.711  -1.792  54.010  1.00  0.00    -0.371 OA
HETATM   22  H17 UNL     1      19.895  -1.992  53.470  1.00  0.00     0.212 HD
ENDBRANCH  20  21
ENDBRANCH  14  15
ENDBRANCH  12  14
ENDBRANCH   1  12
TORSDOF 6
ENDMDL
MODEL 6
REMARK VINA RESULT:      -6.8      2.149      3.985
REMARK  6 active torsions:
REMARK  status: ('A' for Active; 'I' for Inactive)
REMARK    1  A    between atoms: C5_5  and  N1_6 
REMARK    2  A    between atoms: N1_6  and  C6_7 
REMARK    3  A    between atoms: C6_7  and  C7_8 
REMARK    4  A    between atoms: C7_8  and  C8_10 
REMARK    5  A    between atoms: C8_10  and  C9_11 
REMARK    6  A    between atoms: C13_16  and  O3_17 
ROOT
HETATM    1  C6  UNL     1      22.256  -0.524  53.764  1.00  0.00     0.197 C 
ENDROOT
BRANCH   1   2
HETATM    2  N1  UNL     1      22.031   0.636  52.923  1.00  0.00    -0.391 N 
HETATM    3  H6  UNL     1      22.359   1.548  53.259  1.00  0.00     0.159 HD
BRANCH   2   4
HETATM    4  C5  UNL     1      21.374   0.370  51.701  1.00  0.00     0.094 C 
HETATM    5  C4  UNL     1      21.817   1.006  50.653  1.00  0.00    -0.021 A 
HETATM    6  C3  UNL     1      22.929   1.949  50.713  1.00  0.00     0.015 A 
HETATM    7  C14 UNL     1      21.291   0.912  49.275  1.00  0.00     0.009 A 
HETATM    8  C2  UNL     1      23.566   2.717  49.860  1.00  0.00    -0.080 A 
HETATM    9  C1  UNL     1      24.693   3.600  50.206  1.00  0.00     0.043 C 
HETATM   10  C16 UNL     1      23.011   2.604  48.484  1.00  0.00     0.061 A 
HETATM   11  C15 UNL     1      21.901   1.664  48.411  1.00  0.00    -0.021 A 
ENDBRANCH   2   4
ENDBRANCH   1   2
BRANCH   1  12
HETATM   12  C7  UNL     1      23.712  -0.670  54.041  1.00  0.00     0.145 C 
HETATM   13  O1  UNL     1      23.767  -1.225  55.151  1.00  0.00    -0.296 OA
BRANCH  12  14
HETATM   14  C8  UNL     1      24.978  -0.320  53.318  1.00  0.00     0.093 C 
BRANCH  14  15
HETATM   15  C9  UNL     1      25.783   0.751  53.963  1.00  0.00     0.070 C 
HETATM   16  C10 UNL     1      26.933   0.041  54.656  1.00  0.00    -0.019 C 
HETATM   17  C11 UNL     1      28.241   0.283  54.499  1.00  0.00    -0.004 C 
HETATM   18  C12 UNL     1      28.620   1.353  53.555  1.00  0.00     0.198 C 
HETATM   19  O2  UNL     1      27.639   1.371  52.560  1.00  0.00    -0.357 OA
HETATM   20  C13 UNL     1      26.395   1.777  53.093  1.00  0.00     0.265 C 
BRANCH  20  21
HETATM   21  O3  UNL     1      26.743   2.861  53.949  1.00  0.00    -0.371 OA
HETATM   22  H17 UNL     1      26.550   2.641  54.904  1.00  0.00     0.212 HD
ENDBRANCH  20  21
ENDBRANCH  14  15
ENDBRANCH  12  14
ENDBRANCH   1  12
TORSDOF 6
ENDMDL
MODEL 7
REMARK VINA RESULT:      -6.6      2.369      3.386
REMARK  6 active torsions:
REMARK  status: ('A' for Active; 'I' for Inactive)
REMARK    1  A    between atoms: C5_5  and  N1_6 
REMARK    2  A    between atoms: N1_6  and  C6_7 
REMARK    3  A    between atoms: C6_7  and  C7_8 
REMARK    4  A    between atoms: C7_8  and  C8_10 
REMARK    5  A    between atoms: C8_10  and  C9_11 
REMARK    6  A    between atoms: C13_16  and  O3_17 
ROOT
HETATM    1  C6  UNL     1      26.416   2.781  50.847  1.00  0.00     0.197 C 
ENDROOT
BRANCH   1   2
HETATM    2  N1  UNL     1      25.203   3.566  50.734  1.00  0.00    -0.391 N 
HETATM    3  H6  UNL     1      24.866   4.058  51.569  1.00  0.00     0.159 HD
BRANCH   2   4
HETATM    4  C5  UNL     1      24.609   3.568  49.452  1.00  0.00     0.094 C 
HETATM    5  C4  UNL     1      23.551   2.823  49.302  1.00  0.00    -0.021 A 
HETATM    6  C3  UNL     1      22.991   2.018  50.383  1.00  0.00     0.015 A 
HETATM    7  C14 UNL     1      22.764   2.644  48.063  1.00  0.00     0.009 A 
HETATM    8  C2  UNL     1      21.980   1.192  50.523  1.00  0.00    -0.080 A 
HETATM    9  C1  UNL     1      21.635   0.493  51.772  1.00  0.00     0.043 C 
HETATM   10  C16 UNL     1      21.211   1.030  49.258  1.00  0.00     0.061 A 
HETATM   11  C15 UNL     1      21.760   1.831  48.172  1.00  0.00    -0.021 A 
ENDBRANCH   2   4
ENDBRANCH   1   2
BRANCH   1  12
HETATM   12  C7  UNL     1      26.308   1.850  52.005  1.00  0.00     0.145 C 
HETATM   13  O1  UNL     1      26.406   0.716  51.507  1.00  0.00    -0.296 OA
BRANCH  12  14
HETATM   14  C8  UNL     1      26.128   2.002  53.485  1.00  0.00     0.093 C 
BRANCH  14  15
HETATM   15  C9  UNL     1      27.379   1.871  54.278  1.00  0.00     0.070 C 
HETATM   16  C10 UNL     1      27.513   0.391  54.592  1.00  0.00    -0.019 C 
HETATM   17  C11 UNL     1      28.566  -0.396  54.330  1.00  0.00    -0.004 C 
HETATM   18  C12 UNL     1      29.726   0.229  53.666  1.00  0.00     0.198 C 
HETATM   19  O2  UNL     1      29.219   1.248  52.855  1.00  0.00    -0.357 OA
HETATM   20  C13 UNL     1      28.650   2.276  53.641  1.00  0.00     0.265 C 
BRANCH  20  21
HETATM   21  O3  UNL     1      29.587   2.434  54.701  1.00  0.00    -0.371 OA
HETATM   22  H17 UNL     1      29.797   3.398  54.855  1.00  0.00     0.212 HD
ENDBRANCH  20  21
ENDBRANCH  14  15
ENDBRANCH  12  14
ENDBRANCH   1  12
TORSDOF 6
ENDMDL
MODEL 8
REMARK VINA RESULT:      -6.6      3.661      6.372
REMARK  6 active torsions:
REMARK  status: ('A' for Active; 'I' for Inactive)
REMARK    1  A    between atoms: C5_5  and  N1_6 
REMARK    2  A    between atoms: N1_6  and  C6_7 
REMARK    3  A    between atoms: C6_7  and  C7_8 
REMARK    4  A    between atoms: C7_8  and  C8_10 
REMARK    5  A    between atoms: C8_10  and  C9_11 
REMARK    6  A    between atoms: C13_16  and  O3_17 
ROOT
HETATM    1  C6  UNL     1      24.725   3.533  51.258  1.00  0.00     0.197 C 
ENDROOT
BRANCH   1   2
HETATM    2  N1  UNL     1      25.053   3.456  49.848  1.00  0.00    -0.391 N 
HETATM    3  H6  UNL     1      24.286   3.332  49.179  1.00  0.00     0.159 HD
BRANCH   2   4
HETATM    4  C5  UNL     1      26.430   3.566  49.549  1.00  0.00     0.094 C 
HETATM    5  C4  UNL     1      26.819   4.691  49.017  1.00  0.00    -0.021 A 
HETATM    6  C3  UNL     1      25.902   5.791  48.735  1.00  0.00     0.015 A 
HETATM    7  C14 UNL     1      28.193   5.044  48.602  1.00  0.00     0.009 A 
HETATM    8  C2  UNL     1      25.996   6.993  48.214  1.00  0.00    -0.080 A 
HETATM    9  C1  UNL     1      24.868   7.923  48.043  1.00  0.00     0.043 C 
HETATM   10  C16 UNL     1      27.389   7.315  47.802  1.00  0.00     0.061 A 
HETATM   11  C15 UNL     1      28.314   6.226  48.082  1.00  0.00    -0.021 A 
ENDBRANCH   2   4
ENDBRANCH   1   2
BRANCH   1  12
HETATM   12  C7  UNL     1      24.186   2.224  51.723  1.00  0.00     0.145 C 
HETATM   13  O1  UNL     1      23.570   1.772  50.743  1.00  0.00    -0.296 OA
BRANCH  12  14
HETATM   14  C8  UNL     1      24.242   1.438  52.997  1.00  0.00     0.093 C 
BRANCH  14  15
HETATM   15  C9  UNL     1      25.310   0.405  53.042  1.00  0.00     0.070 C 
HETATM   16  C10 UNL     1      26.536   1.054  52.421  1.00  0.00    -0.019 C 
HETATM   17  C11 UNL     1      27.753   1.164  52.970  1.00  0.00    -0.004 C 
HETATM   18  C12 UNL     1      27.939   0.599  54.320  1.00  0.00     0.198 C 
HETATM   19  O2  UNL     1      26.710   0.723  54.976  1.00  0.00    -0.357 OA
HETATM   20  C13 UNL     1      25.734  -0.097  54.366  1.00  0.00     0.265 C 
BRANCH  20  21
HETATM   21  O3  UNL     1      26.435  -1.312  54.119  1.00  0.00    -0.371 OA
HETATM   22  H17 UNL     1      26.447  -1.893  54.931  1.00  0.00     0.212 HD
ENDBRANCH  20  21
ENDBRANCH  14  15
ENDBRANCH  12  14
ENDBRANCH   1  12
TORSDOF 6
ENDMDL
MODEL 9
REMARK VINA RESULT:      -6.5      3.061      5.540
REMARK  6 active torsions:
REMARK  status: ('A' for Active; 'I' for Inactive)
REMARK    1  A    between atoms: C5_5  and  N1_6 
REMARK    2  A    between atoms: N1_6  and  C6_7 
REMARK    3  A    between atoms: C6_7  and  C7_8 
REMARK    4  A    between atoms: C7_8  and  C8_10 
REMARK    5  A    between atoms: C8_10  and  C9_11 
REMARK    6  A    between atoms: C13_16  and  O3_17 
ROOT
HETATM    1  C6  UNL     1      23.292   2.620  51.910  1.00  0.00     0.197 C 
ENDROOT
BRANCH   1   2
HETATM    2  N1  UNL     1      24.148   3.573  51.230  1.00  0.00    -0.391 N 
HETATM    3  H6  UNL     1      24.948   3.211  50.700  1.00  0.00     0.159 HD
BRANCH   2   4
HETATM    4  C5  UNL     1      23.769   4.926  51.375  1.00  0.00     0.094 C 
HETATM    5  C4  UNL     1      24.495   5.803  50.740  1.00  0.00    -0.021 A 
HETATM    6  C3  UNL     1      25.643   5.432  49.919  1.00  0.00     0.015 A 
HETATM    7  C14 UNL     1      24.313   7.270  50.745  1.00  0.00     0.009 A 
HETATM    8  C2  UNL     1      26.536   6.069  49.197  1.00  0.00    -0.080 A 
HETATM    9  C1  UNL     1      27.624   5.421  48.446  1.00  0.00     0.043 C 
HETATM   10  C16 UNL     1      26.329   7.543  49.226  1.00  0.00     0.061 A 
HETATM   11  C15 UNL     1      25.184   7.925  50.041  1.00  0.00    -0.021 A 
ENDBRANCH   2   4
ENDBRANCH   1   2
BRANCH   1  12
HETATM   12  C7  UNL     1      24.053   1.370  52.190  1.00  0.00     0.145 C 
HETATM   13  O1  UNL     1      23.196   0.562  52.585  1.00  0.00    -0.296 OA
BRANCH  12  14
HETATM   14  C8  UNL     1      25.488   0.949  52.095  1.00  0.00     0.093 C 
BRANCH  14  15
HETATM   15  C9  UNL     1      25.935   0.025  53.171  1.00  0.00     0.070 C 
HETATM   16  C10 UNL     1      27.237  -0.582  52.677  1.00  0.00    -0.019 C 
HETATM   17  C11 UNL     1      28.417  -0.584  53.312  1.00  0.00    -0.004 C 
HETATM   18  C12 UNL     1      28.472   0.070  54.634  1.00  0.00     0.198 C 
HETATM   19  O2  UNL     1      27.539   1.110  54.603  1.00  0.00    -0.357 OA
HETATM   20  C13 UNL     1      26.225   0.599  54.502  1.00  0.00     0.265 C 
BRANCH  20  21
HETATM   21  O3  UNL     1      26.229  -0.499  55.409  1.00  0.00    -0.371 OA
HETATM   22  H17 UNL     1      26.685  -1.294  55.011  1.00  0.00     0.212 HD
ENDBRANCH  20  21
ENDBRANCH  14  15
ENDBRANCH  12  14
ENDBRANCH   1  12
TORSDOF 6
ENDMDL
