MODEL 1
REMARK VINA RESULT:      -9.1      0.000      0.000
REMARK  3 active torsions:
REMARK  status: ('A' for Active; 'I' for Inactive)
REMARK    1  A    between atoms: O1_2  and  C2_3 
REMARK    2  A    between atoms: C4_5  and  N1_6 
REMARK    3  A    between atoms: N1_6  and  C5_7 
ROOT
HETATM    1  C2  UNL     1      22.541   0.090  53.447  1.00  0.00     0.070 C 
HETATM    2  C3  UNL     1      22.998   0.951  52.546  1.00  0.00     0.065 C 
HETATM    3  C4  UNL     1      23.315   1.980  51.561  1.00  0.00     0.146 C 
HETATM    4  N2  UNL     1      23.233   3.302  52.045  1.00  0.00    -0.305 N 
HETATM    5  O2  UNL     1      21.983   3.696  52.438  1.00  0.00     0.000 OA
HETATM    6  C11 UNL     1      20.925   3.970  51.585  1.00  0.00     0.136 A 
HETATM    7  N3  UNL     1      20.924   2.944  52.155  1.00  0.00    -0.264 N 
HETATM    8  C12 UNL     1      21.026   1.833  52.841  1.00  0.00     0.040 C 
HETATM    9  C13 UNL     1      21.208   0.717  53.505  1.00  0.00     0.064 C 
HETATM   10  C14 UNL     1      19.604   1.720  52.336  1.00  0.00     0.086 C 
HETATM   11  C15 UNL     1      19.879   1.586  50.823  1.00  0.00    -0.015 C 
HETATM   12  C16 UNL     1      21.130   1.634  50.216  1.00  0.00    -0.051 C 
HETATM   13  C17 UNL     1      20.742   1.444  48.754  1.00  0.00     0.202 C 
HETATM   14  O3  UNL     1      21.875   1.131  48.038  1.00  0.00    -0.387 OA
HETATM   15  C18 UNL     1      22.748   2.207  47.902  1.00  0.00     0.168 C 
HETATM   16  C19 UNL     1      23.034   2.811  49.288  1.00  0.00     0.040 C 
HETATM   17  C20 UNL     1      22.576   1.768  50.264  1.00  0.00     0.073 C 
HETATM   18  H9  UNL     1      24.002   3.684  52.592  1.00  0.00     0.183 HD
ENDROOT
BRANCH   3  19
HETATM   19  N1  UNL     1      24.724   1.773  51.170  1.00  0.00    -0.359 N 
HETATM   20  H5  UNL     1      24.955   2.027  50.184  1.00  0.00     0.162 HD
BRANCH  19  21
HETATM   21  C5  UNL     1      25.844   1.291  51.888  1.00  0.00     0.032 A 
HETATM   22  C6  UNL     1      26.060  -0.081  52.025  1.00  0.00     0.032 A 
HETATM   23  C7  UNL     1      27.120  -0.625  52.687  1.00  0.00     0.046 A 
HETATM   24  C8  UNL     1      28.062   0.182  53.275  1.00  0.00     0.138 A 
HETATM   25  F1  UNL     1      29.100  -0.385  53.928  1.00  0.00    -0.204 F 
HETATM   26  C9  UNL     1      27.908   1.539  53.177  1.00  0.00     0.074 A 
HETATM   27 CL1  UNL     1      29.130   2.530  53.937  1.00  0.00    -0.081 Cl
HETATM   28  C10 UNL     1      26.825   2.035  52.500  1.00  0.00     0.056 A 
ENDBRANCH  19  21
ENDBRANCH   3  19
BRANCH   1  29
HETATM   29  O1  UNL     1      22.754  -1.031  54.283  1.00  0.00    -0.356 OA
HETATM   30  C1  UNL     1      21.544  -1.763  54.538  1.00  0.00     0.210 C 
ENDBRANCH   1  29
TORSDOF 3
ENDMDL
MODEL 2
REMARK VINA RESULT:      -8.8      4.009      5.013
REMARK  3 active torsions:
REMARK  status: ('A' for Active; 'I' for Inactive)
REMARK    1  A    between atoms: O1_2  and  C2_3 
REMARK    2  A    between atoms: C4_5  and  N1_6 
REMARK    3  A    between atoms: N1_6  and  C5_7 
ROOT
HETATM    1  C2  UNL     1      26.475   2.421  51.778  1.00  0.00     0.070 C 
HETATM    2  C3  UNL     1      25.721   3.149  50.963  1.00  0.00     0.065 C 
HETATM    3  C4  UNL     1      24.741   3.913  50.199  1.00  0.00     0.146 C 
HETATM    4  N2  UNL     1      24.221   5.039  50.870  1.00  0.00    -0.305 N 
HETATM    5  O2  UNL     1      23.505   4.758  52.000  1.00  0.00     0.000 OA
HETATM    6  C11 UNL     1      22.240   4.191  52.026  1.00  0.00     0.136 A 
HETATM    7  N3  UNL     1      23.158   3.505  52.279  1.00  0.00    -0.264 N 
HETATM    8  C12 UNL     1      24.251   2.835  52.544  1.00  0.00     0.040 C 
HETATM    9  C13 UNL     1      25.382   2.201  52.743  1.00  0.00     0.064 C 
HETATM   10  C14 UNL     1      23.201   1.841  52.986  1.00  0.00     0.086 C 
HETATM   11  C15 UNL     1      22.553   1.527  51.621  1.00  0.00    -0.015 C 
HETATM   12  C16 UNL     1      22.892   2.112  50.406  1.00  0.00    -0.051 C 
HETATM   13  C17 UNL     1      21.923   1.400  49.469  1.00  0.00     0.202 C 
HETATM   14  O3  UNL     1      22.337   1.605  48.173  1.00  0.00    -0.387 OA
HETATM   15  C18 UNL     1      22.147   2.916  47.741  1.00  0.00     0.168 C 
HETATM   16  C19 UNL     1      22.777   3.884  48.758  1.00  0.00     0.040 C 
HETATM   17  C20 UNL     1      23.678   3.029  49.597  1.00  0.00     0.073 C 
HETATM   18  H9  UNL     1      24.766   5.899  50.902  1.00  0.00     0.183 HD
ENDROOT
BRANCH   3  19
HETATM   19  N1  UNL     1      25.444   4.433  49.008  1.00  0.00    -0.359 N 
HETATM   20  H5  UNL     1      25.109   4.056  48.094  1.00  0.00     0.162 HD
BRANCH  19  21
HETATM   21  C5  UNL     1      26.500   5.363  48.865  1.00  0.00     0.032 A 
HETATM   22  C6  UNL     1      27.783   4.930  48.529  1.00  0.00     0.032 A 
HETATM   23  C7  UNL     1      28.850   5.761  48.357  1.00  0.00     0.046 A 
HETATM   24  C8  UNL     1      28.708   7.118  48.513  1.00  0.00     0.138 A 
HETATM   25  F1  UNL     1      29.782   7.917  48.341  1.00  0.00    -0.204 F 
HETATM   26  C9  UNL     1      27.472   7.607  48.843  1.00  0.00     0.074 A 
HETATM   27 CL1  UNL     1      27.333   9.339  49.031  1.00  0.00    -0.081 Cl
HETATM   28  C10 UNL     1      26.432   6.728  49.004  1.00  0.00     0.056 A 
ENDBRANCH  19  21
ENDBRANCH   3  19
BRANCH   1  29
HETATM   29  O1  UNL     1      27.727   1.840  52.091  1.00  0.00    -0.356 OA
HETATM   30  C1  UNL     1      28.226   2.271  53.367  1.00  0.00     0.210 C 
ENDBRANCH   1  29
TORSDOF 3
ENDMDL
MODEL 3
REMARK VINA RESULT:      -8.6      2.952      3.696
REMARK  3 active torsions:
REMARK  status: ('A' for Active; 'I' for Inactive)
REMARK    1  A    between atoms: O1_2  and  C2_3 
REMARK    2  A    between atoms: C4_5  and  N1_6 
REMARK    3  A    between atoms: N1_6  and  C5_7 
ROOT
HETATM    1  C2  UNL     1      24.121   1.548  53.052  1.00  0.00     0.070 C 
HETATM    2  C3  UNL     1      23.556   2.503  52.324  1.00  0.00     0.065 C 
HETATM    3  C4  UNL     1      22.768   3.438  51.529  1.00  0.00     0.146 C 
HETATM    4  N2  UNL     1      21.657   3.989  52.200  1.00  0.00    -0.305 N 
HETATM    5  O2  UNL     1      20.697   3.087  52.564  1.00  0.00     0.000 OA
HETATM    6  C11 UNL     1      19.824   2.451  51.695  1.00  0.00     0.136 A 
HETATM    7  N3  UNL     1      20.739   1.841  52.102  1.00  0.00    -0.264 N 
HETATM    8  C12 UNL     1      21.791   1.257  52.618  1.00  0.00     0.040 C 
HETATM    9  C13 UNL     1      22.889   0.740  53.117  1.00  0.00     0.064 C 
HETATM   10  C14 UNL     1      21.082   0.067  52.009  1.00  0.00     0.086 C 
HETATM   11  C15 UNL     1      21.201   0.435  50.515  1.00  0.00    -0.015 C 
HETATM   12  C16 UNL     1      21.771   1.598  50.005  1.00  0.00    -0.051 C 
HETATM   13  C17 UNL     1      21.588   1.370  48.509  1.00  0.00     0.202 C 
HETATM   14  O3  UNL     1      22.388   2.260  47.830  1.00  0.00    -0.387 OA
HETATM   15  C18 UNL     1      21.935   3.575  47.916  1.00  0.00     0.168 C 
HETATM   16  C19 UNL     1      21.708   3.941  49.393  1.00  0.00     0.040 C 
HETATM   17  C20 UNL     1      22.432   2.881  50.168  1.00  0.00     0.073 C 
HETATM   18  H9  UNL     1      21.796   4.763  52.848  1.00  0.00     0.183 HD
ENDROOT
BRANCH   3  19
HETATM   19  N1  UNL     1      23.656   4.573  51.204  1.00  0.00    -0.359 N 
HETATM   20  H5  UNL     1      23.383   5.487  51.628  1.00  0.00     0.162 HD
BRANCH  19  21
HETATM   21  C5  UNL     1      24.830   4.660  50.420  1.00  0.00     0.032 A 
HETATM   22  C6  UNL     1      25.715   3.584  50.348  1.00  0.00     0.032 A 
HETATM   23  C7  UNL     1      26.858   3.582  49.605  1.00  0.00     0.046 A 
HETATM   24  C8  UNL     1      27.207   4.683  48.862  1.00  0.00     0.138 A 
HETATM   25  F1  UNL     1      28.347   4.655  48.138  1.00  0.00    -0.204 F 
HETATM   26  C9  UNL     1      26.380   5.773  48.890  1.00  0.00     0.074 A 
HETATM   27 CL1  UNL     1      26.859   7.153  47.929  1.00  0.00    -0.081 Cl
HETATM   28  C10 UNL     1      25.242   5.724  49.653  1.00  0.00     0.056 A 
ENDBRANCH  19  21
ENDBRANCH   3  19
BRANCH   1  29
HETATM   29  O1  UNL     1      25.256   1.032  53.723  1.00  0.00    -0.356 OA
HETATM   30  C1  UNL     1      26.320   1.994  53.817  1.00  0.00     0.210 C 
ENDBRANCH   1  29
TORSDOF 3
ENDMDL
MODEL 4
REMARK VINA RESULT:      -8.5      8.637     10.302
REMARK  3 active torsions:
REMARK  status: ('A' for Active; 'I' for Inactive)
REMARK    1  A    between atoms: O1_2  and  C2_3 
REMARK    2  A    between atoms: C4_5  and  N1_6 
REMARK    3  A    between atoms: N1_6  and  C5_7 
ROOT
HETATM    1  C2  UNL     1      28.495   5.551  48.451  1.00  0.00     0.070 C 
HETATM    2  C3  UNL     1      29.547   6.351  48.568  1.00  0.00     0.065 C 
HETATM    3  C4  UNL     1      30.583   7.377  48.622  1.00  0.00     0.146 C 
HETATM    4  N2  UNL     1      30.299   8.455  49.485  1.00  0.00    -0.305 N 
HETATM    5  O2  UNL     1      29.211   9.205  49.134  1.00  0.00     0.000 OA
HETATM    6  C11 UNL     1      29.157  10.082  48.062  1.00  0.00     0.136 A 
HETATM    7  N3  UNL     1      28.637   9.037  47.946  1.00  0.00    -0.264 N 
HETATM    8  C12 UNL     1      28.094   7.846  47.928  1.00  0.00     0.040 C 
HETATM    9  C13 UNL     1      27.619   6.623  47.944  1.00  0.00     0.064 C 
HETATM   10  C14 UNL     1      27.503   8.441  46.669  1.00  0.00     0.086 C 
HETATM   11  C15 UNL     1      28.788   8.590  45.828  1.00  0.00    -0.015 C 
HETATM   12  C16 UNL     1      30.078   8.282  46.250  1.00  0.00    -0.051 C 
HETATM   13  C17 UNL     1      30.876   8.634  45.000  1.00  0.00     0.202 C 
HETATM   14  O3  UNL     1      32.132   8.083  45.113  1.00  0.00    -0.387 OA
HETATM   15  C18 UNL     1      32.920   8.716  46.071  1.00  0.00     0.168 C 
HETATM   16  C19 UNL     1      32.149   8.789  47.401  1.00  0.00     0.040 C 
HETATM   17  C20 UNL     1      31.024   7.809  47.246  1.00  0.00     0.073 C 
HETATM   18  H9  UNL     1      30.448   8.347  50.488  1.00  0.00     0.183 HD
ENDROOT
BRANCH   3  19
HETATM   19  N1  UNL     1      31.795   6.728  49.162  1.00  0.00    -0.359 N 
HETATM   20  H5  UNL     1      32.078   7.036  50.119  1.00  0.00     0.162 HD
BRANCH  19  21
HETATM   21  C5  UNL     1      32.661   5.747  48.624  1.00  0.00     0.032 A 
HETATM   22  C6  UNL     1      34.043   5.948  48.620  1.00  0.00     0.032 A 
HETATM   23  C7  UNL     1      34.944   5.048  48.135  1.00  0.00     0.046 A 
HETATM   24  C8  UNL     1      34.520   3.853  47.607  1.00  0.00     0.138 A 
HETATM   25  F1  UNL     1      35.436   2.982  47.130  1.00  0.00    -0.204 F 
HETATM   26  C9  UNL     1      33.176   3.595  47.582  1.00  0.00     0.074 A 
HETATM   27 CL1  UNL     1      32.679   2.063  46.903  1.00  0.00    -0.081 Cl
HETATM   28  C10 UNL     1      32.311   4.533  48.082  1.00  0.00     0.056 A 
ENDBRANCH  19  21
ENDBRANCH   3  19
BRANCH   1  29
HETATM   29  O1  UNL     1      27.914   4.268  48.593  1.00  0.00    -0.356 OA
HETATM   30  C1  UNL     1      26.675   4.305  49.320  1.00  0.00     0.210 C 
ENDBRANCH   1  29
TORSDOF 3
ENDMDL
MODEL 5
REMARK VINA RESULT:      -8.4      3.527      6.235
REMARK  3 active torsions:
REMARK  status: ('A' for Active; 'I' for Inactive)
REMARK    1  A    between atoms: O1_2  and  C2_3 
REMARK    2  A    between atoms: C4_5  and  N1_6 
REMARK    3  A    between atoms: N1_6  and  C5_7 
ROOT
HETATM    1  C2  UNL     1      22.064   3.740  47.425  1.00  0.00     0.070 C 
HETATM    2  C3  UNL     1      22.520   3.367  48.615  1.00  0.00     0.065 C 
HETATM    3  C4  UNL     1      23.087   3.149  49.941  1.00  0.00     0.146 C 
HETATM    4  N2  UNL     1      22.493   3.912  50.967  1.00  0.00    -0.305 N 
HETATM    5  O2  UNL     1      22.644   5.266  50.841  1.00  0.00     0.000 OA
HETATM    6  C11 UNL     1      23.826   5.961  51.042  1.00  0.00     0.136 A 
HETATM    7  N3  UNL     1      23.483   5.764  49.938  1.00  0.00    -0.264 N 
HETATM    8  C12 UNL     1      23.005   5.489  48.750  1.00  0.00     0.040 C 
HETATM    9  C13 UNL     1      22.511   5.135  47.588  1.00  0.00     0.064 C 
HETATM   10  C14 UNL     1      24.103   6.465  48.390  1.00  0.00     0.086 C 
HETATM   11  C15 UNL     1      25.334   5.634  48.812  1.00  0.00    -0.015 C 
HETATM   12  C16 UNL     1      25.302   4.376  49.404  1.00  0.00    -0.051 C 
HETATM   13  C17 UNL     1      26.793   4.103  49.568  1.00  0.00     0.202 C 
HETATM   14  O3  UNL     1      26.966   2.764  49.832  1.00  0.00    -0.387 OA
HETATM   15  C18 UNL     1      26.529   2.399  51.104  1.00  0.00     0.168 C 
HETATM   16  C19 UNL     1      25.086   2.894  51.309  1.00  0.00     0.040 C 
HETATM   17  C20 UNL     1      24.593   3.223  49.931  1.00  0.00     0.073 C 
HETATM   18  H9  UNL     1      21.608   3.608  51.369  1.00  0.00     0.183 HD
ENDROOT
BRANCH   3  19
HETATM   19  N1  UNL     1      22.833   1.734  50.283  1.00  0.00    -0.359 N 
HETATM   20  H5  UNL     1      23.459   1.043  49.812  1.00  0.00     0.162 HD
BRANCH  19  21
HETATM   21  C5  UNL     1      21.892   1.124  51.144  1.00  0.00     0.032 A 
HETATM   22  C6  UNL     1      20.593   0.866  50.704  1.00  0.00     0.032 A 
HETATM   23  C7  UNL     1      19.633   0.269  51.466  1.00  0.00     0.046 A 
HETATM   24  C8  UNL     1      19.908  -0.123  52.752  1.00  0.00     0.138 A 
HETATM   25  F1  UNL     1      18.936  -0.709  53.485  1.00  0.00    -0.204 F 
HETATM   26  C9  UNL     1      21.166   0.102  53.244  1.00  0.00     0.074 A 
HETATM   27 CL1  UNL     1      21.475  -0.413  54.886  1.00  0.00    -0.081 Cl
HETATM   28  C10 UNL     1      22.095   0.705  52.438  1.00  0.00     0.056 A 
ENDBRANCH  19  21
ENDBRANCH   3  19
BRANCH   1  29
HETATM   29  O1  UNL     1      21.405   3.420  46.214  1.00  0.00    -0.356 OA
HETATM   30  C1  UNL     1      21.746   4.323  45.150  1.00  0.00     0.210 C 
ENDBRANCH   1  29
TORSDOF 3
ENDMDL
MODEL 6
REMARK VINA RESULT:      -8.2      2.493      3.386
REMARK  3 active torsions:
REMARK  status: ('A' for Active; 'I' for Inactive)
REMARK    1  A    between atoms: O1_2  and  C2_3 
REMARK    2  A    between atoms: C4_5  and  N1_6 
REMARK    3  A    between atoms: N1_6  and  C5_7 
ROOT
HETATM    1  C2  UNL     1      18.231  -0.287  51.869  1.00  0.00     0.070 C 
HETATM    2  C3  UNL     1      19.447   0.236  51.770  1.00  0.00     0.065 C 
HETATM    3  C4  UNL     1      20.689   0.987  51.628  1.00  0.00     0.146 C 
HETATM    4  N2  UNL     1      20.885   1.988  52.602  1.00  0.00    -0.305 N 
HETATM    5  O2  UNL     1      19.966   3.001  52.581  1.00  0.00     0.000 OA
HETATM    6  C11 UNL     1      19.889   3.992  51.615  1.00  0.00     0.136 A 
HETATM    7  N3  UNL     1      19.115   3.112  51.567  1.00  0.00    -0.264 N 
HETATM    8  C12 UNL     1      18.303   2.085  51.609  1.00  0.00     0.040 C 
HETATM    9  C13 UNL     1      17.556   1.008  51.666  1.00  0.00     0.064 C 
HETATM   10  C14 UNL     1      17.608   2.947  50.578  1.00  0.00     0.086 C 
HETATM   11  C15 UNL     1      18.664   2.904  49.453  1.00  0.00    -0.015 C 
HETATM   12  C16 UNL     1      19.898   2.265  49.520  1.00  0.00    -0.051 C 
HETATM   13  C17 UNL     1      20.453   2.577  48.135  1.00  0.00     0.202 C 
HETATM   14  O3  UNL     1      21.525   1.748  47.896  1.00  0.00    -0.387 OA
HETATM   15  C18 UNL     1      22.642   2.066  48.665  1.00  0.00     0.168 C 
HETATM   16  C19 UNL     1      22.236   2.148  50.146  1.00  0.00     0.040 C 
HETATM   17  C20 UNL     1      20.898   1.473  50.216  1.00  0.00     0.073 C 
HETATM   18  H9  UNL     1      21.226   1.728  53.526  1.00  0.00     0.183 HD
ENDROOT
BRANCH   3  19
HETATM   19  N1  UNL     1      21.792   0.021  51.805  1.00  0.00    -0.359 N 
HETATM   20  H5  UNL     1      22.034  -0.540  50.958  1.00  0.00     0.162 HD
BRANCH  19  21
HETATM   21  C5  UNL     1      22.601  -0.296  52.921  1.00  0.00     0.032 A 
HETATM   22  C6  UNL     1      22.047  -0.905  54.048  1.00  0.00     0.032 A 
HETATM   23  C7  UNL     1      22.760  -1.255  55.156  1.00  0.00     0.046 A 
HETATM   24  C8  UNL     1      24.110  -1.016  55.220  1.00  0.00     0.138 A 
HETATM   25  F1  UNL     1      24.790  -1.369  56.332  1.00  0.00    -0.204 F 
HETATM   26  C9  UNL     1      24.715  -0.419  54.146  1.00  0.00     0.074 A 
HETATM   27 CL1  UNL     1      26.435  -0.133  54.267  1.00  0.00    -0.081 Cl
HETATM   28  C10 UNL     1      23.953  -0.088  53.056  1.00  0.00     0.056 A 
ENDBRANCH  19  21
ENDBRANCH   3  19
BRANCH   1  29
HETATM   29  O1  UNL     1      17.398  -1.414  52.069  1.00  0.00    -0.356 OA
HETATM   30  C1  UNL     1      17.610  -2.031  53.350  1.00  0.00     0.210 C 
ENDBRANCH   1  29
TORSDOF 3
ENDMDL
MODEL 7
REMARK VINA RESULT:      -8.1      3.940      5.088
REMARK  3 active torsions:
REMARK  status: ('A' for Active; 'I' for Inactive)
REMARK    1  A    between atoms: O1_2  and  C2_3 
REMARK    2  A    between atoms: C4_5  and  N1_6 
REMARK    3  A    between atoms: N1_6  and  C5_7 
ROOT
HETATM    1  C2  UNL     1      26.018   2.759  51.327  1.00  0.00     0.070 C 
HETATM    2  C3  UNL     1      25.094   3.476  50.699  1.00  0.00     0.065 C 
HETATM    3  C4  UNL     1      23.943   4.166  50.126  1.00  0.00     0.146 C 
HETATM    4  N2  UNL     1      23.221   4.962  51.038  1.00  0.00    -0.305 N 
HETATM    5  O2  UNL     1      22.627   4.275  52.061  1.00  0.00     0.000 OA
HETATM    6  C11 UNL     1      21.516   3.456  51.935  1.00  0.00     0.136 A 
HETATM    7  N3  UNL     1      22.569   2.947  52.030  1.00  0.00    -0.264 N 
HETATM    8  C12 UNL     1      23.790   2.488  52.141  1.00  0.00     0.040 C 
HETATM    9  C13 UNL     1      25.038   2.086  52.198  1.00  0.00     0.064 C 
HETATM   10  C14 UNL     1      22.996   1.214  52.322  1.00  0.00     0.086 C 
HETATM   11  C15 UNL     1      22.376   1.095  50.913  1.00  0.00    -0.015 C 
HETATM   12  C16 UNL     1      22.534   2.008  49.876  1.00  0.00    -0.051 C 
HETATM   13  C17 UNL     1      21.703   1.342  48.785  1.00  0.00     0.202 C 
HETATM   14  O3  UNL     1      22.012   1.930  47.580  1.00  0.00    -0.387 OA
HETATM   15  C18 UNL     1      21.528   3.232  47.469  1.00  0.00     0.168 C 
HETATM   16  C19 UNL     1      21.975   4.049  48.695  1.00  0.00     0.040 C 
HETATM   17  C20 UNL     1      23.072   3.237  49.318  1.00  0.00     0.073 C 
HETATM   18  H9  UNL     1      23.570   5.888  51.281  1.00  0.00     0.183 HD
ENDROOT
BRANCH   3  19
HETATM   19  N1  UNL     1      24.470   5.090  49.101  1.00  0.00    -0.359 N 
HETATM   20  H5  UNL     1      23.996   5.042  48.172  1.00  0.00     0.162 HD
BRANCH  19  21
HETATM   21  C5  UNL     1      25.509   6.049  49.138  1.00  0.00     0.032 A 
HETATM   22  C6  UNL     1      25.409   7.171  49.963  1.00  0.00     0.032 A 
HETATM   23  C7  UNL     1      26.371   8.131  50.067  1.00  0.00     0.046 A 
HETATM   24  C8  UNL     1      27.530   8.038  49.337  1.00  0.00     0.138 A 
HETATM   25  F1  UNL     1      28.464   9.006  49.457  1.00  0.00    -0.204 F 
HETATM   26  C9  UNL     1      27.690   6.960  48.508  1.00  0.00     0.074 A 
HETATM   27 CL1  UNL     1      29.179   6.879  47.597  1.00  0.00    -0.081 Cl
HETATM   28  C10 UNL     1      26.693   6.022  48.440  1.00  0.00     0.056 A 
ENDBRANCH  19  21
ENDBRANCH   3  19
BRANCH   1  29
HETATM   29  O1  UNL     1      27.377   2.408  51.508  1.00  0.00    -0.356 OA
HETATM   30  C1  UNL     1      27.715   2.227  52.893  1.00  0.00     0.210 C 
ENDBRANCH   1  29
TORSDOF 3
ENDMDL
MODEL 8
REMARK VINA RESULT:      -8.0      2.252      4.321
REMARK  3 active torsions:
REMARK  status: ('A' for Active; 'I' for Inactive)
REMARK    1  A    between atoms: O1_2  and  C2_3 
REMARK    2  A    between atoms: C4_5  and  N1_6 
REMARK    3  A    between atoms: N1_6  and  C5_7 
ROOT
HETATM    1  C2  UNL     1      24.095   5.781  50.844  1.00  0.00     0.070 C 
HETATM    2  C3  UNL     1      23.719   4.556  51.190  1.00  0.00     0.065 C 
HETATM    3  C4  UNL     1      23.210   3.204  51.390  1.00  0.00     0.146 C 
HETATM    4  N2  UNL     1      23.680   2.255  50.461  1.00  0.00    -0.305 N 
HETATM    5  O2  UNL     1      23.306   2.481  49.165  1.00  0.00     0.000 OA
HETATM    6  C11 UNL     1      22.027   2.307  48.659  1.00  0.00     0.136 A 
HETATM    7  N3  UNL     1      22.387   3.400  48.884  1.00  0.00    -0.264 N 
HETATM    8  C12 UNL     1      22.891   4.574  49.173  1.00  0.00     0.040 C 
HETATM    9  C13 UNL     1      23.425   5.717  49.533  1.00  0.00     0.064 C 
HETATM   10  C14 UNL     1      21.643   4.983  48.422  1.00  0.00     0.086 C 
HETATM   11  C15 UNL     1      20.572   4.469  49.406  1.00  0.00    -0.015 C 
HETATM   12  C16 UNL     1      20.817   3.782  50.590  1.00  0.00    -0.051 C 
HETATM   13  C17 UNL     1      19.393   3.563  51.090  1.00  0.00     0.202 C 
HETATM   14  O3  UNL     1      19.447   3.191  52.414  1.00  0.00    -0.387 OA
HETATM   15  C18 UNL     1      19.952   1.906  52.599  1.00  0.00     0.168 C 
HETATM   16  C19 UNL     1      21.294   1.774  51.859  1.00  0.00     0.040 C 
HETATM   17  C20 UNL     1      21.712   3.184  51.566  1.00  0.00     0.073 C 
HETATM   18  H9  UNL     1      24.608   1.851  50.581  1.00  0.00     0.183 HD
ENDROOT
BRANCH   3  19
HETATM   19  N1  UNL     1      23.697   2.759  52.713  1.00  0.00    -0.359 N 
HETATM   20  H5  UNL     1      23.109   3.049  53.525  1.00  0.00     0.162 HD
BRANCH  19  21
HETATM   21  C5  UNL     1      24.826   1.999  53.097  1.00  0.00     0.032 A 
HETATM   22  C6  UNL     1      24.706   0.632  53.353  1.00  0.00     0.032 A 
HETATM   23  C7  UNL     1      25.746  -0.172  53.714  1.00  0.00     0.046 A 
HETATM   24  C8  UNL     1      27.011   0.343  53.848  1.00  0.00     0.138 A 
HETATM   25  F1  UNL     1      28.022  -0.477  54.209  1.00  0.00    -0.204 F 
HETATM   26  C9  UNL     1      27.196   1.679  53.610  1.00  0.00     0.074 A 
HETATM   27 CL1  UNL     1      28.822   2.295  53.791  1.00  0.00    -0.081 Cl
HETATM   28  C10 UNL     1      26.118   2.444  53.250  1.00  0.00     0.056 A 
ENDBRANCH  19  21
ENDBRANCH   3  19
BRANCH   1  29
HETATM   29  O1  UNL     1      24.785   6.979  51.148  1.00  0.00    -0.356 OA
HETATM   30  C1  UNL     1      24.229   8.118  50.471  1.00  0.00     0.210 C 
ENDBRANCH   1  29
TORSDOF 3
ENDMDL
MODEL 9
REMARK VINA RESULT:      -7.9      8.770     10.352
REMARK  3 active torsions:
REMARK  status: ('A' for Active; 'I' for Inactive)
REMARK    1  A    between atoms: O1_2  and  C2_3 
REMARK    2  A    between atoms: C4_5  and  N1_6 
REMARK    3  A    between atoms: N1_6  and  C5_7 
ROOT
HETATM    1  C2  UNL     1      28.007   6.454  48.372  1.00  0.00     0.070 C 
HETATM    2  C3  UNL     1      28.810   7.451  48.725  1.00  0.00     0.065 C 
HETATM    3  C4  UNL     1      29.544   8.669  49.050  1.00  0.00     0.146 C 
HETATM    4  N2  UNL     1      28.939   9.474  50.036  1.00  0.00    -0.305 N 
HETATM    5  O2  UNL     1      27.720   9.991  49.692  1.00  0.00     0.000 OA
HETATM    6  C11 UNL     1      27.513  11.006  48.771  1.00  0.00     0.136 A 
HETATM    7  N3  UNL     1      27.286   9.905  48.438  1.00  0.00    -0.264 N 
HETATM    8  C12 UNL     1      27.068   8.641  48.175  1.00  0.00     0.040 C 
HETATM    9  C13 UNL     1      26.921   7.357  47.949  1.00  0.00     0.064 C 
HETATM   10  C14 UNL     1      26.426   9.291  46.970  1.00  0.00     0.086 C 
HETATM   11  C15 UNL     1      27.682   9.893  46.304  1.00  0.00    -0.015 C 
HETATM   12  C16 UNL     1      28.977   9.834  46.808  1.00  0.00    -0.051 C 
HETATM   13  C17 UNL     1      29.738  10.586  45.722  1.00  0.00     0.202 C 
HETATM   14  O3  UNL     1      31.082  10.342  45.880  1.00  0.00    -0.387 OA
HETATM   15  C18 UNL     1      31.620  10.965  47.005  1.00  0.00     0.168 C 
HETATM   16  C19 UNL     1      30.772  10.611  48.239  1.00  0.00     0.040 C 
HETATM   17  C20 UNL     1      29.947   9.433  47.813  1.00  0.00     0.073 C 
HETATM   18  H9  UNL     1      29.046   9.229  51.019  1.00  0.00     0.183 HD
ENDROOT
BRANCH   3  19
HETATM   19  N1  UNL     1      30.845   8.245  49.607  1.00  0.00    -0.359 N 
HETATM   20  H5  UNL     1      31.058   8.604  50.564  1.00  0.00     0.162 HD
BRANCH  19  21
HETATM   21  C5  UNL     1      31.875   7.427  49.086  1.00  0.00     0.032 A 
HETATM   22  C6  UNL     1      33.145   7.955  48.847  1.00  0.00     0.032 A 
HETATM   23  C7  UNL     1      34.193   7.232  48.361  1.00  0.00     0.046 A 
HETATM   24  C8  UNL     1      34.045   5.898  48.073  1.00  0.00     0.138 A 
HETATM   25  F1  UNL     1      35.101   5.207  47.589  1.00  0.00    -0.204 F 
HETATM   26  C9  UNL     1      32.823   5.319  48.286  1.00  0.00     0.074 A 
HETATM   27 CL1  UNL     1      32.677   3.619  47.908  1.00  0.00    -0.081 Cl
HETATM   28  C10 UNL     1      31.801   6.090  48.776  1.00  0.00     0.056 A 
ENDBRANCH  19  21
ENDBRANCH   3  19
BRANCH   1  29
HETATM   29  O1  UNL     1      27.766   5.065  48.248  1.00  0.00    -0.356 OA
HETATM   30  C1  UNL     1      26.720   4.611  49.123  1.00  0.00     0.210 C 
ENDBRANCH   1  29
TORSDOF 3
ENDMDL
