MODEL 1
REMARK VINA RESULT:      -7.6      0.000      0.000
REMARK  2 active torsions:
REMARK  status: ('A' for Active; 'I' for Inactive)
REMARK    1  A    between atoms: C4_4  and  C5_5 
REMARK    2  A    between atoms: C5_5  and  O1_6 
ROOT
HETATM    1  C1  UNL     1      26.828   6.205  48.940  1.00  0.00     0.068 C 
HETATM    2  C2  UNL     1      25.886   5.101  49.312  1.00  0.00     0.007 A 
HETATM    3  C3  UNL     1      24.667   4.867  48.819  1.00  0.00     0.034 A 
HETATM    4  C4  UNL     1      23.762   3.759  49.213  1.00  0.00    -0.021 A 
HETATM    5  C6  UNL     1      24.168   2.882  50.156  1.00  0.00     0.013 A 
HETATM    6  C7  UNL     1      23.163   1.842  50.435  1.00  0.00     0.163 C 
HETATM    7  N1  UNL     1      22.451   1.983  51.706  1.00  0.00    -0.384 N 
HETATM    8  C8  UNL     1      23.505   1.939  52.681  1.00  0.00     0.045 A 
HETATM    9  C9  UNL     1      23.771   0.612  52.684  1.00  0.00     0.033 A 
HETATM   10  C10 UNL     1      25.031   0.712  53.214  1.00  0.00     0.031 A 
HETATM   11  C11 UNL     1      25.365   2.020  53.456  1.00  0.00     0.030 A 
HETATM   12  C12 UNL     1      24.717   3.231  53.291  1.00  0.00     0.050 A 
HETATM   13  C13 UNL     1      23.448   3.288  52.770  1.00  0.00     0.039 A 
HETATM   14 BR1  UNL     1      22.312   4.760  52.433  1.00  0.00    -0.049 Br
HETATM   15  N2  UNL     1      26.705   2.455  53.818  1.00  0.00    -0.372 N 
HETATM   16  C14 UNL     1      27.038   2.223  52.357  1.00  0.00     0.273 C 
HETATM   17  N3  UNL     1      25.878   2.344  51.588  1.00  0.00    -0.253 NA
HETATM   18  C15 UNL     1      25.522   3.128  50.717  1.00  0.00     0.133 A 
HETATM   19  N4  UNL     1      26.352   4.193  50.314  1.00  0.00    -0.345 N 
HETATM   20  H10 UNL     1      21.390   2.083  51.681  1.00  0.00     0.160 HD
HETATM   21  H14 UNL     1      27.314   2.787  54.594  1.00  0.00     0.161 HD
HETATM   22  H17 UNL     1      27.283   4.269  50.775  1.00  0.00     0.167 HD
ENDROOT
BRANCH   4  23
HETATM   23  C5  UNL     1      22.518   3.890  48.430  1.00  0.00     0.203 C 
BRANCH  23  24
HETATM   24  O1  UNL     1      22.678   4.838  47.418  1.00  0.00    -0.396 OA
HETATM   25  H7  UNL     1      23.617   4.731  47.104  1.00  0.00     0.209 HD
ENDBRANCH  23  24
ENDBRANCH   4  23
TORSDOF 2
ENDMDL
MODEL 2
REMARK VINA RESULT:      -7.2      2.969      4.640
REMARK  2 active torsions:
REMARK  status: ('A' for Active; 'I' for Inactive)
REMARK    1  A    between atoms: C4_4  and  C5_5 
REMARK    2  A    between atoms: C5_5  and  O1_6 
ROOT
HETATM    1  C1  UNL     1      21.135   0.352  51.249  1.00  0.00     0.068 C 
HETATM    2  C2  UNL     1      22.333   0.943  51.927  1.00  0.00     0.007 A 
HETATM    3  C3  UNL     1      22.572   2.232  52.184  1.00  0.00     0.034 A 
HETATM    4  C4  UNL     1      23.774   2.779  52.861  1.00  0.00    -0.021 A 
HETATM    5  C6  UNL     1      24.742   1.933  53.270  1.00  0.00     0.013 A 
HETATM    6  C7  UNL     1      25.864   2.627  53.925  1.00  0.00     0.163 C 
HETATM    7  N1  UNL     1      27.092   2.718  53.132  1.00  0.00    -0.384 N 
HETATM    8  C8  UNL     1      27.427   1.343  52.883  1.00  0.00     0.045 A 
HETATM    9  C9  UNL     1      27.928   0.997  54.091  1.00  0.00     0.033 A 
HETATM   10  C10 UNL     1      27.762  -0.356  53.942  1.00  0.00     0.031 A 
HETATM   11  C11 UNL     1      27.206  -0.655  52.725  1.00  0.00     0.030 A 
HETATM   12  C12 UNL     1      26.793   0.095  51.638  1.00  0.00     0.050 A 
HETATM   13  C13 UNL     1      26.898   1.464  51.643  1.00  0.00     0.039 A 
HETATM   14 BR1  UNL     1      26.437   2.747  50.335  1.00  0.00    -0.049 Br
HETATM   15  N2  UNL     1      26.720  -1.979  52.365  1.00  0.00    -0.372 N 
HETATM   16  C14 UNL     1      25.547  -1.655  53.269  1.00  0.00     0.273 C 
HETATM   17  N3  UNL     1      25.382  -0.270  53.345  1.00  0.00    -0.253 NA
HETATM   18  C15 UNL     1      24.492   0.494  52.991  1.00  0.00     0.133 A 
HETATM   19  N4  UNL     1      23.336   0.014  52.346  1.00  0.00    -0.345 N 
HETATM   20  H10 UNL     1      27.476   3.687  52.908  1.00  0.00     0.160 HD
HETATM   21  H14 UNL     1      26.915  -2.836  51.810  1.00  0.00     0.161 HD
HETATM   22  H17 UNL     1      23.266  -1.015  52.203  1.00  0.00     0.167 HD
ENDROOT
BRANCH   4  23
HETATM   23  C5  UNL     1      23.629   4.247  52.921  1.00  0.00     0.203 C 
BRANCH  23  24
HETATM   24  O1  UNL     1      24.223   4.841  51.806  1.00  0.00    -0.396 OA
HETATM   25  H7  UNL     1      23.481   5.297  51.324  1.00  0.00     0.209 HD
ENDBRANCH  23  24
ENDBRANCH   4  23
TORSDOF 2
ENDMDL
MODEL 3
REMARK VINA RESULT:      -6.8      2.362      4.416
REMARK  2 active torsions:
REMARK  status: ('A' for Active; 'I' for Inactive)
REMARK    1  A    between atoms: C4_4  and  C5_5 
REMARK    2  A    between atoms: C5_5  and  O1_6 
ROOT
HETATM    1  C1  UNL     1      26.389   0.913  54.503  1.00  0.00     0.068 C 
HETATM    2  C2  UNL     1      25.545   1.252  53.313  1.00  0.00     0.007 A 
HETATM    3  C3  UNL     1      25.850   2.071  52.302  1.00  0.00     0.034 A 
HETATM    4  C4  UNL     1      24.984   2.381  51.137  1.00  0.00    -0.021 A 
HETATM    5  C6  UNL     1      23.766   1.806  51.051  1.00  0.00     0.013 A 
HETATM    6  C7  UNL     1      23.031   2.211  49.840  1.00  0.00     0.163 C 
HETATM    7  N1  UNL     1      21.928   3.148  50.061  1.00  0.00    -0.384 N 
HETATM    8  C8  UNL     1      21.063   2.435  50.959  1.00  0.00     0.045 A 
HETATM    9  C9  UNL     1      20.490   1.564  50.096  1.00  0.00     0.033 A 
HETATM   10  C10 UNL     1      20.094   0.654  51.042  1.00  0.00     0.031 A 
HETATM   11  C11 UNL     1      20.458   1.057  52.301  1.00  0.00     0.030 A 
HETATM   12  C12 UNL     1      21.115   2.161  52.812  1.00  0.00     0.050 A 
HETATM   13  C13 UNL     1      21.571   3.158  51.985  1.00  0.00     0.039 A 
HETATM   14 BR1  UNL     1      22.482   4.768  52.368  1.00  0.00    -0.049 Br
HETATM   15  N2  UNL     1      20.362   0.207  53.478  1.00  0.00    -0.372 N 
HETATM   16  C14 UNL     1      21.585  -0.493  52.915  1.00  0.00     0.273 C 
HETATM   17  N3  UNL     1      22.294   0.390  52.098  1.00  0.00    -0.253 NA
HETATM   18  C15 UNL     1      23.409   0.893  52.168  1.00  0.00     0.133 A 
HETATM   19  N4  UNL     1      24.261   0.623  53.257  1.00  0.00    -0.345 N 
HETATM   20  H10 UNL     1      21.963   4.092  49.566  1.00  0.00     0.160 HD
HETATM   21  H14 UNL     1      19.828   0.013  54.349  1.00  0.00     0.161 HD
HETATM   22  H17 UNL     1      23.908  -0.034  53.984  1.00  0.00     0.167 HD
ENDROOT
BRANCH   4  23
HETATM   23  C5  UNL     1      25.708   3.338  50.278  1.00  0.00     0.203 C 
BRANCH  23  24
HETATM   24  O1  UNL     1      27.003   3.539  50.758  1.00  0.00    -0.396 OA
HETATM   25  H7  UNL     1      27.592   3.000  50.163  1.00  0.00     0.209 HD
ENDBRANCH  23  24
ENDBRANCH   4  23
TORSDOF 2
ENDMDL
MODEL 4
REMARK VINA RESULT:      -6.8      2.414      5.372
REMARK  2 active torsions:
REMARK  status: ('A' for Active; 'I' for Inactive)
REMARK    1  A    between atoms: C4_4  and  C5_5 
REMARK    2  A    between atoms: C5_5  and  O1_6 
ROOT
HETATM    1  C1  UNL     1      22.081  -0.913  53.993  1.00  0.00     0.068 C 
HETATM    2  C2  UNL     1      22.954   0.010  53.198  1.00  0.00     0.007 A 
HETATM    3  C3  UNL     1      24.202   0.395  53.478  1.00  0.00     0.034 A 
HETATM    4  C4  UNL     1      25.037   1.313  52.663  1.00  0.00    -0.021 A 
HETATM    5  C6  UNL     1      24.527   1.832  51.527  1.00  0.00     0.013 A 
HETATM    6  C7  UNL     1      25.476   2.719  50.831  1.00  0.00     0.163 C 
HETATM    7  N1  UNL     1      25.180   4.150  50.927  1.00  0.00    -0.384 N 
HETATM    8  C8  UNL     1      23.872   4.256  50.343  1.00  0.00     0.045 A 
HETATM    9  C9  UNL     1      24.187   4.147  49.031  1.00  0.00     0.033 A 
HETATM   10  C10 UNL     1      22.938   3.771  48.607  1.00  0.00     0.031 A 
HETATM   11  C11 UNL     1      22.059   3.698  49.657  1.00  0.00     0.030 A 
HETATM   12  C12 UNL     1      22.156   3.923  51.019  1.00  0.00     0.050 A 
HETATM   13  C13 UNL     1      23.345   4.305  51.589  1.00  0.00     0.039 A 
HETATM   14 BR1  UNL     1      23.793   4.690  53.384  1.00  0.00    -0.049 Br
HETATM   15  N2  UNL     1      20.724   3.127  49.553  1.00  0.00    -0.372 N 
HETATM   16  C14 UNL     1      21.436   1.788  49.535  1.00  0.00     0.273 C 
HETATM   17  N3  UNL     1      22.670   1.906  50.181  1.00  0.00    -0.253 NA
HETATM   18  C15 UNL     1      23.138   1.416  51.201  1.00  0.00     0.133 A 
HETATM   19  N4  UNL     1      22.377   0.540  52.001  1.00  0.00    -0.345 N 
HETATM   20  H10 UNL     1      25.913   4.787  51.366  1.00  0.00     0.160 HD
HETATM   21  H14 UNL     1      19.708   3.340  49.501  1.00  0.00     0.161 HD
HETATM   22  H17 UNL     1      21.414   0.316  51.676  1.00  0.00     0.167 HD
ENDROOT
BRANCH   4  23
HETATM   23  C5  UNL     1      26.334   1.471  53.349  1.00  0.00     0.203 C 
BRANCH  23  24
HETATM   24  O1  UNL     1      26.300   2.571  54.207  1.00  0.00    -0.396 OA
HETATM   25  H7  UNL     1      27.246   2.722  54.480  1.00  0.00     0.209 HD
ENDBRANCH  23  24
ENDBRANCH   4  23
TORSDOF 2
ENDMDL
MODEL 5
REMARK VINA RESULT:      -6.6      6.835      9.865
REMARK  2 active torsions:
REMARK  status: ('A' for Active; 'I' for Inactive)
REMARK    1  A    between atoms: C4_4  and  C5_5 
REMARK    2  A    between atoms: C5_5  and  O1_6 
ROOT
HETATM    1  C1  UNL     1      27.609   5.924  48.207  1.00  0.00     0.068 C 
HETATM    2  C2  UNL     1      29.003   6.458  48.334  1.00  0.00     0.007 A 
HETATM    3  C3  UNL     1      29.375   7.717  48.582  1.00  0.00     0.034 A 
HETATM    4  C4  UNL     1      30.771   8.207  48.701  1.00  0.00    -0.021 A 
HETATM    5  C6  UNL     1      31.790   7.336  48.549  1.00  0.00     0.013 A 
HETATM    6  C7  UNL     1      33.110   7.973  48.698  1.00  0.00     0.163 C 
HETATM    7  N1  UNL     1      33.858   8.163  47.453  1.00  0.00    -0.384 N 
HETATM    8  C8  UNL     1      33.999   6.827  46.946  1.00  0.00     0.045 A 
HETATM    9  C9  UNL     1      34.974   6.364  47.762  1.00  0.00     0.033 A 
HETATM   10  C10 UNL     1      34.713   5.032  47.569  1.00  0.00     0.031 A 
HETATM   11  C11 UNL     1      33.662   4.853  46.706  1.00  0.00     0.030 A 
HETATM   12  C12 UNL     1      32.834   5.706  45.998  1.00  0.00     0.050 A 
HETATM   13  C13 UNL     1      32.977   7.068  46.092  1.00  0.00     0.039 A 
HETATM   14 BR1  UNL     1      32.025   8.474  45.262  1.00  0.00    -0.049 Br
HETATM   15  N2  UNL     1      33.022   3.567  46.472  1.00  0.00    -0.372 N 
HETATM   16  C14 UNL     1      32.387   3.779  47.833  1.00  0.00     0.273 C 
HETATM   17  N3  UNL     1      32.321   5.147  48.110  1.00  0.00    -0.253 NA
HETATM   18  C15 UNL     1      31.393   5.931  48.270  1.00  0.00     0.133 A 
HETATM   19  N4  UNL     1      30.055   5.504  48.166  1.00  0.00    -0.345 N 
HETATM   20  H10 UNL     1      34.134   9.156  47.178  1.00  0.00     0.160 HD
HETATM   21  H14 UNL     1      32.919   2.774  45.807  1.00  0.00     0.161 HD
HETATM   22  H17 UNL     1      29.893   4.495  47.968  1.00  0.00     0.167 HD
ENDROOT
BRANCH   4  23
HETATM   23  C5  UNL     1      30.719   9.659  48.965  1.00  0.00     0.203 C 
BRANCH  23  24
HETATM   24  O1  UNL     1      30.533   9.899  50.327  1.00  0.00    -0.396 OA
HETATM   25  H7  UNL     1      30.999   9.152  50.792  1.00  0.00     0.209 HD
ENDBRANCH  23  24
ENDBRANCH   4  23
TORSDOF 2
ENDMDL
MODEL 6
REMARK VINA RESULT:      -6.6      8.815     10.478
REMARK  2 active torsions:
REMARK  status: ('A' for Active; 'I' for Inactive)
REMARK    1  A    between atoms: C4_4  and  C5_5 
REMARK    2  A    between atoms: C5_5  and  O1_6 
ROOT
HETATM    1  C1  UNL     1      33.388  10.369  45.503  1.00  0.00     0.068 C 
HETATM    2  C2  UNL     1      32.976   9.136  46.246  1.00  0.00     0.007 A 
HETATM    3  C3  UNL     1      32.574   9.045  47.517  1.00  0.00     0.034 A 
HETATM    4  C4  UNL     1      32.172   7.800  48.219  1.00  0.00    -0.021 A 
HETATM    5  C6  UNL     1      32.202   6.629  47.551  1.00  0.00     0.013 A 
HETATM    6  C7  UNL     1      31.773   5.490  48.381  1.00  0.00     0.163 C 
HETATM    7  N1  UNL     1      32.847   4.596  48.820  1.00  0.00    -0.384 N 
HETATM    8  C8  UNL     1      33.416   4.132  47.586  1.00  0.00     0.045 A 
HETATM    9  C9  UNL     1      32.474   3.236  47.211  1.00  0.00     0.033 A 
HETATM   10  C10 UNL     1      32.807   3.214  45.881  1.00  0.00     0.031 A 
HETATM   11  C11 UNL     1      33.854   4.059  45.619  1.00  0.00     0.030 A 
HETATM   12  C12 UNL     1      34.635   4.902  46.389  1.00  0.00     0.050 A 
HETATM   13  C13 UNL     1      34.420   5.027  47.739  1.00  0.00     0.039 A 
HETATM   14 BR1  UNL     1      35.303   6.070  49.044  1.00  0.00    -0.049 Br
HETATM   15  N2  UNL     1      34.292   4.407  44.275  1.00  0.00    -0.372 N 
HETATM   16  C14 UNL     1      33.055   5.284  44.237  1.00  0.00     0.273 C 
HETATM   17  N3  UNL     1      32.696   5.643  45.538  1.00  0.00    -0.253 NA
HETATM   18  C15 UNL     1      32.649   6.711  46.136  1.00  0.00     0.133 A 
HETATM   19  N4  UNL     1      33.021   7.914  45.504  1.00  0.00    -0.345 N 
HETATM   20  H10 UNL     1      32.996   4.464  49.868  1.00  0.00     0.160 HD
HETATM   21  H14 UNL     1      35.020   4.253  43.549  1.00  0.00     0.161 HD
HETATM   22  H17 UNL     1      33.317   7.854  44.508  1.00  0.00     0.167 HD
ENDROOT
BRANCH   4  23
HETATM   23  C5  UNL     1      31.818   8.159  49.606  1.00  0.00     0.203 C 
BRANCH  23  24
HETATM   24  O1  UNL     1      30.444   8.375  49.717  1.00  0.00    -0.396 OA
HETATM   25  H7  UNL     1      30.170   8.779  48.849  1.00  0.00     0.209 HD
ENDBRANCH  23  24
ENDBRANCH   4  23
TORSDOF 2
ENDMDL
MODEL 7
REMARK VINA RESULT:      -6.4      2.675      4.450
REMARK  2 active torsions:
REMARK  status: ('A' for Active; 'I' for Inactive)
REMARK    1  A    between atoms: C4_4  and  C5_5 
REMARK    2  A    between atoms: C5_5  and  O1_6 
ROOT
HETATM    1  C1  UNL     1      19.508   6.302  49.688  1.00  0.00     0.068 C 
HETATM    2  C2  UNL     1      20.614   5.671  50.477  1.00  0.00     0.007 A 
HETATM    3  C3  UNL     1      21.832   6.166  50.714  1.00  0.00     0.034 A 
HETATM    4  C4  UNL     1      22.903   5.508  51.504  1.00  0.00    -0.021 A 
HETATM    5  C6  UNL     1      22.669   4.297  52.050  1.00  0.00     0.013 A 
HETATM    6  C7  UNL     1      23.824   3.780  52.804  1.00  0.00     0.163 C 
HETATM    7  N1  UNL     1      24.562   2.696  52.153  1.00  0.00    -0.384 N 
HETATM    8  C8  UNL     1      23.568   1.671  51.992  1.00  0.00     0.045 A 
HETATM    9  C9  UNL     1      23.497   1.206  53.260  1.00  0.00     0.033 A 
HETATM   10  C10 UNL     1      22.259   0.629  53.140  1.00  0.00     0.031 A 
HETATM   11  C11 UNL     1      21.751   0.805  51.878  1.00  0.00     0.030 A 
HETATM   12  C12 UNL     1      22.209   1.418  50.726  1.00  0.00     0.050 A 
HETATM   13  C13 UNL     1      23.434   2.039  50.696  1.00  0.00     0.039 A 
HETATM   14 BR1  UNL     1      24.331   2.944  49.300  1.00  0.00    -0.049 Br
HETATM   15  N2  UNL     1      20.378   0.490  51.511  1.00  0.00    -0.372 N 
HETATM   16  C14 UNL     1      20.020   1.756  52.265  1.00  0.00     0.273 C 
HETATM   17  N3  UNL     1      21.116   2.621  52.273  1.00  0.00    -0.253 NA
HETATM   18  C15 UNL     1      21.319   3.731  51.795  1.00  0.00     0.133 A 
HETATM   19  N4  UNL     1      20.327   4.388  51.040  1.00  0.00    -0.345 N 
HETATM   20  H10 UNL     1      25.596   2.847  51.940  1.00  0.00     0.160 HD
HETATM   21  H14 UNL     1      19.762  -0.184  51.013  1.00  0.00     0.161 HD
HETATM   22  H17 UNL     1      19.416   3.897  50.925  1.00  0.00     0.167 HD
ENDROOT
BRANCH   4  23
HETATM   23  C5  UNL     1      24.081   6.398  51.497  1.00  0.00     0.203 C 
BRANCH  23  24
HETATM   24  O1  UNL     1      23.680   7.735  51.458  1.00  0.00    -0.396 OA
HETATM   25  H7  UNL     1      24.156   8.130  50.678  1.00  0.00     0.209 HD
ENDBRANCH  23  24
ENDBRANCH   4  23
TORSDOF 2
ENDMDL
MODEL 8
REMARK VINA RESULT:      -6.4      8.129     10.093
REMARK  2 active torsions:
REMARK  status: ('A' for Active; 'I' for Inactive)
REMARK    1  A    between atoms: C4_4  and  C5_5 
REMARK    2  A    between atoms: C5_5  and  O1_6 
ROOT
HETATM    1  C1  UNL     1      33.148   5.856  43.699  1.00  0.00     0.068 C 
HETATM    2  C2  UNL     1      32.935   6.325  45.106  1.00  0.00     0.007 A 
HETATM    3  C3  UNL     1      33.192   5.659  46.236  1.00  0.00     0.034 A 
HETATM    4  C4  UNL     1      32.967   6.160  47.615  1.00  0.00    -0.021 A 
HETATM    5  C6  UNL     1      32.456   7.396  47.791  1.00  0.00     0.013 A 
HETATM    6  C7  UNL     1      32.295   7.747  49.213  1.00  0.00     0.163 C 
HETATM    7  N1  UNL     1      30.917   7.741  49.708  1.00  0.00    -0.384 N 
HETATM    8  C8  UNL     1      30.263   8.711  48.873  1.00  0.00     0.045 A 
HETATM    9  C9  UNL     1      30.729   9.854  49.427  1.00  0.00     0.033 A 
HETATM   10  C10 UNL     1      30.488  10.657  48.342  1.00  0.00     0.031 A 
HETATM   11  C11 UNL     1      29.936   9.942  47.310  1.00  0.00     0.030 A 
HETATM   12  C12 UNL     1      29.571   8.619  47.135  1.00  0.00     0.050 A 
HETATM   13  C13 UNL     1      29.753   7.697  48.136  1.00  0.00     0.039 A 
HETATM   14 BR1  UNL     1      29.358   5.851  48.208  1.00  0.00    -0.049 Br
HETATM   15  N2  UNL     1      29.764  10.470  45.965  1.00  0.00    -0.372 N 
HETATM   16  C14 UNL     1      31.261  10.269  45.832  1.00  0.00     0.273 C 
HETATM   17  N3  UNL     1      31.678   9.263  46.708  1.00  0.00    -0.253 NA
HETATM   18  C15 UNL     1      32.162   8.150  46.545  1.00  0.00     0.133 A 
HETATM   19  N4  UNL     1      32.391   7.640  45.252  1.00  0.00    -0.345 N 
HETATM   20  H10 UNL     1      30.674   7.087  50.514  1.00  0.00     0.160 HD
HETATM   21  H14 UNL     1      29.080  10.841  45.276  1.00  0.00     0.161 HD
HETATM   22  H17 UNL     1      32.149   8.257  44.449  1.00  0.00     0.167 HD
ENDROOT
BRANCH   4  23
HETATM   23  C5  UNL     1      33.375   5.095  48.553  1.00  0.00     0.203 C 
BRANCH  23  24
HETATM   24  O1  UNL     1      32.417   4.080  48.582  1.00  0.00    -0.396 OA
HETATM   25  H7  UNL     1      31.539   4.547  48.602  1.00  0.00     0.209 HD
ENDBRANCH  23  24
ENDBRANCH   4  23
TORSDOF 2
ENDMDL
MODEL 9
REMARK VINA RESULT:      -6.3      8.004     10.180
REMARK  2 active torsions:
REMARK  status: ('A' for Active; 'I' for Inactive)
REMARK    1  A    between atoms: C4_4  and  C5_5 
REMARK    2  A    between atoms: C5_5  and  O1_6 
ROOT
HETATM    1  C1  UNL     1      27.807   9.019  49.704  1.00  0.00     0.068 C 
HETATM    2  C2  UNL     1      29.189   9.153  49.142  1.00  0.00     0.007 A 
HETATM    3  C3  UNL     1      29.683  10.164  48.421  1.00  0.00     0.034 A 
HETATM    4  C4  UNL     1      31.062  10.260  47.881  1.00  0.00    -0.021 A 
HETATM    5  C6  UNL     1      31.932   9.256  48.115  1.00  0.00     0.013 A 
HETATM    6  C7  UNL     1      33.257   9.501  47.518  1.00  0.00     0.163 C 
HETATM    7  N1  UNL     1      33.563   8.707  46.327  1.00  0.00    -0.384 N 
HETATM    8  C8  UNL     1      33.467   7.354  46.798  1.00  0.00     0.045 A 
HETATM    9  C9  UNL     1      34.632   7.254  47.478  1.00  0.00     0.033 A 
HETATM   10  C10 UNL     1      34.259   6.194  48.264  1.00  0.00     0.031 A 
HETATM   11  C11 UNL     1      32.976   5.798  47.984  1.00  0.00     0.030 A 
HETATM   12  C12 UNL     1      32.003   6.221  47.096  1.00  0.00     0.050 A 
HETATM   13  C13 UNL     1      32.233   7.274  46.245  1.00  0.00     0.039 A 
HETATM   14 BR1  UNL     1      31.131   8.073  44.935  1.00  0.00    -0.049 Br
HETATM   15  N2  UNL     1      32.234   4.842  48.792  1.00  0.00    -0.372 N 
HETATM   16  C14 UNL     1      32.091   5.983  49.782  1.00  0.00     0.273 C 
HETATM   17  N3  UNL     1      32.185   7.202  49.107  1.00  0.00    -0.253 NA
HETATM   18  C15 UNL     1      31.399   8.122  48.915  1.00  0.00     0.133 A 
HETATM   19  N4  UNL     1      30.082   8.068  49.411  1.00  0.00    -0.345 N 
HETATM   20  H10 UNL     1      33.781   9.224  45.420  1.00  0.00     0.160 HD
HETATM   21  H14 UNL     1      31.881   3.865  48.849  1.00  0.00     0.161 HD
HETATM   22  H17 UNL     1      29.817   7.225  49.960  1.00  0.00     0.167 HD
ENDROOT
BRANCH   4  23
HETATM   23  C5  UNL     1      31.168  11.532  47.138  1.00  0.00     0.203 C 
BRANCH  23  24
HETATM   24  O1  UNL     1      31.424  12.587  48.015  1.00  0.00    -0.396 OA
HETATM   25  H7  UNL     1      31.652  12.159  48.884  1.00  0.00     0.209 HD
ENDBRANCH  23  24
ENDBRANCH   4  23
TORSDOF 2
ENDMDL
