MODEL 1
REMARK VINA RESULT:      -7.5      0.000      0.000
REMARK  2 active torsions:
REMARK  status: ('A' for Active; 'I' for Inactive)
REMARK    1  A    between atoms: N1_1  and  C1_2 
REMARK    2  A    between atoms: C8_13  and  N5_14 
ROOT
HETATM    1  C1  UNL     1      21.894   1.417  52.589  1.00  0.00     0.082 A 
HETATM    2  S1  UNL     1      21.026  -0.256  52.753  1.00  0.00    -0.083 SA
HETATM    3  C2  UNL     1      22.587  -1.050  53.461  1.00  0.00     0.066 A 
HETATM    4  C3  UNL     1      23.534  -0.036  53.496  1.00  0.00     0.018 A 
HETATM    5  C4  UNL     1      24.808  -0.211  53.968  1.00  0.00     0.092 A 
HETATM    6  C5  UNL     1      25.944  -0.293  53.270  1.00  0.00     0.157 A 
HETATM    7  N2  UNL     1      26.376  -0.256  51.972  1.00  0.00    -0.222 NA
HETATM    8  C6  UNL     1      27.063   0.878  51.634  1.00  0.00     0.236 C 
HETATM    9  N3  UNL     1      27.385   1.831  52.564  1.00  0.00    -0.235 NA
HETATM   10  C7  UNL     1      26.332   2.227  53.345  1.00  0.00     0.236 C 
HETATM   11  N4  UNL     1      25.065   2.275  53.872  1.00  0.00    -0.223 NA
HETATM   12  C8  UNL     1      24.015   2.231  53.030  1.00  0.00     0.149 C 
HETATM   13  C15 UNL     1      23.152   1.170  53.055  1.00  0.00     0.057 A 
HETATM   14  N6  UNL     1      26.042  -0.400  54.725  1.00  0.00    -0.335 N 
HETATM   15  H12 UNL     1      26.535  -0.516  55.664  1.00  0.00     0.168 HD
ENDROOT
BRANCH  12  16
HETATM   16  N5  UNL     1      24.011   3.390  52.215  1.00  0.00    -0.315 N 
HETATM   17  C9  UNL     1      23.451   4.665  52.569  1.00  0.00     0.098 C 
HETATM   18  C10 UNL     1      22.637   5.588  52.149  1.00  0.00     0.018 C 
HETATM   19  C11 UNL     1      21.831   5.757  50.977  1.00  0.00     0.013 C 
HETATM   20  C12 UNL     1      21.624   5.036  49.903  1.00  0.00     0.109 C 
HETATM   21  S2  UNL     1      22.021   3.546  49.055  1.00  0.00     0.183 S 
HETATM   22  O1  UNL     1      20.843   2.598  48.893  1.00  0.00    -0.223 OA
HETATM   23  O2  UNL     1      23.208   2.649  49.968  1.00  0.00    -0.261 OA
HETATM   24  C13 UNL     1      24.527   2.954  49.660  1.00  0.00     0.172 C 
HETATM   25  C14 UNL     1      24.628   3.275  50.938  1.00  0.00     0.123 C 
ENDBRANCH  12  16
BRANCH   1  26
HETATM   26  N1  UNL     1      21.101   2.433  52.076  1.00  0.00    -0.393 N 
HETATM   27  H1  UNL     1      20.463   3.048  52.621  1.00  0.00     0.156 HD
HETATM   28  H2  UNL     1      21.111   2.642  51.046  1.00  0.00     0.156 HD
ENDBRANCH   1  26
TORSDOF 2
ENDMDL
MODEL 2
REMARK VINA RESULT:      -7.2      2.013      2.947
REMARK  2 active torsions:
REMARK  status: ('A' for Active; 'I' for Inactive)
REMARK    1  A    between atoms: N1_1  and  C1_2 
REMARK    2  A    between atoms: C8_13  and  N5_14 
ROOT
HETATM    1  C1  UNL     1      22.048   0.287  52.358  1.00  0.00     0.082 A 
HETATM    2  S1  UNL     1      22.572  -1.243  53.340  1.00  0.00    -0.083 SA
HETATM    3  C2  UNL     1      24.207  -0.430  53.823  1.00  0.00     0.066 A 
HETATM    4  C3  UNL     1      24.185   0.825  53.232  1.00  0.00     0.018 A 
HETATM    5  C4  UNL     1      25.198   1.738  53.363  1.00  0.00     0.092 A 
HETATM    6  C5  UNL     1      26.109   2.097  52.455  1.00  0.00     0.157 A 
HETATM    7  N2  UNL     1      26.464   1.814  51.163  1.00  0.00    -0.222 NA
HETATM    8  C6  UNL     1      26.191   2.813  50.268  1.00  0.00     0.236 C 
HETATM    9  N3  UNL     1      25.713   4.032  50.670  1.00  0.00    -0.235 NA
HETATM   10  C7  UNL     1      24.640   3.959  51.517  1.00  0.00     0.236 C 
HETATM   11  N4  UNL     1      23.668   3.419  52.321  1.00  0.00    -0.223 NA
HETATM   12  C8  UNL     1      22.986   2.346  51.876  1.00  0.00     0.149 C 
HETATM   13  C15 UNL     1      23.099   1.142  52.514  1.00  0.00     0.057 A 
HETATM   14  N6  UNL     1      26.177   2.744  53.764  1.00  0.00    -0.335 N 
HETATM   15  H12 UNL     1      26.562   3.405  54.507  1.00  0.00     0.168 HD
ENDROOT
BRANCH  12  16
HETATM   16  N5  UNL     1      22.225   2.707  50.737  1.00  0.00    -0.315 N 
HETATM   17  C9  UNL     1      22.600   2.480  49.368  1.00  0.00     0.098 C 
HETATM   18  C10 UNL     1      22.739   3.078  48.223  1.00  0.00     0.018 C 
HETATM   19  C11 UNL     1      22.549   4.421  47.763  1.00  0.00     0.013 C 
HETATM   20  C12 UNL     1      22.164   5.534  48.338  1.00  0.00     0.109 C 
HETATM   21  S2  UNL     1      21.638   6.287  49.838  1.00  0.00     0.183 S 
HETATM   22  O1  UNL     1      22.601   7.336  50.371  1.00  0.00    -0.223 OA
HETATM   23  O2  UNL     1      21.533   5.081  51.096  1.00  0.00    -0.261 OA
HETATM   24  C13 UNL     1      20.297   4.455  51.197  1.00  0.00     0.172 C 
HETATM   25  C14 UNL     1      20.975   3.341  50.979  1.00  0.00     0.123 C 
ENDBRANCH  12  16
BRANCH   1  26
HETATM   26  N1  UNL     1      20.800   0.189  51.758  1.00  0.00    -0.393 N 
HETATM   27  H1  UNL     1      20.370  -0.677  51.375  1.00  0.00     0.156 HD
HETATM   28  H2  UNL     1      20.194   1.042  51.658  1.00  0.00     0.156 HD
ENDBRANCH   1  26
TORSDOF 2
ENDMDL
MODEL 3
REMARK VINA RESULT:      -7.2      1.861      3.483
REMARK  2 active torsions:
REMARK  status: ('A' for Active; 'I' for Inactive)
REMARK    1  A    between atoms: N1_1  and  C1_2 
REMARK    2  A    between atoms: C8_13  and  N5_14 
ROOT
HETATM    1  C1  UNL     1      25.937   1.519  53.610  1.00  0.00     0.082 A 
HETATM    2  S1  UNL     1      26.598   0.358  54.949  1.00  0.00    -0.083 SA
HETATM    3  C2  UNL     1      25.124  -0.804  54.735  1.00  0.00     0.066 A 
HETATM    4  C3  UNL     1      24.342  -0.230  53.741  1.00  0.00     0.018 A 
HETATM    5  C4  UNL     1      23.179  -0.788  53.281  1.00  0.00     0.092 A 
HETATM    6  C5  UNL     1      21.924  -0.397  53.520  1.00  0.00     0.157 A 
HETATM    7  N2  UNL     1      21.246   0.572  54.210  1.00  0.00    -0.222 NA
HETATM    8  C6  UNL     1      20.657   1.524  53.421  1.00  0.00     0.236 C 
HETATM    9  N3  UNL     1      20.656   1.429  52.055  1.00  0.00    -0.235 NA
HETATM   10  C7  UNL     1      21.888   1.175  51.512  1.00  0.00     0.236 C 
HETATM   11  N4  UNL     1      23.230   0.899  51.437  1.00  0.00    -0.223 NA
HETATM   12  C8  UNL     1      24.074   1.575  52.240  1.00  0.00     0.149 C 
HETATM   13  C15 UNL     1      24.779   0.920  53.210  1.00  0.00     0.057 A 
HETATM   14  N6  UNL     1      22.110  -1.566  52.662  1.00  0.00    -0.335 N 
HETATM   15  H12 UNL     1      21.807  -2.381  52.045  1.00  0.00     0.168 HD
ENDROOT
BRANCH  12  16
HETATM   16  N5  UNL     1      24.061   2.949  51.892  1.00  0.00    -0.315 N 
HETATM   17  C9  UNL     1      23.324   3.981  52.567  1.00  0.00     0.098 C 
HETATM   18  C10 UNL     1      22.484   4.952  52.365  1.00  0.00     0.018 C 
HETATM   19  C11 UNL     1      21.836   5.492  51.208  1.00  0.00     0.013 C 
HETATM   20  C12 UNL     1      21.859   5.199  49.931  1.00  0.00     0.109 C 
HETATM   21  S2  UNL     1      22.527   4.137  48.696  1.00  0.00     0.183 S 
HETATM   22  O1  UNL     1      21.491   3.255  48.018  1.00  0.00    -0.223 OA
HETATM   23  O2  UNL     1      23.663   3.030  49.425  1.00  0.00    -0.261 OA
HETATM   24  C13 UNL     1      24.972   3.490  49.470  1.00  0.00     0.172 C 
HETATM   25  C14 UNL     1      24.859   3.333  50.778  1.00  0.00     0.123 C 
ENDBRANCH  12  16
BRANCH   1  26
HETATM   26  N1  UNL     1      26.735   2.628  53.360  1.00  0.00    -0.393 N 
HETATM   27  H1  UNL     1      27.445   3.030  54.005  1.00  0.00     0.156 HD
HETATM   28  H2  UNL     1      26.652   3.142  52.448  1.00  0.00     0.156 HD
ENDBRANCH   1  26
TORSDOF 2
ENDMDL
MODEL 4
REMARK VINA RESULT:      -7.1      3.051      6.226
REMARK  2 active torsions:
REMARK  status: ('A' for Active; 'I' for Inactive)
REMARK    1  A    between atoms: N1_1  and  C1_2 
REMARK    2  A    between atoms: C8_13  and  N5_14 
ROOT
HETATM    1  C1  UNL     1      26.443   4.182  49.388  1.00  0.00     0.082 A 
HETATM    2  S1  UNL     1      27.695   5.387  48.638  1.00  0.00    -0.083 SA
HETATM    3  C2  UNL     1      26.672   6.873  49.201  1.00  0.00     0.066 A 
HETATM    4  C3  UNL     1      25.569   6.337  49.851  1.00  0.00     0.018 A 
HETATM    5  C4  UNL     1      24.588   7.102  50.424  1.00  0.00     0.092 A 
HETATM    6  C5  UNL     1      23.346   7.319  49.983  1.00  0.00     0.157 A 
HETATM    7  N2  UNL     1      22.534   6.972  48.937  1.00  0.00    -0.222 NA
HETATM    8  C6  UNL     1      21.524   6.107  49.265  1.00  0.00     0.236 C 
HETATM    9  N3  UNL     1      21.290   5.728  50.560  1.00  0.00    -0.235 NA
HETATM   10  C7  UNL     1      22.407   5.299  51.226  1.00  0.00     0.236 C 
HETATM   11  N4  UNL     1      23.724   5.006  51.477  1.00  0.00    -0.223 NA
HETATM   12  C8  UNL     1      24.437   4.375  50.525  1.00  0.00     0.149 C 
HETATM   13  C15 UNL     1      25.492   5.002  49.922  1.00  0.00     0.057 A 
HETATM   14  N6  UNL     1      23.736   7.967  51.234  1.00  0.00    -0.335 N 
HETATM   15  H12 UNL     1      23.604   8.577  52.100  1.00  0.00     0.168 HD
ENDROOT
BRANCH  12  16
HETATM   16  N5  UNL     1      23.907   3.077  50.316  1.00  0.00    -0.315 N 
HETATM   17  C9  UNL     1      23.207   2.634  49.142  1.00  0.00     0.098 C 
HETATM   18  C10 UNL     1      22.112   2.054  48.749  1.00  0.00     0.018 C 
HETATM   19  C11 UNL     1      20.959   1.529  49.418  1.00  0.00     0.013 C 
HETATM   20  C12 UNL     1      20.596   1.444  50.675  1.00  0.00     0.109 C 
HETATM   21  S2  UNL     1      21.038   1.794  52.341  1.00  0.00     0.183 S 
HETATM   22  O1  UNL     1      20.124   2.800  53.022  1.00  0.00    -0.223 OA
HETATM   23  O2  UNL     1      22.628   2.515  52.388  1.00  0.00    -0.261 OA
HETATM   24  C13 UNL     1      23.673   1.608  52.500  1.00  0.00     0.172 C 
HETATM   25  C14 UNL     1      24.096   2.134  51.363  1.00  0.00     0.123 C 
ENDBRANCH  12  16
BRANCH   1  26
HETATM   26  N1  UNL     1      26.768   2.842  49.236  1.00  0.00    -0.393 N 
HETATM   27  H1  UNL     1      26.138   2.034  49.418  1.00  0.00     0.156 HD
HETATM   28  H2  UNL     1      27.726   2.564  48.908  1.00  0.00     0.156 HD
ENDBRANCH   1  26
TORSDOF 2
ENDMDL
MODEL 5
REMARK VINA RESULT:      -6.8      2.638      4.348
REMARK  2 active torsions:
REMARK  status: ('A' for Active; 'I' for Inactive)
REMARK    1  A    between atoms: N1_1  and  C1_2 
REMARK    2  A    between atoms: C8_13  and  N5_14 
ROOT
HETATM    1  C1  UNL     1      24.738   2.402  51.509  1.00  0.00     0.082 A 
HETATM    2  S1  UNL     1      26.092   2.138  52.803  1.00  0.00    -0.083 SA
HETATM    3  C2  UNL     1      25.138   0.703  53.576  1.00  0.00     0.066 A 
HETATM    4  C3  UNL     1      23.977   0.584  52.825  1.00  0.00     0.018 A 
HETATM    5  C4  UNL     1      23.019  -0.367  53.065  1.00  0.00     0.092 A 
HETATM    6  C5  UNL     1      21.814  -0.205  53.615  1.00  0.00     0.157 A 
HETATM    7  N2  UNL     1      21.029   0.788  54.137  1.00  0.00    -0.222 NA
HETATM    8  C6  UNL     1      19.955   1.131  53.360  1.00  0.00     0.236 C 
HETATM    9  N3  UNL     1      19.641   0.442  52.219  1.00  0.00    -0.235 NA
HETATM   10  C7  UNL     1      20.699   0.259  51.369  1.00  0.00     0.236 C 
HETATM   11  N4  UNL     1      21.984   0.289  50.885  1.00  0.00    -0.223 NA
HETATM   12  C8  UNL     1      22.699   1.423  51.023  1.00  0.00     0.149 C 
HETATM   13  C15 UNL     1      23.816   1.444  51.812  1.00  0.00     0.057 A 
HETATM   14  N6  UNL     1      22.187  -1.558  53.205  1.00  0.00    -0.335 N 
HETATM   15  H12 UNL     1      22.055  -2.607  53.067  1.00  0.00     0.168 HD
ENDROOT
BRANCH  12  16
HETATM   16  N5  UNL     1      22.100   2.457  50.261  1.00  0.00    -0.315 N 
HETATM   17  C9  UNL     1      22.309   2.698  48.860  1.00  0.00     0.098 C 
HETATM   18  C10 UNL     1      22.632   3.626  48.009  1.00  0.00     0.018 C 
HETATM   19  C11 UNL     1      22.966   5.014  48.117  1.00  0.00     0.013 C 
HETATM   20  C12 UNL     1      23.066   5.851  49.121  1.00  0.00     0.109 C 
HETATM   21  S2  UNL     1      22.929   6.052  50.864  1.00  0.00     0.183 S 
HETATM   22  O1  UNL     1      24.243   6.388  51.550  1.00  0.00    -0.223 OA
HETATM   23  O2  UNL     1      22.404   4.553  51.588  1.00  0.00    -0.261 OA
HETATM   24  C13 UNL     1      21.027   4.407  51.686  1.00  0.00     0.172 C 
HETATM   25  C14 UNL     1      21.207   3.323  50.951  1.00  0.00     0.123 C 
ENDBRANCH  12  16
BRANCH   1  26
HETATM   26  N1  UNL     1      24.986   3.433  50.613  1.00  0.00    -0.393 N 
HETATM   27  H1  UNL     1      25.867   3.583  50.081  1.00  0.00     0.156 HD
HETATM   28  H2  UNL     1      24.247   4.153  50.417  1.00  0.00     0.156 HD
ENDBRANCH   1  26
TORSDOF 2
ENDMDL
MODEL 6
REMARK VINA RESULT:      -6.7      1.951      4.157
REMARK  2 active torsions:
REMARK  status: ('A' for Active; 'I' for Inactive)
REMARK    1  A    between atoms: N1_1  and  C1_2 
REMARK    2  A    between atoms: C8_13  and  N5_14 
ROOT
HETATM    1  C1  UNL     1      24.076   0.679  53.087  1.00  0.00     0.082 A 
HETATM    2  S1  UNL     1      23.545  -0.806  54.132  1.00  0.00    -0.083 SA
HETATM    3  C2  UNL     1      21.856  -0.857  53.287  1.00  0.00     0.066 A 
HETATM    4  C3  UNL     1      21.872   0.183  52.367  1.00  0.00     0.018 A 
HETATM    5  C4  UNL     1      20.822   0.468  51.535  1.00  0.00     0.092 A 
HETATM    6  C5  UNL     1      19.956   1.482  51.614  1.00  0.00     0.157 A 
HETATM    7  N2  UNL     1      19.691   2.569  52.402  1.00  0.00    -0.222 NA
HETATM    8  C6  UNL     1      19.985   3.775  51.824  1.00  0.00     0.236 C 
HETATM    9  N3  UNL     1      20.395   3.870  50.521  1.00  0.00    -0.235 NA
HETATM   10  C7  UNL     1      21.416   3.018  50.194  1.00  0.00     0.236 C 
HETATM   11  N4  UNL     1      22.355   2.025  50.319  1.00  0.00    -0.223 NA
HETATM   12  C8  UNL     1      23.099   1.978  51.441  1.00  0.00     0.149 C 
HETATM   13  C15 UNL     1      22.988   0.920  52.300  1.00  0.00     0.057 A 
HETATM   14  N6  UNL     1      19.787   0.541  50.508  1.00  0.00    -0.335 N 
HETATM   15  H12 UNL     1      19.335   0.138  49.630  1.00  0.00     0.168 HD
ENDROOT
BRANCH  12  16
HETATM   16  N5  UNL     1      23.916   3.133  51.517  1.00  0.00    -0.315 N 
HETATM   17  C9  UNL     1      23.688   4.270  52.365  1.00  0.00     0.098 C 
HETATM   18  C10 UNL     1      23.588   5.566  52.351  1.00  0.00     0.018 C 
HETATM   19  C11 UNL     1      23.678   6.568  51.332  1.00  0.00     0.013 C 
HETATM   20  C12 UNL     1      23.895   6.535  50.040  1.00  0.00     0.109 C 
HETATM   21  S2  UNL     1      24.206   5.509  48.645  1.00  0.00     0.183 S 
HETATM   22  O1  UNL     1      23.097   5.529  47.606  1.00  0.00    -0.223 OA
HETATM   23  O2  UNL     1      24.324   3.844  49.156  1.00  0.00    -0.261 OA
HETATM   24  C13 UNL     1      25.604   3.435  49.506  1.00  0.00     0.172 C 
HETATM   25  C14 UNL     1      25.067   3.157  50.682  1.00  0.00     0.123 C 
ENDBRANCH  12  16
BRANCH   1  26
HETATM   26  N1  UNL     1      25.360   1.138  53.344  1.00  0.00    -0.393 N 
HETATM   27  H1  UNL     1      26.125   1.241  52.647  1.00  0.00     0.156 HD
HETATM   28  H2  UNL     1      25.635   1.421  54.318  1.00  0.00     0.156 HD
ENDBRANCH   1  26
TORSDOF 2
ENDMDL
MODEL 7
REMARK VINA RESULT:      -6.6      9.102     10.485
REMARK  2 active torsions:
REMARK  status: ('A' for Active; 'I' for Inactive)
REMARK    1  A    between atoms: N1_1  and  C1_2 
REMARK    2  A    between atoms: C8_13  and  N5_14 
ROOT
HETATM    1  C1  UNL     1      28.667   8.244  48.382  1.00  0.00     0.082 A 
HETATM    2  S1  UNL     1      27.458   6.797  48.212  1.00  0.00    -0.083 SA
HETATM    3  C2  UNL     1      28.869   5.545  48.323  1.00  0.00     0.066 A 
HETATM    4  C3  UNL     1      30.024   6.301  48.467  1.00  0.00     0.018 A 
HETATM    5  C4  UNL     1      31.272   5.752  48.599  1.00  0.00     0.092 A 
HETATM    6  C5  UNL     1      32.254   5.705  47.695  1.00  0.00     0.157 A 
HETATM    7  N2  UNL     1      32.507   6.094  46.408  1.00  0.00    -0.222 NA
HETATM    8  C6  UNL     1      33.391   7.133  46.292  1.00  0.00     0.236 C 
HETATM    9  N3  UNL     1      34.048   7.646  47.379  1.00  0.00    -0.235 NA
HETATM   10  C7  UNL     1      33.230   7.941  48.437  1.00  0.00     0.236 C 
HETATM   11  N4  UNL     1      32.091   8.038  49.198  1.00  0.00    -0.223 NA
HETATM   12  C8  UNL     1      30.958   8.468  48.610  1.00  0.00     0.149 C 
HETATM   13  C15 UNL     1      29.882   7.633  48.491  1.00  0.00     0.057 A 
HETATM   14  N6  UNL     1      32.516   5.103  49.002  1.00  0.00    -0.335 N 
HETATM   15  H12 UNL     1      33.087   4.593  49.744  1.00  0.00     0.168 HD
ENDROOT
BRANCH  12  16
HETATM   16  N5  UNL     1      31.120   9.813  48.195  1.00  0.00    -0.315 N 
HETATM   17  C9  UNL     1      30.963  10.974  49.027  1.00  0.00     0.098 C 
HETATM   18  C10 UNL     1      30.354  12.120  49.096  1.00  0.00     0.018 C 
HETATM   19  C11 UNL     1      29.442  12.825  48.245  1.00  0.00     0.013 C 
HETATM   20  C12 UNL     1      28.893  12.563  47.084  1.00  0.00     0.109 C 
HETATM   21  S2  UNL     1      28.762  11.402  45.769  1.00  0.00     0.183 S 
HETATM   22  O1  UNL     1      27.372  10.805  45.611  1.00  0.00    -0.223 OA
HETATM   23  O2  UNL     1      29.811  10.042  46.078  1.00  0.00    -0.261 OA
HETATM   24  C13 UNL     1      31.100  10.178  45.578  1.00  0.00     0.172 C 
HETATM   25  C14 UNL     1      31.479  10.023  46.835  1.00  0.00     0.123 C 
ENDBRANCH  12  16
BRANCH   1  26
HETATM   26  N1  UNL     1      28.074   9.498  48.364  1.00  0.00    -0.393 N 
HETATM   27  H1  UNL     1      28.571  10.412  48.371  1.00  0.00     0.156 HD
HETATM   28  H2  UNL     1      27.027   9.587  48.340  1.00  0.00     0.156 HD
ENDBRANCH   1  26
TORSDOF 2
ENDMDL
MODEL 8
REMARK VINA RESULT:      -6.6      2.988      4.533
REMARK  2 active torsions:
REMARK  status: ('A' for Active; 'I' for Inactive)
REMARK    1  A    between atoms: N1_1  and  C1_2 
REMARK    2  A    between atoms: C8_13  and  N5_14 
ROOT
HETATM    1  C1  UNL     1      17.829   0.124  50.927  1.00  0.00     0.082 A 
HETATM    2  S1  UNL     1      16.867  -1.334  51.655  1.00  0.00    -0.083 SA
HETATM    3  C2  UNL     1      18.000  -1.387  53.166  1.00  0.00     0.066 A 
HETATM    4  C3  UNL     1      18.921  -0.367  52.974  1.00  0.00     0.018 A 
HETATM    5  C4  UNL     1      19.913  -0.068  53.870  1.00  0.00     0.092 A 
HETATM    6  C5  UNL     1      21.220  -0.319  53.771  1.00  0.00     0.157 A 
HETATM    7  N2  UNL     1      22.110  -0.894  52.904  1.00  0.00    -0.222 NA
HETATM    8  C6  UNL     1      22.938  -0.007  52.269  1.00  0.00     0.236 C 
HETATM    9  N3  UNL     1      22.941   1.327  52.581  1.00  0.00    -0.235 NA
HETATM   10  C7  UNL     1      21.697   1.898  52.604  1.00  0.00     0.236 C 
HETATM   11  N4  UNL     1      20.330   2.011  52.546  1.00  0.00    -0.223 NA
HETATM   12  C8  UNL     1      19.672   1.372  51.559  1.00  0.00     0.149 C 
HETATM   13  C15 UNL     1      18.804   0.357  51.853  1.00  0.00     0.057 A 
HETATM   14  N6  UNL     1      20.759   0.361  54.980  1.00  0.00    -0.335 N 
HETATM   15  H12 UNL     1      20.855   0.829  55.934  1.00  0.00     0.168 HD
ENDROOT
BRANCH  12  16
HETATM   16  N5  UNL     1      20.042   1.923  50.307  1.00  0.00    -0.315 N 
HETATM   17  C9  UNL     1      20.920   1.313  49.347  1.00  0.00     0.098 C 
HETATM   18  C10 UNL     1      21.980   1.537  48.629  1.00  0.00     0.018 C 
HETATM   19  C11 UNL     1      22.859   2.655  48.460  1.00  0.00     0.013 C 
HETATM   20  C12 UNL     1      22.908   3.860  48.972  1.00  0.00     0.109 C 
HETATM   21  S2  UNL     1      22.152   5.000  50.078  1.00  0.00     0.183 S 
HETATM   22  O1  UNL     1      23.022   5.373  51.268  1.00  0.00    -0.223 OA
HETATM   23  O2  UNL     1      20.716   4.285  50.767  1.00  0.00    -0.261 OA
HETATM   24  C13 UNL     1      19.553   4.507  50.042  1.00  0.00     0.172 C 
HETATM   25  C14 UNL     1      19.482   3.188  49.976  1.00  0.00     0.123 C 
ENDBRANCH  12  16
BRANCH   1  26
HETATM   26  N1  UNL     1      17.347   0.586  49.711  1.00  0.00    -0.393 N 
HETATM   27  H1  UNL     1      17.850   1.211  49.049  1.00  0.00     0.156 HD
HETATM   28  H2  UNL     1      16.389   0.306  49.382  1.00  0.00     0.156 HD
ENDBRANCH   1  26
TORSDOF 2
ENDMDL
MODEL 9
REMARK VINA RESULT:      -6.5      2.923      6.111
REMARK  2 active torsions:
REMARK  status: ('A' for Active; 'I' for Inactive)
REMARK    1  A    between atoms: N1_1  and  C1_2 
REMARK    2  A    between atoms: C8_13  and  N5_14 
ROOT
HETATM    1  C1  UNL     1      22.424   3.060  48.687  1.00  0.00     0.082 A 
HETATM    2  S1  UNL     1      21.160   3.161  47.283  1.00  0.00    -0.083 SA
HETATM    3  C2  UNL     1      21.788   4.869  46.778  1.00  0.00     0.066 A 
HETATM    4  C3  UNL     1      22.816   5.162  47.663  1.00  0.00     0.018 A 
HETATM    5  C4  UNL     1      23.546   6.320  47.613  1.00  0.00     0.092 A 
HETATM    6  C5  UNL     1      23.482   7.372  48.433  1.00  0.00     0.157 A 
HETATM    7  N2  UNL     1      22.799   7.792  49.542  1.00  0.00    -0.222 NA
HETATM    8  C6  UNL     1      23.542   7.818  50.691  1.00  0.00     0.236 C 
HETATM    9  N3  UNL     1      24.887   7.560  50.687  1.00  0.00    -0.235 NA
HETATM   10  C7  UNL     1      25.233   6.414  50.021  1.00  0.00     0.236 C 
HETATM   11  N4  UNL     1      25.106   5.275  49.265  1.00  0.00    -0.223 NA
HETATM   12  C8  UNL     1      24.082   4.440  49.524  1.00  0.00     0.149 C 
HETATM   13  C15 UNL     1      23.100   4.241  48.593  1.00  0.00     0.057 A 
HETATM   14  N6  UNL     1      24.445   7.436  47.334  1.00  0.00    -0.335 N 
HETATM   15  H12 UNL     1      25.211   7.869  46.732  1.00  0.00     0.168 HD
ENDROOT
BRANCH  12  16
HETATM   16  N5  UNL     1      24.237   3.886  50.819  1.00  0.00    -0.315 N 
HETATM   17  C9  UNL     1      25.079   2.774  51.163  1.00  0.00     0.098 C 
HETATM   18  C10 UNL     1      25.073   1.621  51.764  1.00  0.00     0.018 C 
HETATM   19  C11 UNL     1      24.076   0.849  52.444  1.00  0.00     0.013 C 
HETATM   20  C12 UNL     1      22.805   1.032  52.705  1.00  0.00     0.109 C 
HETATM   21  S2  UNL     1      21.427   2.111  52.530  1.00  0.00     0.183 S 
HETATM   22  O1  UNL     1      20.304   1.542  51.678  1.00  0.00    -0.223 OA
HETATM   23  O2  UNL     1      21.925   3.572  51.714  1.00  0.00    -0.261 OA
HETATM   24  C13 UNL     1      22.370   4.583  52.555  1.00  0.00     0.172 C 
HETATM   25  C14 UNL     1      23.496   4.499  51.867  1.00  0.00     0.123 C 
ENDBRANCH  12  16
BRANCH   1  26
HETATM   26  N1  UNL     1      22.376   1.886  49.426  1.00  0.00    -0.393 N 
HETATM   27  H1  UNL     1      21.636   1.620  50.106  1.00  0.00     0.156 HD
HETATM   28  H2  UNL     1      23.134   1.166  49.323  1.00  0.00     0.156 HD
ENDBRANCH   1  26
TORSDOF 2
ENDMDL
