MODEL 1
REMARK VINA RESULT:      -7.9      0.000      0.000
REMARK  5 active torsions:
REMARK  status: ('A' for Active; 'I' for Inactive)
REMARK    1  A    between atoms: C4_4  and  C5_5 
REMARK    2  A    between atoms: C5_5  and  C6_6 
REMARK    3  A    between atoms: C6_6  and  N1_7 
REMARK    4  A    between atoms: C6_6  and  C9_12 
REMARK    5  A    between atoms: N1_7  and  N2_8 
ROOT
HETATM    1  C6  UNL     1      24.136   0.902  52.671  1.00  0.00     0.139 C 
ENDROOT
BRANCH   1   2
HETATM    2  C5  UNL     1      23.925   2.369  52.565  1.00  0.00     0.090 C 
BRANCH   2   3
HETATM    3  C4  UNL     1      24.125   2.940  51.208  1.00  0.00     0.032 C 
HETATM    4  C3  UNL     1      23.432   2.359  50.064  1.00  0.00     0.033 C 
HETATM    5  C2  UNL     1      23.074   2.934  48.927  1.00  0.00    -0.060 C 
HETATM    6  C1  UNL     1      22.368   2.082  47.922  1.00  0.00     0.048 C 
HETATM    7  C18 UNL     1      23.302   4.333  48.550  1.00  0.00     0.005 C 
HETATM    8  C17 UNL     1      24.291   5.082  49.029  1.00  0.00     0.000 C 
HETATM    9  C15 UNL     1      25.370   4.772  50.001  1.00  0.00     0.127 C 
HETATM   10  N3  UNL     1      24.922   3.951  51.104  1.00  0.00    -0.285 NA
HETATM   11  C16 UNL     1      26.543   4.065  49.363  1.00  0.00     0.039 C 
ENDBRANCH   2   3
ENDBRANCH   1   2
BRANCH   1  12
HETATM   12  N1  UNL     1      23.339   0.424  53.817  1.00  0.00    -0.315 N 
HETATM   13  H8  UNL     1      23.755   0.380  54.796  1.00  0.00     0.182 HD
BRANCH  12  14
HETATM   14  N2  UNL     1      21.989  -0.010  53.729  1.00  0.00    -0.239 N 
HETATM   15  C7  UNL     1      20.820   0.480  53.216  1.00  0.00     0.133 A 
HETATM   16  C8  UNL     1      19.957  -0.543  53.539  1.00  0.00     0.089 A 
HETATM   17  S1  UNL     1      21.202  -1.420  54.266  1.00  0.00    -0.001 SA
ENDBRANCH  12  14
ENDBRANCH   1  12
BRANCH   1  18
HETATM   18  C9  UNL     1      25.536   0.570  52.953  1.00  0.00    -0.034 A 
HETATM   19  C10 UNL     1      26.503   1.404  53.489  1.00  0.00     0.011 A 
HETATM   20  C11 UNL     1      27.803   0.967  53.698  1.00  0.00     0.019 A 
HETATM   21  C12 UNL     1      28.112  -0.329  53.359  1.00  0.00     0.011 A 
HETATM   22 BR1  UNL     1      29.897  -0.877  53.664  1.00  0.00    -0.051 Br
HETATM   23  C13 UNL     1      27.194  -1.204  52.824  1.00  0.00     0.019 A 
HETATM   24  C14 UNL     1      25.891  -0.737  52.622  1.00  0.00     0.011 A 
ENDBRANCH   1  18
TORSDOF 5
ENDMDL
MODEL 2
REMARK VINA RESULT:      -7.7      2.601      5.112
REMARK  5 active torsions:
REMARK  status: ('A' for Active; 'I' for Inactive)
REMARK    1  A    between atoms: C4_4  and  C5_5 
REMARK    2  A    between atoms: C5_5  and  C6_6 
REMARK    3  A    between atoms: C6_6  and  N1_7 
REMARK    4  A    between atoms: C6_6  and  C9_12 
REMARK    5  A    between atoms: N1_7  and  N2_8 
ROOT
HETATM    1  C6  UNL     1      24.889   2.167  52.432  1.00  0.00     0.139 C 
ENDROOT
BRANCH   1   2
HETATM    2  C5  UNL     1      23.953   1.511  51.482  1.00  0.00     0.090 C 
BRANCH   2   3
HETATM    3  C4  UNL     1      22.692   1.007  52.083  1.00  0.00     0.032 C 
HETATM    4  C3  UNL     1      22.725  -0.128  52.998  1.00  0.00     0.033 C 
HETATM    5  C2  UNL     1      21.887  -0.434  53.976  1.00  0.00    -0.060 C 
HETATM    6  C1  UNL     1      22.173  -1.675  54.760  1.00  0.00     0.048 C 
HETATM    7  C18 UNL     1      20.696   0.325  54.372  1.00  0.00     0.005 C 
HETATM    8  C17 UNL     1      20.008   1.112  53.551  1.00  0.00     0.000 C 
HETATM    9  C15 UNL     1      20.207   1.441  52.116  1.00  0.00     0.127 C 
HETATM   10  N3  UNL     1      21.598   1.614  51.761  1.00  0.00    -0.285 NA
HETATM   11  C16 UNL     1      19.635   0.391  51.192  1.00  0.00     0.039 C 
ENDBRANCH   2   3
ENDBRANCH   1   2
BRANCH   1  12
HETATM   12  N1  UNL     1      25.365   3.409  51.795  1.00  0.00    -0.315 N 
HETATM   13  H8  UNL     1      26.399   3.664  51.792  1.00  0.00     0.182 HD
BRANCH  12  14
HETATM   14  N2  UNL     1      24.523   4.353  51.149  1.00  0.00    -0.239 N 
HETATM   15  C7  UNL     1      23.544   5.230  51.526  1.00  0.00     0.133 A 
HETATM   16  C8  UNL     1      23.219   5.781  50.307  1.00  0.00     0.089 A 
HETATM   17  S1  UNL     1      24.365   4.823  49.522  1.00  0.00    -0.001 SA
ENDBRANCH  12  14
ENDBRANCH   1  12
BRANCH   1  18
HETATM   18  C9  UNL     1      26.070   1.338  52.696  1.00  0.00    -0.034 A 
HETATM   19  C10 UNL     1      26.255   0.010  52.349  1.00  0.00     0.011 A 
HETATM   20  C11 UNL     1      27.424  -0.666  52.667  1.00  0.00     0.019 A 
HETATM   21  C12 UNL     1      28.405   0.021  53.342  1.00  0.00     0.011 A 
HETATM   22 BR1  UNL     1      29.979  -0.946  53.753  1.00  0.00    -0.051 Br
HETATM   23  C13 UNL     1      28.278   1.340  53.713  1.00  0.00     0.019 A 
HETATM   24  C14 UNL     1      27.089   1.998  53.379  1.00  0.00     0.011 A 
ENDBRANCH   1  18
TORSDOF 5
ENDMDL
MODEL 3
REMARK VINA RESULT:      -7.6      1.412      2.446
REMARK  5 active torsions:
REMARK  status: ('A' for Active; 'I' for Inactive)
REMARK    1  A    between atoms: C4_4  and  C5_5 
REMARK    2  A    between atoms: C5_5  and  C6_6 
REMARK    3  A    between atoms: C6_6  and  N1_7 
REMARK    4  A    between atoms: C6_6  and  C9_12 
REMARK    5  A    between atoms: N1_7  and  N2_8 
ROOT
HETATM    1  C6  UNL     1      24.386   0.904  52.165  1.00  0.00     0.139 C 
ENDROOT
BRANCH   1   2
HETATM    2  C5  UNL     1      24.298   2.243  51.528  1.00  0.00     0.090 C 
BRANCH   2   3
HETATM    3  C4  UNL     1      23.281   2.367  50.454  1.00  0.00     0.032 C 
HETATM    4  C3  UNL     1      23.220   3.579  49.645  1.00  0.00     0.033 C 
HETATM    5  C2  UNL     1      22.779   3.732  48.406  1.00  0.00    -0.060 C 
HETATM    6  C1  UNL     1      22.839   5.109  47.824  1.00  0.00     0.048 C 
HETATM    7  C18 UNL     1      22.233   2.683  47.540  1.00  0.00     0.005 C 
HETATM    8  C17 UNL     1      21.647   1.577  47.989  1.00  0.00     0.000 C 
HETATM    9  C15 UNL     1      21.386   1.101  49.372  1.00  0.00     0.127 C 
HETATM   10  N3  UNL     1      22.478   1.369  50.280  1.00  0.00    -0.285 NA
HETATM   11  C16 UNL     1      20.141   1.710  49.973  1.00  0.00     0.039 C 
ENDBRANCH   2   3
ENDBRANCH   1   2
BRANCH   1  12
HETATM   12  N1  UNL     1      23.582   0.951  53.402  1.00  0.00    -0.315 N 
HETATM   13  H8  UNL     1      23.727   1.722  54.122  1.00  0.00     0.182 HD
BRANCH  12  14
HETATM   14  N2  UNL     1      22.577   0.007  53.742  1.00  0.00    -0.239 N 
HETATM   15  C7  UNL     1      21.322  -0.308  53.301  1.00  0.00     0.133 A 
HETATM   16  C8  UNL     1      21.010  -1.343  54.153  1.00  0.00     0.089 A 
HETATM   17  S1  UNL     1      22.505  -1.213  54.925  1.00  0.00    -0.001 SA
ENDBRANCH  12  14
ENDBRANCH   1  12
BRANCH   1  18
HETATM   18  C9  UNL     1      25.760   0.573  52.558  1.00  0.00    -0.034 A 
HETATM   19  C10 UNL     1      26.782   1.459  52.857  1.00  0.00     0.011 A 
HETATM   20  C11 UNL     1      28.048   1.014  53.207  1.00  0.00     0.019 A 
HETATM   21  C12 UNL     1      28.267  -0.342  53.251  1.00  0.00     0.011 A 
HETATM   22 BR1  UNL     1      30.010  -0.898  53.735  1.00  0.00    -0.051 Br
HETATM   23  C13 UNL     1      27.292  -1.270  52.965  1.00  0.00     0.019 A 
HETATM   24  C14 UNL     1      26.024  -0.795  52.615  1.00  0.00     0.011 A 
ENDBRANCH   1  18
TORSDOF 5
ENDMDL
MODEL 4
REMARK VINA RESULT:      -7.6      3.217      6.010
REMARK  5 active torsions:
REMARK  status: ('A' for Active; 'I' for Inactive)
REMARK    1  A    between atoms: C4_4  and  C5_5 
REMARK    2  A    between atoms: C5_5  and  C6_6 
REMARK    3  A    between atoms: C6_6  and  N1_7 
REMARK    4  A    between atoms: C6_6  and  C9_12 
REMARK    5  A    between atoms: N1_7  and  N2_8 
ROOT
HETATM    1  C6  UNL     1      25.334   2.486  50.942  1.00  0.00     0.139 C 
ENDROOT
BRANCH   1   2
HETATM    2  C5  UNL     1      24.584   2.676  52.210  1.00  0.00     0.090 C 
BRANCH   2   3
HETATM    3  C4  UNL     1      23.352   1.858  52.345  1.00  0.00     0.032 C 
HETATM    4  C3  UNL     1      23.345   0.691  53.220  1.00  0.00     0.033 C 
HETATM    5  C2  UNL     1      22.326   0.131  53.852  1.00  0.00    -0.060 C 
HETATM    6  C1  UNL     1      22.620  -1.072  54.691  1.00  0.00     0.048 C 
HETATM    7  C18 UNL     1      20.928   0.572  53.814  1.00  0.00     0.005 C 
HETATM    8  C17 UNL     1      20.388   1.248  52.805  1.00  0.00     0.000 C 
HETATM    9  C15 UNL     1      20.970   1.724  51.524  1.00  0.00     0.127 C 
HETATM   10  N3  UNL     1      22.317   2.229  51.666  1.00  0.00    -0.285 NA
HETATM   11  C16 UNL     1      21.003   0.648  50.463  1.00  0.00     0.039 C 
ENDBRANCH   2   3
ENDBRANCH   1   2
BRANCH   1  12
HETATM   12  N1  UNL     1      26.667   1.961  51.293  1.00  0.00    -0.315 N 
HETATM   13  H8  UNL     1      27.553   2.404  50.902  1.00  0.00     0.182 HD
BRANCH  12  14
HETATM   14  N2  UNL     1      26.892   0.854  52.154  1.00  0.00    -0.239 N 
HETATM   15  C7  UNL     1      26.668  -0.495  52.115  1.00  0.00     0.133 A 
HETATM   16  C8  UNL     1      27.171  -0.867  53.341  1.00  0.00     0.089 A 
HETATM   17  S1  UNL     1      27.582   0.729  53.704  1.00  0.00    -0.001 SA
ENDBRANCH  12  14
ENDBRANCH   1  12
BRANCH   1  18
HETATM   18  C9  UNL     1      25.543   3.754  50.234  1.00  0.00    -0.034 A 
HETATM   19  C10 UNL     1      24.690   4.844  50.199  1.00  0.00     0.011 A 
HETATM   20  C11 UNL     1      25.004   5.987  49.479  1.00  0.00     0.019 A 
HETATM   21  C12 UNL     1      26.195   6.014  48.795  1.00  0.00     0.011 A 
HETATM   22 BR1  UNL     1      26.577   7.596  47.830  1.00  0.00    -0.051 Br
HETATM   23  C13 UNL     1      27.084   4.963  48.794  1.00  0.00     0.019 A 
HETATM   24  C14 UNL     1      26.743   3.821  49.528  1.00  0.00     0.011 A 
ENDBRANCH   1  18
TORSDOF 5
ENDMDL
MODEL 5
REMARK VINA RESULT:      -7.5      3.242      4.945
REMARK  5 active torsions:
REMARK  status: ('A' for Active; 'I' for Inactive)
REMARK    1  A    between atoms: C4_4  and  C5_5 
REMARK    2  A    between atoms: C5_5  and  C6_6 
REMARK    3  A    between atoms: C6_6  and  N1_7 
REMARK    4  A    between atoms: C6_6  and  C9_12 
REMARK    5  A    between atoms: N1_7  and  N2_8 
ROOT
HETATM    1  C6  UNL     1      25.191   2.118  51.855  1.00  0.00     0.139 C 
ENDROOT
BRANCH   1   2
HETATM    2  C5  UNL     1      24.763   2.516  50.489  1.00  0.00     0.090 C 
BRANCH   2   3
HETATM    3  C4  UNL     1      25.035   3.931  50.129  1.00  0.00     0.032 C 
HETATM    4  C3  UNL     1      26.349   4.314  49.627  1.00  0.00     0.033 C 
HETATM    5  C2  UNL     1      26.676   5.320  48.830  1.00  0.00    -0.060 C 
HETATM    6  C1  UNL     1      28.121   5.472  48.477  1.00  0.00     0.048 C 
HETATM    7  C18 UNL     1      25.757   6.309  48.256  1.00  0.00     0.005 C 
HETATM    8  C17 UNL     1      24.597   6.656  48.805  1.00  0.00     0.000 C 
HETATM    9  C15 UNL     1      23.929   6.197  50.049  1.00  0.00     0.127 C 
HETATM   10  N3  UNL     1      24.070   4.776  50.279  1.00  0.00    -0.285 NA
HETATM   11  C16 UNL     1      24.443   6.904  51.282  1.00  0.00     0.039 C 
ENDBRANCH   2   3
ENDBRANCH   1   2
BRANCH   1  12
HETATM   12  N1  UNL     1      26.456   1.371  51.720  1.00  0.00    -0.315 N 
HETATM   13  H8  UNL     1      26.656   0.781  50.856  1.00  0.00     0.182 HD
BRANCH  12  14
HETATM   14  N2  UNL     1      27.491   1.362  52.693  1.00  0.00    -0.239 N 
HETATM   15  C7  UNL     1      28.213   2.297  53.382  1.00  0.00     0.133 A 
HETATM   16  C8  UNL     1      29.025   1.480  54.135  1.00  0.00     0.089 A 
HETATM   17  S1  UNL     1      28.327   0.098  53.464  1.00  0.00    -0.001 SA
ENDBRANCH  12  14
ENDBRANCH   1  12
BRANCH   1  18
HETATM   18  C9  UNL     1      24.224   1.216  52.490  1.00  0.00    -0.034 A 
HETATM   19  C10 UNL     1      24.501   0.143  53.321  1.00  0.00     0.011 A 
HETATM   20  C11 UNL     1      23.488  -0.642  53.852  1.00  0.00     0.019 A 
HETATM   21  C12 UNL     1      22.189  -0.327  53.531  1.00  0.00     0.011 A 
HETATM   22 BR1  UNL     1      20.845  -1.427  54.281  1.00  0.00    -0.051 Br
HETATM   23  C13 UNL     1      21.853   0.727  52.712  1.00  0.00     0.019 A 
HETATM   24  C14 UNL     1      22.894   1.503  52.190  1.00  0.00     0.011 A 
ENDBRANCH   1  18
TORSDOF 5
ENDMDL
MODEL 6
REMARK VINA RESULT:      -7.5      3.327      5.945
REMARK  5 active torsions:
REMARK  status: ('A' for Active; 'I' for Inactive)
REMARK    1  A    between atoms: C4_4  and  C5_5 
REMARK    2  A    between atoms: C5_5  and  C6_6 
REMARK    3  A    between atoms: C6_6  and  N1_7 
REMARK    4  A    between atoms: C6_6  and  C9_12 
REMARK    5  A    between atoms: N1_7  and  N2_8 
ROOT
HETATM    1  C6  UNL     1      24.778   4.136  50.694  1.00  0.00     0.139 C 
ENDROOT
BRANCH   1   2
HETATM    2  C5  UNL     1      24.726   2.675  50.429  1.00  0.00     0.090 C 
BRANCH   2   3
HETATM    3  C4  UNL     1      25.233   1.815  51.529  1.00  0.00     0.032 C 
HETATM    4  C3  UNL     1      24.294   1.136  52.414  1.00  0.00     0.033 C 
HETATM    5  C2  UNL     1      24.456   0.014  53.097  1.00  0.00    -0.060 C 
HETATM    6  C1  UNL     1      23.307  -0.451  53.933  1.00  0.00     0.048 C 
HETATM    7  C18 UNL     1      25.659  -0.826  53.119  1.00  0.00     0.005 C 
HETATM    8  C17 UNL     1      26.887  -0.375  52.885  1.00  0.00     0.000 C 
HETATM    9  C15 UNL     1      27.383   0.987  52.558  1.00  0.00     0.127 C 
HETATM   10  N3  UNL     1      26.514   1.704  51.651  1.00  0.00    -0.285 NA
HETATM   11  C16 UNL     1      27.564   1.852  53.783  1.00  0.00     0.039 C 
ENDBRANCH   2   3
ENDBRANCH   1   2
BRANCH   1  12
HETATM   12  N1  UNL     1      23.470   4.701  50.310  1.00  0.00    -0.315 N 
HETATM   13  H8  UNL     1      23.399   5.488  49.597  1.00  0.00     0.182 HD
BRANCH  12  14
HETATM   14  N2  UNL     1      22.224   4.267  50.836  1.00  0.00    -0.239 N 
HETATM   15  C7  UNL     1      21.637   4.201  52.069  1.00  0.00     0.133 A 
HETATM   16  C8  UNL     1      20.418   3.657  51.737  1.00  0.00     0.089 A 
HETATM   17  S1  UNL     1      20.841   3.601  50.104  1.00  0.00    -0.001 SA
ENDBRANCH  12  14
ENDBRANCH   1  12
BRANCH   1  18
HETATM   18  C9  UNL     1      25.793   4.805  49.872  1.00  0.00    -0.034 A 
HETATM   19  C10 UNL     1      26.889   4.223  49.258  1.00  0.00     0.011 A 
HETATM   20  C11 UNL     1      27.785   4.974  48.511  1.00  0.00     0.019 A 
HETATM   21  C12 UNL     1      27.556   6.324  48.393  1.00  0.00     0.011 A 
HETATM   22 BR1  UNL     1      28.806   7.303  47.364  1.00  0.00    -0.051 Br
HETATM   23  C13 UNL     1      26.485   6.958  48.980  1.00  0.00     0.019 A 
HETATM   24  C14 UNL     1      25.597   6.177  49.728  1.00  0.00     0.011 A 
ENDBRANCH   1  18
TORSDOF 5
ENDMDL
MODEL 7
REMARK VINA RESULT:      -7.5      2.549      4.797
REMARK  5 active torsions:
REMARK  status: ('A' for Active; 'I' for Inactive)
REMARK    1  A    between atoms: C4_4  and  C5_5 
REMARK    2  A    between atoms: C5_5  and  C6_6 
REMARK    3  A    between atoms: C6_6  and  N1_7 
REMARK    4  A    between atoms: C6_6  and  C9_12 
REMARK    5  A    between atoms: N1_7  and  N2_8 
ROOT
HETATM    1  C6  UNL     1      24.809   2.331  52.405  1.00  0.00     0.139 C 
ENDROOT
BRANCH   1   2
HETATM    2  C5  UNL     1      23.915   1.496  51.562  1.00  0.00     0.090 C 
BRANCH   2   3
HETATM    3  C4  UNL     1      22.543   1.300  52.096  1.00  0.00     0.032 C 
HETATM    4  C3  UNL     1      21.553   2.363  51.966  1.00  0.00     0.033 C 
HETATM    5  C2  UNL     1      20.233   2.270  51.912  1.00  0.00    -0.060 C 
HETATM    6  C1  UNL     1      19.462   3.544  51.775  1.00  0.00     0.048 C 
HETATM    7  C18 UNL     1      19.444   1.035  51.973  1.00  0.00     0.005 C 
HETATM    8  C17 UNL     1      19.853  -0.081  52.569  1.00  0.00     0.000 C 
HETATM    9  C15 UNL     1      21.112  -0.400  53.290  1.00  0.00     0.127 C 
HETATM   10  N3  UNL     1      22.284   0.169  52.664  1.00  0.00    -0.285 NA
HETATM   11  C16 UNL     1      21.096   0.069  54.725  1.00  0.00     0.039 C 
ENDBRANCH   2   3
ENDBRANCH   1   2
BRANCH   1  12
HETATM   12  N1  UNL     1      25.193   3.510  51.606  1.00  0.00    -0.315 N 
HETATM   13  H8  UNL     1      26.203   3.667  51.308  1.00  0.00     0.182 HD
BRANCH  12  14
HETATM   14  N2  UNL     1      24.288   4.516  51.174  1.00  0.00    -0.239 N 
HETATM   15  C7  UNL     1      23.450   5.419  51.768  1.00  0.00     0.133 A 
HETATM   16  C8  UNL     1      22.917   6.033  50.658  1.00  0.00     0.089 A 
HETATM   17  S1  UNL     1      23.831   5.058  49.628  1.00  0.00    -0.001 SA
ENDBRANCH  12  14
ENDBRANCH   1  12
BRANCH   1  18
HETATM   18  C9  UNL     1      26.047   1.626  52.755  1.00  0.00    -0.034 A 
HETATM   19  C10 UNL     1      27.155   2.150  53.400  1.00  0.00     0.011 A 
HETATM   20  C11 UNL     1      28.273   1.373  53.664  1.00  0.00     0.019 A 
HETATM   21  C12 UNL     1      28.256   0.058  53.267  1.00  0.00     0.011 A 
HETATM   22 BR1  UNL     1      29.805  -0.958  53.651  1.00  0.00    -0.051 Br
HETATM   23  C13 UNL     1      27.184  -0.518  52.624  1.00  0.00     0.019 A 
HETATM   24  C14 UNL     1      26.069   0.287  52.369  1.00  0.00     0.011 A 
ENDBRANCH   1  18
TORSDOF 5
ENDMDL
MODEL 8
REMARK VINA RESULT:      -7.5      2.977      6.094
REMARK  5 active torsions:
REMARK  status: ('A' for Active; 'I' for Inactive)
REMARK    1  A    between atoms: C4_4  and  C5_5 
REMARK    2  A    between atoms: C5_5  and  C6_6 
REMARK    3  A    between atoms: C6_6  and  N1_7 
REMARK    4  A    between atoms: C6_6  and  C9_12 
REMARK    5  A    between atoms: N1_7  and  N2_8 
ROOT
HETATM    1  C6  UNL     1      24.267   4.004  50.477  1.00  0.00     0.139 C 
ENDROOT
BRANCH   1   2
HETATM    2  C5  UNL     1      24.629   3.514  51.832  1.00  0.00     0.090 C 
BRANCH   2   3
HETATM    3  C4  UNL     1      24.132   2.155  52.167  1.00  0.00     0.032 C 
HETATM    4  C3  UNL     1      25.067   1.039  52.254  1.00  0.00     0.033 C 
HETATM    5  C2  UNL     1      24.970  -0.075  52.962  1.00  0.00    -0.060 C 
HETATM    6  C1  UNL     1      26.095  -1.054  52.854  1.00  0.00     0.048 C 
HETATM    7  C18 UNL     1      23.864  -0.450  53.848  1.00  0.00     0.005 C 
HETATM    8  C17 UNL     1      22.617  -0.011  53.710  1.00  0.00     0.000 C 
HETATM    9  C15 UNL     1      22.008   0.907  52.713  1.00  0.00     0.127 C 
HETATM   10  N3  UNL     1      22.863   2.023  52.373  1.00  0.00    -0.285 NA
HETATM   11  C16 UNL     1      21.646   0.210  51.423  1.00  0.00     0.039 C 
ENDBRANCH   2   3
ENDBRANCH   1   2
BRANCH   1  12
HETATM   12  N1  UNL     1      23.835   2.835  49.687  1.00  0.00    -0.315 N 
HETATM   13  H8  UNL     1      24.440   1.961  49.623  1.00  0.00     0.182 HD
BRANCH  12  14
HETATM   14  N2  UNL     1      22.617   2.764  48.960  1.00  0.00    -0.239 N 
HETATM   15  C7  UNL     1      22.197   2.217  47.780  1.00  0.00     0.133 A 
HETATM   16  C8  UNL     1      20.872   2.591  47.789  1.00  0.00     0.089 A 
HETATM   17  S1  UNL     1      21.060   3.373  49.272  1.00  0.00    -0.001 SA
ENDBRANCH  12  14
ENDBRANCH   1  12
BRANCH   1  18
HETATM   18  C9  UNL     1      25.418   4.591  49.783  1.00  0.00    -0.034 A 
HETATM   19  C10 UNL     1      26.579   3.945  49.392  1.00  0.00     0.011 A 
HETATM   20  C11 UNL     1      27.603   4.622  48.747  1.00  0.00     0.019 A 
HETATM   21  C12 UNL     1      27.437   5.963  48.500  1.00  0.00     0.011 A 
HETATM   22 BR1  UNL     1      28.862   6.840  47.617  1.00  0.00    -0.051 Br
HETATM   23  C13 UNL     1      26.306   6.659  48.864  1.00  0.00     0.019 A 
HETATM   24  C14 UNL     1      25.288   5.952  49.514  1.00  0.00     0.011 A 
ENDBRANCH   1  18
TORSDOF 5
ENDMDL
MODEL 9
REMARK VINA RESULT:      -7.4      3.331      6.365
REMARK  5 active torsions:
REMARK  status: ('A' for Active; 'I' for Inactive)
REMARK    1  A    between atoms: C4_4  and  C5_5 
REMARK    2  A    between atoms: C5_5  and  C6_6 
REMARK    3  A    between atoms: C6_6  and  N1_7 
REMARK    4  A    between atoms: C6_6  and  C9_12 
REMARK    5  A    between atoms: N1_7  and  N2_8 
ROOT
HETATM    1  C6  UNL     1      25.063   3.509  50.896  1.00  0.00     0.139 C 
ENDROOT
BRANCH   1   2
HETATM    2  C5  UNL     1      25.387   2.083  50.636  1.00  0.00     0.090 C 
BRANCH   2   3
HETATM    3  C4  UNL     1      26.030   1.364  51.765  1.00  0.00     0.032 C 
HETATM    4  C3  UNL     1      27.259   1.884  52.353  1.00  0.00     0.033 C 
HETATM    5  C2  UNL     1      27.725   1.730  53.583  1.00  0.00    -0.060 C 
HETATM    6  C1  UNL     1      29.029   2.385  53.908  1.00  0.00     0.048 C 
HETATM    7  C18 UNL     1      27.087   0.975  54.667  1.00  0.00     0.005 C 
HETATM    8  C17 UNL     1      26.252  -0.041  54.475  1.00  0.00     0.000 C 
HETATM    9  C15 UNL     1      25.748  -0.672  53.228  1.00  0.00     0.127 C 
HETATM   10  N3  UNL     1      25.455   0.286  52.186  1.00  0.00    -0.285 NA
HETATM   11  C16 UNL     1      26.716  -1.679  52.652  1.00  0.00     0.039 C 
ENDBRANCH   2   3
ENDBRANCH   1   2
BRANCH   1  12
HETATM   12  N1  UNL     1      23.641   3.707  50.554  1.00  0.00    -0.315 N 
HETATM   13  H8  UNL     1      23.089   4.526  50.951  1.00  0.00     0.182 HD
BRANCH  12  14
HETATM   14  N2  UNL     1      22.897   2.855  49.695  1.00  0.00    -0.239 N 
HETATM   15  C7  UNL     1      22.735   2.702  48.346  1.00  0.00     0.133 A 
HETATM   16  C8  UNL     1      21.843   1.654  48.318  1.00  0.00     0.089 A 
HETATM   17  S1  UNL     1      21.818   1.577  50.004  1.00  0.00    -0.001 SA
ENDBRANCH  12  14
ENDBRANCH   1  12
BRANCH   1  18
HETATM   18  C9  UNL     1      25.841   4.412  50.041  1.00  0.00    -0.034 A 
HETATM   19  C10 UNL     1      26.960   4.095  49.289  1.00  0.00     0.011 A 
HETATM   20  C11 UNL     1      27.614   5.051  48.525  1.00  0.00     0.019 A 
HETATM   21  C12 UNL     1      27.119   6.333  48.531  1.00  0.00     0.011 A 
HETATM   22 BR1  UNL     1      28.046   7.598  47.473  1.00  0.00    -0.051 Br
HETATM   23  C13 UNL     1      26.011   6.707  49.257  1.00  0.00     0.019 A 
HETATM   24  C14 UNL     1      25.371   5.724  50.019  1.00  0.00     0.011 A 
ENDBRANCH   1  18
TORSDOF 5
ENDMDL
