MODEL 1
REMARK VINA RESULT:      -7.1      0.000      0.000
REMARK  8 active torsions:
REMARK  status: ('A' for Active; 'I' for Inactive)
REMARK    1  A    between atoms: C2_2  and  C3_3 
REMARK    2  A    between atoms: C3_3  and  C4_4 
REMARK    3  A    between atoms: C5_5  and  C6_6 
REMARK    4  A    between atoms: C6_6  and  C7_7 
REMARK    5  A    between atoms: C7_7  and  C8_8 
REMARK    6  A    between atoms: C8_8  and  N1_9 
REMARK    7  A    between atoms: N1_9  and  C10_11 
REMARK    8  A    between atoms: C15_18  and  O1_19 
ROOT
HETATM    1  C10 UNL     1      24.808  -0.255  53.900  1.00  0.00     0.143 A 
HETATM    2  N2  UNL     1      25.297  -0.833  55.023  1.00  0.00    -0.223 NA
HETATM    3  C11 UNL     1      24.457  -1.431  55.882  1.00  0.00     0.236 A 
HETATM    4  N3  UNL     1      23.117  -1.515  55.724  1.00  0.00    -0.241 NA
HETATM    5  C12 UNL     1      22.621  -0.939  54.600  1.00  0.00     0.072 A 
HETATM    6  C13 UNL     1      21.268  -0.944  54.302  1.00  0.00     0.035 A 
HETATM    7  C14 UNL     1      20.788  -0.350  53.152  1.00  0.00     0.039 A 
HETATM    8  C15 UNL     1      21.649   0.275  52.253  1.00  0.00     0.069 A 
HETATM    9  C17 UNL     1      23.004   0.293  52.529  1.00  0.00     0.054 A 
HETATM   10  C18 UNL     1      23.445  -0.311  53.688  1.00  0.00     0.042 A 
ENDROOT
BRANCH   1  11
HETATM   11  N1  UNL     1      25.793   0.347  53.069  1.00  0.00    -0.345 N 
HETATM   12  C9  UNL     1      26.532  -0.449  52.084  1.00  0.00     0.157 C 
BRANCH  11  13
HETATM   13  C8  UNL     1      26.273   1.682  52.965  1.00  0.00     0.092 C 
BRANCH  13  14
HETATM   14  C7  UNL     1      26.339   2.401  51.856  1.00  0.00     0.017 C 
BRANCH  14  15
HETATM   15  C6  UNL     1      25.156   2.920  51.178  1.00  0.00     0.002 C 
BRANCH  15  16
HETATM   16  C5  UNL     1      25.279   3.314  49.919  1.00  0.00     0.008 C 
HETATM   17  C4  UNL     1      26.649   3.434  49.470  1.00  0.00     0.051 C 
BRANCH  17  18
HETATM   18  C3  UNL     1      27.034   4.587  48.995  1.00  0.00    -0.150 C 
BRANCH  18  19
HETATM   19  C2  UNL     1      27.670   5.630  48.496  1.00  0.00     0.067 C 
HETATM   20  C1  UNL     1      29.108   5.484  48.195  1.00  0.00     0.024 C 
ENDBRANCH  18  19
ENDBRANCH  17  18
ENDBRANCH  15  16
ENDBRANCH  14  15
ENDBRANCH  13  14
ENDBRANCH  11  13
ENDBRANCH   1  11
BRANCH   8  21
HETATM   21  O1  UNL     1      21.194   0.872  51.104  1.00  0.00    -0.356 OA
HETATM   22  C16 UNL     1      22.017   1.394  50.104  1.00  0.00     0.210 C 
ENDBRANCH   8  21
TORSDOF 8
ENDMDL
MODEL 2
REMARK VINA RESULT:      -6.9      2.330      3.966
REMARK  8 active torsions:
REMARK  status: ('A' for Active; 'I' for Inactive)
REMARK    1  A    between atoms: C2_2  and  C3_3 
REMARK    2  A    between atoms: C3_3  and  C4_4 
REMARK    3  A    between atoms: C5_5  and  C6_6 
REMARK    4  A    between atoms: C6_6  and  C7_7 
REMARK    5  A    between atoms: C7_7  and  C8_8 
REMARK    6  A    between atoms: C8_8  and  N1_9 
REMARK    7  A    between atoms: N1_9  and  C10_11 
REMARK    8  A    between atoms: C15_18  and  O1_19 
ROOT
HETATM    1  C10 UNL     1      23.312   1.560  52.110  1.00  0.00     0.143 A 
HETATM    2  N2  UNL     1      22.243   0.752  51.910  1.00  0.00    -0.223 NA
HETATM    3  C11 UNL     1      22.182  -0.434  52.535  1.00  0.00     0.236 A 
HETATM    4  N3  UNL     1      23.122  -0.915  53.378  1.00  0.00    -0.241 NA
HETATM    5  C12 UNL     1      24.195  -0.110  53.583  1.00  0.00     0.072 A 
HETATM    6  C13 UNL     1      25.240  -0.467  54.419  1.00  0.00     0.035 A 
HETATM    7  C14 UNL     1      26.320   0.369  54.611  1.00  0.00     0.039 A 
HETATM    8  C15 UNL     1      26.397   1.603  53.968  1.00  0.00     0.069 A 
HETATM    9  C17 UNL     1      25.366   1.982  53.127  1.00  0.00     0.054 A 
HETATM   10  C18 UNL     1      24.303   1.118  52.962  1.00  0.00     0.042 A 
ENDROOT
BRANCH   1  11
HETATM   11  N1  UNL     1      23.265   2.789  51.394  1.00  0.00    -0.345 N 
HETATM   12  C9  UNL     1      23.155   4.067  52.104  1.00  0.00     0.157 C 
BRANCH  11  13
HETATM   13  C8  UNL     1      23.304   3.090  50.004  1.00  0.00     0.092 C 
BRANCH  13  14
HETATM   14  C7  UNL     1      24.365   3.500  49.327  1.00  0.00     0.017 C 
BRANCH  14  15
HETATM   15  C6  UNL     1      25.716   3.032  49.615  1.00  0.00     0.002 C 
BRANCH  15  16
HETATM   16  C5  UNL     1      26.625   3.927  49.970  1.00  0.00     0.008 C 
HETATM   17  C4  UNL     1      26.847   4.965  48.986  1.00  0.00     0.051 C 
BRANCH  17  18
HETATM   18  C3  UNL     1      28.063   5.133  48.544  1.00  0.00    -0.150 C 
BRANCH  18  19
HETATM   19  C2  UNL     1      29.218   5.568  48.076  1.00  0.00     0.067 C 
HETATM   20  C1  UNL     1      29.246   6.894  47.430  1.00  0.00     0.024 C 
ENDBRANCH  18  19
ENDBRANCH  17  18
ENDBRANCH  15  16
ENDBRANCH  14  15
ENDBRANCH  13  14
ENDBRANCH  11  13
ENDBRANCH   1  11
BRANCH   8  21
HETATM   21  O1  UNL     1      27.461   2.451  54.143  1.00  0.00    -0.356 OA
HETATM   22  C16 UNL     1      28.671   2.357  53.452  1.00  0.00     0.210 C 
ENDBRANCH   8  21
TORSDOF 8
ENDMDL
MODEL 3
REMARK VINA RESULT:      -6.7      2.002      3.520
REMARK  8 active torsions:
REMARK  status: ('A' for Active; 'I' for Inactive)
REMARK    1  A    between atoms: C2_2  and  C3_3 
REMARK    2  A    between atoms: C3_3  and  C4_4 
REMARK    3  A    between atoms: C5_5  and  C6_6 
REMARK    4  A    between atoms: C6_6  and  C7_7 
REMARK    5  A    between atoms: C7_7  and  C8_8 
REMARK    6  A    between atoms: C8_8  and  N1_9 
REMARK    7  A    between atoms: N1_9  and  C10_11 
REMARK    8  A    between atoms: C15_18  and  O1_19 
ROOT
HETATM    1  C10 UNL     1      22.152   0.384  52.958  1.00  0.00     0.143 A 
HETATM    2  N2  UNL     1      21.037  -0.160  53.501  1.00  0.00    -0.223 NA
HETATM    3  C11 UNL     1      21.148  -1.006  54.537  1.00  0.00     0.236 A 
HETATM    4  N3  UNL     1      22.313  -1.380  55.111  1.00  0.00    -0.241 NA
HETATM    5  C12 UNL     1      23.434  -0.838  54.571  1.00  0.00     0.072 A 
HETATM    6  C13 UNL     1      24.701  -1.127  55.051  1.00  0.00     0.035 A 
HETATM    7  C14 UNL     1      25.825  -0.564  54.485  1.00  0.00     0.039 A 
HETATM    8  C15 UNL     1      25.725   0.315  53.409  1.00  0.00     0.069 A 
HETATM    9  C17 UNL     1      24.470   0.620  52.911  1.00  0.00     0.054 A 
HETATM   10  C18 UNL     1      23.370   0.036  53.505  1.00  0.00     0.042 A 
ENDROOT
BRANCH   1  11
HETATM   11  N1  UNL     1      21.908   1.264  51.867  1.00  0.00    -0.345 N 
HETATM   12  C9  UNL     1      21.618   0.738  50.529  1.00  0.00     0.157 C 
BRANCH  11  13
HETATM   13  C8  UNL     1      21.879   2.682  51.768  1.00  0.00     0.092 C 
BRANCH  13  14
HETATM   14  C7  UNL     1      22.583   3.419  50.923  1.00  0.00     0.017 C 
BRANCH  14  15
HETATM   15  C6  UNL     1      24.034   3.542  51.002  1.00  0.00     0.002 C 
BRANCH  15  16
HETATM   16  C5  UNL     1      24.751   3.175  49.950  1.00  0.00     0.008 C 
HETATM   17  C4  UNL     1      26.181   3.245  50.158  1.00  0.00     0.051 C 
BRANCH  17  18
HETATM   18  C3  UNL     1      26.879   3.977  49.334  1.00  0.00    -0.150 C 
BRANCH  18  19
HETATM   19  C2  UNL     1      27.461   4.928  48.627  1.00  0.00     0.067 C 
HETATM   20  C1  UNL     1      26.824   6.259  48.604  1.00  0.00     0.024 C 
ENDBRANCH  18  19
ENDBRANCH  17  18
ENDBRANCH  15  16
ENDBRANCH  14  15
ENDBRANCH  13  14
ENDBRANCH  11  13
ENDBRANCH   1  11
BRANCH   8  21
HETATM   21  O1  UNL     1      26.829   0.888  52.830  1.00  0.00    -0.356 OA
HETATM   22  C16 UNL     1      27.504   1.999  53.339  1.00  0.00     0.210 C 
ENDBRANCH   8  21
TORSDOF 8
ENDMDL
MODEL 4
REMARK VINA RESULT:      -6.6      1.463      2.075
REMARK  8 active torsions:
REMARK  status: ('A' for Active; 'I' for Inactive)
REMARK    1  A    between atoms: C2_2  and  C3_3 
REMARK    2  A    between atoms: C3_3  and  C4_4 
REMARK    3  A    between atoms: C5_5  and  C6_6 
REMARK    4  A    between atoms: C6_6  and  C7_7 
REMARK    5  A    between atoms: C7_7  and  C8_8 
REMARK    6  A    between atoms: C8_8  and  N1_9 
REMARK    7  A    between atoms: N1_9  and  C10_11 
REMARK    8  A    between atoms: C15_18  and  O1_19 
ROOT
HETATM    1  C10 UNL     1      24.361  -0.565  54.205  1.00  0.00     0.143 A 
HETATM    2  N2  UNL     1      24.068  -1.471  55.168  1.00  0.00    -0.223 NA
HETATM    3  C11 UNL     1      22.791  -1.657  55.537  1.00  0.00     0.236 A 
HETATM    4  N3  UNL     1      21.730  -1.001  55.016  1.00  0.00    -0.241 NA
HETATM    5  C12 UNL     1      22.018  -0.093  54.049  1.00  0.00     0.072 A 
HETATM    6  C13 UNL     1      21.036   0.657  53.423  1.00  0.00     0.035 A 
HETATM    7  C14 UNL     1      21.354   1.574  52.443  1.00  0.00     0.039 A 
HETATM    8  C15 UNL     1      22.676   1.778  52.050  1.00  0.00     0.069 A 
HETATM    9  C17 UNL     1      23.674   1.041  52.662  1.00  0.00     0.054 A 
HETATM   10  C18 UNL     1      23.315   0.134  53.637  1.00  0.00     0.042 A 
ENDROOT
BRANCH   1  11
HETATM   11  N1  UNL     1      25.747  -0.456  53.900  1.00  0.00    -0.345 N 
HETATM   12  C9  UNL     1      26.353  -1.286  52.853  1.00  0.00     0.157 C 
BRANCH  11  13
HETATM   13  C8  UNL     1      26.784   0.358  54.433  1.00  0.00     0.092 C 
BRANCH  13  14
HETATM   14  C7  UNL     1      27.868   0.760  53.788  1.00  0.00     0.017 C 
BRANCH  14  15
HETATM   15  C6  UNL     1      27.962   2.061  53.136  1.00  0.00     0.002 C 
BRANCH  15  16
HETATM   16  C5  UNL     1      26.873   2.557  52.569  1.00  0.00     0.008 C 
HETATM   17  C4  UNL     1      26.735   2.227  51.167  1.00  0.00     0.051 C 
BRANCH  17  18
HETATM   18  C3  UNL     1      26.616   3.212  50.319  1.00  0.00    -0.150 C 
BRANCH  18  19
HETATM   19  C2  UNL     1      26.514   4.009  49.272  1.00  0.00     0.067 C 
HETATM   20  C1  UNL     1      25.702   5.233  49.411  1.00  0.00     0.024 C 
ENDBRANCH  18  19
ENDBRANCH  17  18
ENDBRANCH  15  16
ENDBRANCH  14  15
ENDBRANCH  13  14
ENDBRANCH  11  13
ENDBRANCH   1  11
BRANCH   8  21
HETATM   21  O1  UNL     1      23.016   2.685  51.078  1.00  0.00    -0.356 OA
HETATM   22  C16 UNL     1      23.015   2.413  49.709  1.00  0.00     0.210 C 
ENDBRANCH   8  21
TORSDOF 8
ENDMDL
MODEL 5
REMARK VINA RESULT:      -6.5      2.452      3.889
REMARK  8 active torsions:
REMARK  status: ('A' for Active; 'I' for Inactive)
REMARK    1  A    between atoms: C2_2  and  C3_3 
REMARK    2  A    between atoms: C3_3  and  C4_4 
REMARK    3  A    between atoms: C5_5  and  C6_6 
REMARK    4  A    between atoms: C6_6  and  C7_7 
REMARK    5  A    between atoms: C7_7  and  C8_8 
REMARK    6  A    between atoms: C8_8  and  N1_9 
REMARK    7  A    between atoms: N1_9  and  C10_11 
REMARK    8  A    between atoms: C15_18  and  O1_19 
ROOT
HETATM    1  C10 UNL     1      22.616   2.480  52.300  1.00  0.00     0.143 A 
HETATM    2  N2  UNL     1      21.266   2.393  52.235  1.00  0.00    -0.223 NA
HETATM    3  C11 UNL     1      20.646   1.308  52.724  1.00  0.00     0.236 A 
HETATM    4  N3  UNL     1      21.267   0.254  53.298  1.00  0.00    -0.241 NA
HETATM    5  C12 UNL     1      22.621   0.335  53.367  1.00  0.00     0.072 A 
HETATM    6  C13 UNL     1      23.395  -0.668  53.927  1.00  0.00     0.035 A 
HETATM    7  C14 UNL     1      24.769  -0.561  53.984  1.00  0.00     0.039 A 
HETATM    8  C15 UNL     1      25.425   0.559  53.479  1.00  0.00     0.069 A 
HETATM    9  C17 UNL     1      24.673   1.575  52.915  1.00  0.00     0.054 A 
HETATM   10  C18 UNL     1      23.302   1.431  52.876  1.00  0.00     0.042 A 
ENDROOT
BRANCH   1  11
HETATM   11  N1  UNL     1      23.157   3.675  51.749  1.00  0.00    -0.345 N 
HETATM   12  C9  UNL     1      23.432   4.836  52.601  1.00  0.00     0.157 C 
BRANCH  11  13
HETATM   13  C8  UNL     1      23.532   4.036  50.425  1.00  0.00     0.092 C 
BRANCH  13  14
HETATM   14  C7  UNL     1      24.195   3.276  49.569  1.00  0.00     0.017 C 
BRANCH  14  15
HETATM   15  C6  UNL     1      25.634   3.057  49.655  1.00  0.00     0.002 C 
BRANCH  15  16
HETATM   16  C5  UNL     1      26.404   4.084  49.984  1.00  0.00     0.008 C 
HETATM   17  C4  UNL     1      26.711   4.967  48.880  1.00  0.00     0.051 C 
BRANCH  17  18
HETATM   18  C3  UNL     1      27.968   5.183  48.606  1.00  0.00    -0.150 C 
BRANCH  18  19
HETATM   19  C2  UNL     1      29.147   5.445  48.073  1.00  0.00     0.067 C 
HETATM   20  C1  UNL     1      29.643   6.832  48.140  1.00  0.00     0.024 C 
ENDBRANCH  18  19
ENDBRANCH  17  18
ENDBRANCH  15  16
ENDBRANCH  14  15
ENDBRANCH  13  14
ENDBRANCH  11  13
ENDBRANCH   1  11
BRANCH   8  21
HETATM   21  O1  UNL     1      26.791   0.687  53.526  1.00  0.00    -0.356 OA
HETATM   22  C16 UNL     1      27.581   0.336  54.622  1.00  0.00     0.210 C 
ENDBRANCH   8  21
TORSDOF 8
ENDMDL
MODEL 6
REMARK VINA RESULT:      -6.5      1.559      2.634
REMARK  8 active torsions:
REMARK  status: ('A' for Active; 'I' for Inactive)
REMARK    1  A    between atoms: C2_2  and  C3_3 
REMARK    2  A    between atoms: C3_3  and  C4_4 
REMARK    3  A    between atoms: C5_5  and  C6_6 
REMARK    4  A    between atoms: C6_6  and  C7_7 
REMARK    5  A    between atoms: C7_7  and  C8_8 
REMARK    6  A    between atoms: C8_8  and  N1_9 
REMARK    7  A    between atoms: N1_9  and  C10_11 
REMARK    8  A    between atoms: C15_18  and  O1_19 
ROOT
HETATM    1  C10 UNL     1      23.513   1.405  52.523  1.00  0.00     0.143 A 
HETATM    2  N2  UNL     1      24.834   1.345  52.814  1.00  0.00    -0.223 NA
HETATM    3  C11 UNL     1      25.289   0.387  53.637  1.00  0.00     0.236 A 
HETATM    4  N3  UNL     1      24.523  -0.560  54.223  1.00  0.00    -0.241 NA
HETATM    5  C12 UNL     1      23.197  -0.505  53.934  1.00  0.00     0.072 A 
HETATM    6  C13 UNL     1      22.288  -1.407  54.460  1.00  0.00     0.035 A 
HETATM    7  C14 UNL     1      20.945  -1.330  54.152  1.00  0.00     0.039 A 
HETATM    8  C15 UNL     1      20.459  -0.340  53.300  1.00  0.00     0.069 A 
HETATM    9  C17 UNL     1      21.349   0.572  52.761  1.00  0.00     0.054 A 
HETATM   10  C18 UNL     1      22.683   0.462  53.095  1.00  0.00     0.042 A 
ENDROOT
BRANCH   1  11
HETATM   11  N1  UNL     1      23.151   2.462  51.642  1.00  0.00    -0.345 N 
HETATM   12  C9  UNL     1      22.665   3.742  52.166  1.00  0.00     0.157 C 
BRANCH  11  13
HETATM   13  C8  UNL     1      23.153   2.570  50.223  1.00  0.00     0.092 C 
BRANCH  13  14
HETATM   14  C7  UNL     1      24.051   3.212  49.493  1.00  0.00     0.017 C 
BRANCH  14  15
HETATM   15  C6  UNL     1      25.485   2.974  49.614  1.00  0.00     0.002 C 
BRANCH  15  16
HETATM   16  C5  UNL     1      26.257   3.984  49.987  1.00  0.00     0.008 C 
HETATM   17  C4  UNL     1      25.888   5.255  49.403  1.00  0.00     0.051 C 
BRANCH  17  18
HETATM   18  C3  UNL     1      26.797   5.899  48.724  1.00  0.00    -0.150 C 
BRANCH  18  19
HETATM   19  C2  UNL     1      27.861   6.315  48.063  1.00  0.00     0.067 C 
HETATM   20  C1  UNL     1      29.136   5.609  48.290  1.00  0.00     0.024 C 
ENDBRANCH  18  19
ENDBRANCH  17  18
ENDBRANCH  15  16
ENDBRANCH  14  15
ENDBRANCH  13  14
ENDBRANCH  11  13
ENDBRANCH   1  11
BRANCH   8  21
HETATM   21  O1  UNL     1      19.129  -0.244  52.978  1.00  0.00    -0.356 OA
HETATM   22  C16 UNL     1      18.642   0.031  51.699  1.00  0.00     0.210 C 
ENDBRANCH   8  21
TORSDOF 8
ENDMDL
MODEL 7
REMARK VINA RESULT:      -6.3      2.817      4.095
REMARK  8 active torsions:
REMARK  status: ('A' for Active; 'I' for Inactive)
REMARK    1  A    between atoms: C2_2  and  C3_3 
REMARK    2  A    between atoms: C3_3  and  C4_4 
REMARK    3  A    between atoms: C5_5  and  C6_6 
REMARK    4  A    between atoms: C6_6  and  C7_7 
REMARK    5  A    between atoms: C7_7  and  C8_8 
REMARK    6  A    between atoms: C8_8  and  N1_9 
REMARK    7  A    between atoms: N1_9  and  C10_11 
REMARK    8  A    between atoms: C15_18  and  O1_19 
ROOT
HETATM    1  C10 UNL     1      22.047   0.447  53.035  1.00  0.00     0.143 A 
HETATM    2  N2  UNL     1      22.910  -0.122  53.910  1.00  0.00    -0.223 NA
HETATM    3  C11 UNL     1      22.493  -1.129  54.693  1.00  0.00     0.236 A 
HETATM    4  N3  UNL     1      21.246  -1.648  54.690  1.00  0.00    -0.241 NA
HETATM    5  C12 UNL     1      20.376  -1.082  53.815  1.00  0.00     0.072 A 
HETATM    6  C13 UNL     1      19.063  -1.507  53.697  1.00  0.00     0.035 A 
HETATM    7  C14 UNL     1      18.198  -0.915  52.800  1.00  0.00     0.039 A 
HETATM    8  C15 UNL     1      18.617   0.132  51.981  1.00  0.00     0.069 A 
HETATM    9  C17 UNL     1      19.925   0.573  52.080  1.00  0.00     0.054 A 
HETATM   10  C18 UNL     1      20.758  -0.045  52.989  1.00  0.00     0.042 A 
ENDROOT
BRANCH   1  11
HETATM   11  N1  UNL     1      22.603   1.503  52.260  1.00  0.00    -0.345 N 
HETATM   12  C9  UNL     1      22.804   1.349  50.816  1.00  0.00     0.157 C 
BRANCH  11  13
HETATM   13  C8  UNL     1      23.054   2.808  52.603  1.00  0.00     0.092 C 
BRANCH  13  14
HETATM   14  C7  UNL     1      24.301   3.151  52.885  1.00  0.00     0.017 C 
BRANCH  14  15
HETATM   15  C6  UNL     1      25.285   2.205  53.395  1.00  0.00     0.002 C 
BRANCH  15  16
HETATM   16  C5  UNL     1      26.194   1.733  52.554  1.00  0.00     0.008 C 
HETATM   17  C4  UNL     1      26.170   0.294  52.406  1.00  0.00     0.051 C 
BRANCH  17  18
HETATM   18  C3  UNL     1      27.271  -0.360  52.655  1.00  0.00    -0.150 C 
BRANCH  18  19
HETATM   19  C2  UNL     1      28.250  -1.105  53.135  1.00  0.00     0.067 C 
HETATM   20  C1  UNL     1      29.463  -0.421  53.623  1.00  0.00     0.024 C 
ENDBRANCH  18  19
ENDBRANCH  17  18
ENDBRANCH  15  16
ENDBRANCH  14  15
ENDBRANCH  13  14
ENDBRANCH  11  13
ENDBRANCH   1  11
BRANCH   8  21
HETATM   21  O1  UNL     1      17.775   0.735  51.081  1.00  0.00    -0.356 OA
HETATM   22  C16 UNL     1      16.382   0.694  51.151  1.00  0.00     0.210 C 
ENDBRANCH   8  21
TORSDOF 8
ENDMDL
MODEL 8
REMARK VINA RESULT:      -6.3      3.656      6.588
REMARK  8 active torsions:
REMARK  status: ('A' for Active; 'I' for Inactive)
REMARK    1  A    between atoms: C2_2  and  C3_3 
REMARK    2  A    between atoms: C3_3  and  C4_4 
REMARK    3  A    between atoms: C5_5  and  C6_6 
REMARK    4  A    between atoms: C6_6  and  C7_7 
REMARK    5  A    between atoms: C7_7  and  C8_8 
REMARK    6  A    between atoms: C8_8  and  N1_9 
REMARK    7  A    between atoms: N1_9  and  C10_11 
REMARK    8  A    between atoms: C15_18  and  O1_19 
ROOT
HETATM    1  C10 UNL     1      22.440   3.134  50.421  1.00  0.00     0.143 A 
HETATM    2  N2  UNL     1      21.675   4.243  50.558  1.00  0.00    -0.223 NA
HETATM    3  C11 UNL     1      21.837   5.032  51.632  1.00  0.00     0.236 A 
HETATM    4  N3  UNL     1      22.726   4.815  52.626  1.00  0.00    -0.241 NA
HETATM    5  C12 UNL     1      23.496   3.705  52.494  1.00  0.00     0.072 A 
HETATM    6  C13 UNL     1      24.451   3.351  53.432  1.00  0.00     0.035 A 
HETATM    7  C14 UNL     1      25.221   2.217  53.275  1.00  0.00     0.039 A 
HETATM    8  C15 UNL     1      25.064   1.389  52.166  1.00  0.00     0.069 A 
HETATM    9  C17 UNL     1      24.116   1.722  51.214  1.00  0.00     0.054 A 
HETATM   10  C18 UNL     1      23.366   2.863  51.408  1.00  0.00     0.042 A 
ENDROOT
BRANCH   1  11
HETATM   11  N1  UNL     1      22.178   2.378  49.244  1.00  0.00    -0.345 N 
HETATM   12  C9  UNL     1      22.713   2.801  47.946  1.00  0.00     0.157 C 
BRANCH  11  13
HETATM   13  C8  UNL     1      21.439   1.184  49.017  1.00  0.00     0.092 C 
BRANCH  13  14
HETATM   14  C7  UNL     1      20.855   0.442  49.945  1.00  0.00     0.017 C 
BRANCH  14  15
HETATM   15  C6  UNL     1      19.630   0.846  50.624  1.00  0.00     0.002 C 
BRANCH  15  16
HETATM   16  C5  UNL     1      19.475   0.501  51.893  1.00  0.00     0.008 C 
HETATM   17  C4  UNL     1      20.348   1.206  52.807  1.00  0.00     0.051 C 
BRANCH  17  18
HETATM   18  C3  UNL     1      21.127   0.494  53.574  1.00  0.00    -0.150 C 
BRANCH  18  19
HETATM   19  C2  UNL     1      21.741  -0.147  54.551  1.00  0.00     0.067 C 
HETATM   20  C1  UNL     1      23.006  -0.838  54.236  1.00  0.00     0.024 C 
ENDBRANCH  18  19
ENDBRANCH  17  18
ENDBRANCH  15  16
ENDBRANCH  14  15
ENDBRANCH  13  14
ENDBRANCH  11  13
ENDBRANCH   1  11
BRANCH   8  21
HETATM   21  O1  UNL     1      25.819   0.257  51.988  1.00  0.00    -0.356 OA
HETATM   22  C16 UNL     1      26.950  -0.066  52.740  1.00  0.00     0.210 C 
ENDBRANCH   8  21
TORSDOF 8
ENDMDL
MODEL 9
REMARK VINA RESULT:      -6.2      2.353      4.011
REMARK  8 active torsions:
REMARK  status: ('A' for Active; 'I' for Inactive)
REMARK    1  A    between atoms: C2_2  and  C3_3 
REMARK    2  A    between atoms: C3_3  and  C4_4 
REMARK    3  A    between atoms: C5_5  and  C6_6 
REMARK    4  A    between atoms: C6_6  and  C7_7 
REMARK    5  A    between atoms: C7_7  and  C8_8 
REMARK    6  A    between atoms: C8_8  and  N1_9 
REMARK    7  A    between atoms: N1_9  and  C10_11 
REMARK    8  A    between atoms: C15_18  and  O1_19 
ROOT
HETATM    1  C10 UNL     1      20.980   1.152  52.292  1.00  0.00     0.143 A 
HETATM    2  N2  UNL     1      19.795   0.595  52.638  1.00  0.00    -0.223 NA
HETATM    3  C11 UNL     1      19.775  -0.449  53.482  1.00  0.00     0.236 A 
HETATM    4  N3  UNL     1      20.867  -1.016  54.040  1.00  0.00    -0.241 NA
HETATM    5  C12 UNL     1      22.058  -0.461  53.697  1.00  0.00     0.072 A 
HETATM    6  C13 UNL     1      23.263  -0.934  54.188  1.00  0.00     0.035 A 
HETATM    7  C14 UNL     1      24.460  -0.353  53.823  1.00  0.00     0.039 A 
HETATM    8  C15 UNL     1      24.496   0.731  52.948  1.00  0.00     0.069 A 
HETATM    9  C17 UNL     1      23.305   1.221  52.444  1.00  0.00     0.054 A 
HETATM   10  C18 UNL     1      22.129   0.612  52.833  1.00  0.00     0.042 A 
ENDROOT
BRANCH   1  11
HETATM   11  N1  UNL     1      20.875   2.250  51.392  1.00  0.00    -0.345 N 
HETATM   12  C9  UNL     1      20.751   3.622  51.894  1.00  0.00     0.157 C 
BRANCH  11  13
HETATM   13  C8  UNL     1      20.862   2.327  49.972  1.00  0.00     0.092 C 
BRANCH  13  14
HETATM   14  C7  UNL     1      21.803   1.875  49.159  1.00  0.00     0.017 C 
BRANCH  14  15
HETATM   15  C6  UNL     1      22.853   2.727  48.614  1.00  0.00     0.002 C 
BRANCH  15  16
HETATM   16  C5  UNL     1      23.975   2.859  49.306  1.00  0.00     0.008 C 
HETATM   17  C4  UNL     1      24.241   4.212  49.744  1.00  0.00     0.051 C 
BRANCH  17  18
HETATM   18  C3  UNL     1      25.376   4.752  49.392  1.00  0.00    -0.150 C 
BRANCH  18  19
HETATM   19  C2  UNL     1      26.365   5.514  48.962  1.00  0.00     0.067 C 
HETATM   20  C1  UNL     1      27.660   4.868  48.675  1.00  0.00     0.024 C 
ENDBRANCH  18  19
ENDBRANCH  17  18
ENDBRANCH  15  16
ENDBRANCH  14  15
ENDBRANCH  13  14
ENDBRANCH  11  13
ENDBRANCH   1  11
BRANCH   8  21
HETATM   21  O1  UNL     1      25.675   1.325  52.571  1.00  0.00    -0.356 OA
HETATM   22  C16 UNL     1      26.881   0.646  52.392  1.00  0.00     0.210 C 
ENDBRANCH   8  21
TORSDOF 8
ENDMDL
