MODEL 1
REMARK VINA RESULT:      -7.5      0.000      0.000
REMARK  6 active torsions:
REMARK  status: ('A' for Active; 'I' for Inactive)
REMARK    1  A    between atoms: O1_2  and  C2_3 
REMARK    2  A    between atoms: C3_4  and  C4_5 
REMARK    3  A    between atoms: C4_5  and  N2_17 
REMARK    4  A    between atoms: C7_8  and  O2_9 
REMARK    5  A    between atoms: C9_11  and  O3_12 
REMARK    6  A    between atoms: N2_17  and  C14_19 
ROOT
HETATM    1  C4  UNL     1      25.409   1.554  52.072  1.00  0.00     0.104 C 
HETATM    2  C5  UNL     1      24.130   1.208  52.038  1.00  0.00     0.031 A 
HETATM    3  C6  UNL     1      23.527   0.372  53.061  1.00  0.00     0.056 A 
HETATM    4  C7  UNL     1      22.227   0.034  53.006  1.00  0.00     0.102 A 
HETATM    5  C9  UNL     1      21.391   0.518  51.888  1.00  0.00     0.103 A 
HETATM    6  C11 UNL     1      21.926   1.280  50.948  1.00  0.00     0.071 A 
HETATM    7  C12 UNL     1      23.329   1.702  50.921  1.00  0.00     0.064 A 
HETATM    8  N1  UNL     1      23.772   2.453  49.959  1.00  0.00    -0.299 NA
HETATM    9  H12 UNL     1      23.144   2.757  49.212  1.00  0.00     0.187 HD
ENDROOT
BRANCH   1  10
HETATM   10  C3  UNL     1      26.034   2.387  51.063  1.00  0.00    -0.017 C 
HETATM   11  C2  UNL     1      26.562   3.064  50.215  1.00  0.00     0.060 C 
BRANCH  11  12
HETATM   12  O1  UNL     1      27.152   3.824  49.244  1.00  0.00    -0.308 OA
HETATM   13  C1  UNL     1      26.624   5.088  48.956  1.00  0.00     0.223 C 
ENDBRANCH  11  12
ENDBRANCH   1  10
BRANCH   1  14
HETATM   14  N2  UNL     1      26.278   1.125  53.120  1.00  0.00    -0.344 N 
HETATM   15  C13 UNL     1      26.348   1.988  54.296  1.00  0.00     0.157 C 
BRANCH  14  16
HETATM   16  C14 UNL     1      27.028  -0.061  53.032  1.00  0.00     0.034 A 
HETATM   17  C15 UNL     1      26.504  -1.271  52.569  1.00  0.00     0.029 A 
HETATM   18  C16 UNL     1      27.339  -2.392  52.523  1.00  0.00     0.002 A 
HETATM   19  C17 UNL     1      28.654  -2.366  52.911  1.00  0.00     0.000 A 
HETATM   20  C18 UNL     1      29.175  -1.160  53.372  1.00  0.00     0.002 A 
HETATM   21  C19 UNL     1      28.352  -0.043  53.420  1.00  0.00     0.029 A 
ENDBRANCH  14  16
ENDBRANCH   1  14
BRANCH   4  22
HETATM   22  O2  UNL     1      21.777  -0.760  54.032  1.00  0.00    -0.353 OA
HETATM   23  C8  UNL     1      22.583  -1.277  55.075  1.00  0.00     0.210 C 
ENDBRANCH   4  22
BRANCH   5  24
HETATM   24  O3  UNL     1      20.054   0.143  51.873  1.00  0.00    -0.353 OA
HETATM   25  C10 UNL     1      19.153   0.637  50.900  1.00  0.00     0.210 C 
ENDBRANCH   5  24
TORSDOF 6
ENDMDL
MODEL 2
REMARK VINA RESULT:      -7.3      2.445      6.699
REMARK  6 active torsions:
REMARK  status: ('A' for Active; 'I' for Inactive)
REMARK    1  A    between atoms: O1_2  and  C2_3 
REMARK    2  A    between atoms: C3_4  and  C4_5 
REMARK    3  A    between atoms: C4_5  and  N2_17 
REMARK    4  A    between atoms: C7_8  and  O2_9 
REMARK    5  A    between atoms: C9_11  and  O3_12 
REMARK    6  A    between atoms: N2_17  and  C14_19 
ROOT
HETATM    1  C4  UNL     1      23.123   1.282  52.654  1.00  0.00     0.104 C 
HETATM    2  C5  UNL     1      24.313   0.837  53.034  1.00  0.00     0.031 A 
HETATM    3  C6  UNL     1      25.546   1.491  52.636  1.00  0.00     0.056 A 
HETATM    4  C7  UNL     1      26.741   1.022  53.034  1.00  0.00     0.102 A 
HETATM    5  C9  UNL     1      26.809  -0.179  53.891  1.00  0.00     0.103 A 
HETATM    6  C11 UNL     1      25.694  -0.786  54.262  1.00  0.00     0.071 A 
HETATM    7  C12 UNL     1      24.347  -0.352  53.882  1.00  0.00     0.064 A 
HETATM    8  N1  UNL     1      23.303  -1.007  54.291  1.00  0.00    -0.299 NA
HETATM    9  H12 UNL     1      23.414  -1.833  54.884  1.00  0.00     0.187 HD
ENDROOT
BRANCH   1  10
HETATM   10  C3  UNL     1      21.877   0.647  53.039  1.00  0.00    -0.017 C 
HETATM   11  C2  UNL     1      20.830   0.134  53.349  1.00  0.00     0.060 C 
BRANCH  11  12
HETATM   12  O1  UNL     1      19.641  -0.450  53.687  1.00  0.00    -0.308 OA
HETATM   13  C1  UNL     1      18.640  -0.565  52.716  1.00  0.00     0.223 C 
ENDBRANCH  11  12
ENDBRANCH   1  10
BRANCH   1  14
HETATM   14  N2  UNL     1      22.979   2.436  51.827  1.00  0.00    -0.344 N 
HETATM   15  C13 UNL     1      23.091   3.730  52.495  1.00  0.00     0.157 C 
BRANCH  14  16
HETATM   16  C14 UNL     1      22.742   2.340  50.444  1.00  0.00     0.034 A 
HETATM   17  C15 UNL     1      21.965   1.335  49.864  1.00  0.00     0.029 A 
HETATM   18  C16 UNL     1      21.794   1.333  48.475  1.00  0.00     0.002 A 
HETATM   19  C17 UNL     1      22.354   2.273  47.649  1.00  0.00     0.000 A 
HETATM   20  C18 UNL     1      23.129   3.274  48.228  1.00  0.00     0.002 A 
HETATM   21  C19 UNL     1      23.303   3.282  49.605  1.00  0.00     0.029 A 
ENDBRANCH  14  16
ENDBRANCH   1  14
BRANCH   4  22
HETATM   22  O2  UNL     1      27.833   1.728  52.591  1.00  0.00    -0.353 OA
HETATM   23  C8  UNL     1      28.661   2.540  53.402  1.00  0.00     0.210 C 
ENDBRANCH   4  22
BRANCH   5  24
HETATM   24  O3  UNL     1      28.066  -0.627  54.277  1.00  0.00    -0.353 OA
HETATM   25  C10 UNL     1      28.904  -1.345  53.391  1.00  0.00     0.210 C 
ENDBRANCH   5  24
TORSDOF 6
ENDMDL
MODEL 3
REMARK VINA RESULT:      -7.2      2.094      5.464
REMARK  6 active torsions:
REMARK  status: ('A' for Active; 'I' for Inactive)
REMARK    1  A    between atoms: O1_2  and  C2_3 
REMARK    2  A    between atoms: C3_4  and  C4_5 
REMARK    3  A    between atoms: C4_5  and  N2_17 
REMARK    4  A    between atoms: C7_8  and  O2_9 
REMARK    5  A    between atoms: C9_11  and  O3_12 
REMARK    6  A    between atoms: N2_17  and  C14_19 
ROOT
HETATM    1  C4  UNL     1      24.446   3.307  51.365  1.00  0.00     0.104 C 
HETATM    2  C5  UNL     1      25.144   2.368  51.989  1.00  0.00     0.031 A 
HETATM    3  C6  UNL     1      24.517   1.383  52.850  1.00  0.00     0.056 A 
HETATM    4  C7  UNL     1      25.245   0.439  53.473  1.00  0.00     0.102 A 
HETATM    5  C9  UNL     1      26.709   0.399  53.282  1.00  0.00     0.103 A 
HETATM    6  C11 UNL     1      27.295   1.291  52.500  1.00  0.00     0.071 A 
HETATM    7  C12 UNL     1      26.590   2.354  51.780  1.00  0.00     0.064 A 
HETATM    8  N1  UNL     1      27.244   3.189  51.031  1.00  0.00    -0.299 NA
HETATM    9  H12 UNL     1      28.259   3.110  50.938  1.00  0.00     0.187 HD
ENDROOT
BRANCH   1  10
HETATM   10  C3  UNL     1      25.049   4.302  50.500  1.00  0.00    -0.017 C 
HETATM   11  C2  UNL     1      25.532   5.139  49.777  1.00  0.00     0.060 C 
BRANCH  11  12
HETATM   12  O1  UNL     1      26.076   6.097  48.968  1.00  0.00    -0.308 OA
HETATM   13  C1  UNL     1      27.380   5.923  48.490  1.00  0.00     0.223 C 
ENDBRANCH  11  12
ENDBRANCH   1  10
BRANCH   1  14
HETATM   14  N2  UNL     1      23.029   3.408  51.501  1.00  0.00    -0.344 N 
HETATM   15  C13 UNL     1      22.536   4.501  52.336  1.00  0.00     0.157 C 
BRANCH  14  16
HETATM   16  C14 UNL     1      22.150   2.510  50.871  1.00  0.00     0.034 A 
HETATM   17  C15 UNL     1      22.332   2.043  49.566  1.00  0.00     0.029 A 
HETATM   18  C16 UNL     1      21.395   1.150  49.035  1.00  0.00     0.002 A 
HETATM   19  C17 UNL     1      20.301   0.706  49.733  1.00  0.00     0.000 A 
HETATM   20  C18 UNL     1      20.121   1.173  51.032  1.00  0.00     0.002 A 
HETATM   21  C19 UNL     1      21.047   2.059  51.566  1.00  0.00     0.029 A 
ENDBRANCH  14  16
ENDBRANCH   1  14
BRANCH   4  22
HETATM   22  O2  UNL     1      24.535  -0.434  54.260  1.00  0.00    -0.353 OA
HETATM   23  C8  UNL     1      23.160  -0.737  54.105  1.00  0.00     0.210 C 
ENDBRANCH   4  22
BRANCH   5  24
HETATM   24  O3  UNL     1      27.420  -0.593  53.946  1.00  0.00    -0.353 OA
HETATM   25  C10 UNL     1      28.774  -0.417  54.316  1.00  0.00     0.210 C 
ENDBRANCH   5  24
TORSDOF 6
ENDMDL
MODEL 4
REMARK VINA RESULT:      -7.1      1.609      4.830
REMARK  6 active torsions:
REMARK  status: ('A' for Active; 'I' for Inactive)
REMARK    1  A    between atoms: O1_2  and  C2_3 
REMARK    2  A    between atoms: C3_4  and  C4_5 
REMARK    3  A    between atoms: C4_5  and  N2_17 
REMARK    4  A    between atoms: C7_8  and  O2_9 
REMARK    5  A    between atoms: C9_11  and  O3_12 
REMARK    6  A    between atoms: N2_17  and  C14_19 
ROOT
HETATM    1  C4  UNL     1      24.780   0.907  52.756  1.00  0.00     0.104 C 
HETATM    2  C5  UNL     1      24.432   1.606  51.684  1.00  0.00     0.031 A 
HETATM    3  C6  UNL     1      25.365   2.476  50.991  1.00  0.00     0.056 A 
HETATM    4  C7  UNL     1      24.990   3.175  49.906  1.00  0.00     0.102 A 
HETATM    5  C9  UNL     1      23.606   3.061  49.403  1.00  0.00     0.103 A 
HETATM    6  C11 UNL     1      22.743   2.272  50.024  1.00  0.00     0.071 A 
HETATM    7  C12 UNL     1      23.056   1.472  51.211  1.00  0.00     0.064 A 
HETATM    8  N1  UNL     1      22.149   0.722  51.759  1.00  0.00    -0.299 NA
HETATM    9  H12 UNL     1      21.206   0.684  51.364  1.00  0.00     0.187 HD
ENDROOT
BRANCH   1  10
HETATM   10  C3  UNL     1      23.867   0.032  53.464  1.00  0.00    -0.017 C 
HETATM   11  C2  UNL     1      23.124  -0.708  54.060  1.00  0.00     0.060 C 
BRANCH  11  12
HETATM   12  O1  UNL     1      22.287  -1.542  54.747  1.00  0.00    -0.308 OA
HETATM   13  C1  UNL     1      20.948  -1.640  54.352  1.00  0.00     0.223 C 
ENDBRANCH  11  12
ENDBRANCH   1  10
BRANCH   1  14
HETATM   14  N2  UNL     1      26.099   0.967  53.298  1.00  0.00    -0.344 N 
HETATM   15  C13 UNL     1      26.466   2.211  53.970  1.00  0.00     0.157 C 
BRANCH  14  16
HETATM   16  C14 UNL     1      27.000  -0.107  53.195  1.00  0.00     0.034 A 
HETATM   17  C15 UNL     1      28.331  -0.038  53.616  1.00  0.00     0.029 A 
HETATM   18  C16 UNL     1      29.143  -1.167  53.467  1.00  0.00     0.002 A 
HETATM   19  C17 UNL     1      28.698  -2.346  52.925  1.00  0.00     0.000 A 
HETATM   20  C18 UNL     1      27.373  -2.413  52.504  1.00  0.00     0.002 A 
HETATM   21  C19 UNL     1      26.561  -1.296  52.650  1.00  0.00     0.029 A 
ENDBRANCH  14  16
ENDBRANCH   1  14
BRANCH   4  22
HETATM   22  O2  UNL     1      25.964   3.961  49.341  1.00  0.00    -0.353 OA
HETATM   23  C8  UNL     1      26.046   5.369  49.464  1.00  0.00     0.210 C 
ENDBRANCH   4  22
BRANCH   5  24
HETATM   24  O3  UNL     1      23.263   3.802  48.279  1.00  0.00    -0.353 OA
HETATM   25  C10 UNL     1      22.357   4.885  48.351  1.00  0.00     0.210 C 
ENDBRANCH   5  24
TORSDOF 6
ENDMDL
MODEL 5
REMARK VINA RESULT:      -6.6      2.324      5.049
REMARK  6 active torsions:
REMARK  status: ('A' for Active; 'I' for Inactive)
REMARK    1  A    between atoms: O1_2  and  C2_3 
REMARK    2  A    between atoms: C3_4  and  C4_5 
REMARK    3  A    between atoms: C4_5  and  N2_17 
REMARK    4  A    between atoms: C7_8  and  O2_9 
REMARK    5  A    between atoms: C9_11  and  O3_12 
REMARK    6  A    between atoms: N2_17  and  C14_19 
ROOT
HETATM    1  C4  UNL     1      23.940   2.818  52.305  1.00  0.00     0.104 C 
HETATM    2  C5  UNL     1      22.846   2.124  52.021  1.00  0.00     0.031 A 
HETATM    3  C6  UNL     1      21.805   2.642  51.153  1.00  0.00     0.056 A 
HETATM    4  C7  UNL     1      20.705   1.920  50.880  1.00  0.00     0.102 A 
HETATM    5  C9  UNL     1      20.545   0.574  51.469  1.00  0.00     0.103 A 
HETATM    6  C11 UNL     1      21.486   0.089  52.263  1.00  0.00     0.071 A 
HETATM    7  C12 UNL     1      22.718   0.797  52.619  1.00  0.00     0.064 A 
HETATM    8  N1  UNL     1      23.591   0.246  53.406  1.00  0.00    -0.299 NA
HETATM    9  H12 UNL     1      23.425  -0.690  53.784  1.00  0.00     0.187 HD
ENDROOT
BRANCH   1  10
HETATM   10  C3  UNL     1      24.994   2.323  53.168  1.00  0.00    -0.017 C 
HETATM   11  C2  UNL     1      25.885   1.912  53.871  1.00  0.00     0.060 C 
BRANCH  11  12
HETATM   12  O1  UNL     1      26.900   1.460  54.666  1.00  0.00    -0.308 OA
HETATM   13  C1  UNL     1      27.300   0.122  54.565  1.00  0.00     0.223 C 
ENDBRANCH  11  12
ENDBRANCH   1  10
BRANCH   1  14
HETATM   14  N2  UNL     1      24.162   4.123  51.772  1.00  0.00    -0.344 N 
HETATM   15  C13 UNL     1      23.360   5.201  52.345  1.00  0.00     0.157 C 
BRANCH  14  16
HETATM   16  C14 UNL     1      25.100   4.366  50.753  1.00  0.00     0.034 A 
HETATM   17  C15 UNL     1      25.961   3.387  50.249  1.00  0.00     0.029 A 
HETATM   18  C16 UNL     1      26.857   3.737  49.233  1.00  0.00     0.002 A 
HETATM   19  C17 UNL     1      26.935   4.999  48.703  1.00  0.00     0.000 A 
HETATM   20  C18 UNL     1      26.078   5.974  49.206  1.00  0.00     0.002 A 
HETATM   21  C19 UNL     1      25.185   5.634  50.214  1.00  0.00     0.029 A 
ENDBRANCH  14  16
ENDBRANCH   1  14
BRANCH   4  22
HETATM   22  O2  UNL     1      19.793   2.520  50.046  1.00  0.00    -0.353 OA
HETATM   23  C8  UNL     1      19.818   2.456  48.632  1.00  0.00     0.210 C 
ENDBRANCH   4  22
BRANCH   5  24
HETATM   24  O3  UNL     1      19.392  -0.134  51.159  1.00  0.00    -0.353 OA
HETATM   25  C10 UNL     1      18.382  -0.370  52.121  1.00  0.00     0.210 C 
ENDBRANCH   5  24
TORSDOF 6
ENDMDL
MODEL 6
REMARK VINA RESULT:      -6.6      2.435      7.118
REMARK  6 active torsions:
REMARK  status: ('A' for Active; 'I' for Inactive)
REMARK    1  A    between atoms: O1_2  and  C2_3 
REMARK    2  A    between atoms: C3_4  and  C4_5 
REMARK    3  A    between atoms: C4_5  and  N2_17 
REMARK    4  A    between atoms: C7_8  and  O2_9 
REMARK    5  A    between atoms: C9_11  and  O3_12 
REMARK    6  A    between atoms: N2_17  and  C14_19 
ROOT
HETATM    1  C4  UNL     1      22.593   1.031  51.791  1.00  0.00     0.104 C 
HETATM    2  C5  UNL     1      23.865   1.024  52.167  1.00  0.00     0.031 A 
HETATM    3  C6  UNL     1      24.881   1.791  51.471  1.00  0.00     0.056 A 
HETATM    4  C7  UNL     1      26.165   1.769  51.871  1.00  0.00     0.102 A 
HETATM    5  C9  UNL     1      26.555   0.953  53.038  1.00  0.00     0.103 A 
HETATM    6  C11 UNL     1      25.640   0.248  53.683  1.00  0.00     0.071 A 
HETATM    7  C12 UNL     1      24.219   0.207  53.325  1.00  0.00     0.064 A 
HETATM    8  N1  UNL     1      23.387  -0.513  54.013  1.00  0.00    -0.299 NA
HETATM    9  H12 UNL     1      23.717  -1.058  54.813  1.00  0.00     0.187 HD
ENDROOT
BRANCH   1  10
HETATM   10  C3  UNL     1      21.560   0.274  52.469  1.00  0.00    -0.017 C 
HETATM   11  C2  UNL     1      20.686  -0.343  53.027  1.00  0.00     0.060 C 
BRANCH  11  12
HETATM   12  O1  UNL     1      19.690  -1.047  53.645  1.00  0.00    -0.308 OA
HETATM   13  C1  UNL     1      18.390  -0.981  53.130  1.00  0.00     0.223 C 
ENDBRANCH  11  12
ENDBRANCH   1  10
BRANCH   1  14
HETATM   14  N2  UNL     1      22.143   1.795  50.673  1.00  0.00    -0.344 N 
HETATM   15  C13 UNL     1      21.585   1.039  49.555  1.00  0.00     0.157 C 
BRANCH  14  16
HETATM   16  C14 UNL     1      22.228   3.199  50.643  1.00  0.00     0.034 A 
HETATM   17  C15 UNL     1      22.753   3.914  49.564  1.00  0.00     0.029 A 
HETATM   18  C16 UNL     1      22.791   5.311  49.637  1.00  0.00     0.002 A 
HETATM   19  C17 UNL     1      22.338   6.018  50.721  1.00  0.00     0.000 A 
HETATM   20  C18 UNL     1      21.817   5.304  51.796  1.00  0.00     0.002 A 
HETATM   21  C19 UNL     1      21.775   3.918  51.730  1.00  0.00     0.029 A 
ENDBRANCH  14  16
ENDBRANCH   1  14
BRANCH   4  22
HETATM   22  O2  UNL     1      27.030   2.537  51.130  1.00  0.00    -0.353 OA
HETATM   23  C8  UNL     1      26.654   3.387  50.061  1.00  0.00     0.210 C 
ENDBRANCH   4  22
BRANCH   5  24
HETATM   24  O3  UNL     1      27.892   0.960  53.414  1.00  0.00    -0.353 OA
HETATM   25  C10 UNL     1      28.320   0.423  54.651  1.00  0.00     0.210 C 
ENDBRANCH   5  24
TORSDOF 6
ENDMDL
MODEL 7
REMARK VINA RESULT:      -6.3      3.172      6.430
REMARK  6 active torsions:
REMARK  status: ('A' for Active; 'I' for Inactive)
REMARK    1  A    between atoms: O1_2  and  C2_3 
REMARK    2  A    between atoms: C3_4  and  C4_5 
REMARK    3  A    between atoms: C4_5  and  N2_17 
REMARK    4  A    between atoms: C7_8  and  O2_9 
REMARK    5  A    between atoms: C9_11  and  O3_12 
REMARK    6  A    between atoms: N2_17  and  C14_19 
ROOT
HETATM    1  C4  UNL     1      21.400   2.655  51.270  1.00  0.00     0.104 C 
HETATM    2  C5  UNL     1      22.437   3.441  51.012  1.00  0.00     0.031 A 
HETATM    3  C6  UNL     1      23.768   2.913  50.780  1.00  0.00     0.056 A 
HETATM    4  C7  UNL     1      24.804   3.729  50.520  1.00  0.00     0.102 A 
HETATM    5  C9  UNL     1      24.592   5.190  50.468  1.00  0.00     0.103 A 
HETATM    6  C11 UNL     1      23.383   5.686  50.677  1.00  0.00     0.071 A 
HETATM    7  C12 UNL     1      22.194   4.881  50.967  1.00  0.00     0.064 A 
HETATM    8  N1  UNL     1      21.043   5.450  51.160  1.00  0.00    -0.299 NA
HETATM    9  H12 UNL     1      20.958   6.468  51.111  1.00  0.00     0.187 HD
ENDROOT
BRANCH   1  10
HETATM   10  C3  UNL     1      20.060   3.158  51.504  1.00  0.00    -0.017 C 
HETATM   11  C2  UNL     1      18.939   3.557  51.702  1.00  0.00     0.060 C 
BRANCH  11  12
HETATM   12  O1  UNL     1      17.670   4.004  51.940  1.00  0.00    -0.308 OA
HETATM   13  C1  UNL     1      16.587   3.172  51.635  1.00  0.00     0.223 C 
ENDBRANCH  11  12
ENDBRANCH   1  10
BRANCH   1  14
HETATM   14  N2  UNL     1      21.529   1.236  51.336  1.00  0.00    -0.344 N 
HETATM   15  C13 UNL     1      21.382   0.513  50.075  1.00  0.00     0.157 C 
BRANCH  14  16
HETATM   16  C14 UNL     1      21.783   0.562  52.544  1.00  0.00     0.034 A 
HETATM   17  C15 UNL     1      20.827   0.397  53.549  1.00  0.00     0.029 A 
HETATM   18  C16 UNL     1      21.186  -0.290  54.713  1.00  0.00     0.002 A 
HETATM   19  C17 UNL     1      22.437  -0.813  54.921  1.00  0.00     0.000 A 
HETATM   20  C18 UNL     1      23.390  -0.646  53.919  1.00  0.00     0.002 A 
HETATM   21  C19 UNL     1      23.040   0.034  52.761  1.00  0.00     0.029 A 
ENDBRANCH  14  16
ENDBRANCH   1  14
BRANCH   4  22
HETATM   22  O2  UNL     1      26.013   3.107  50.319  1.00  0.00    -0.353 OA
HETATM   23  C8  UNL     1      26.673   2.287  51.265  1.00  0.00     0.210 C 
ENDBRANCH   4  22
BRANCH   5  24
HETATM   24  O3  UNL     1      25.692   5.993  50.197  1.00  0.00    -0.353 OA
HETATM   25  C10 UNL     1      25.572   7.396  50.058  1.00  0.00     0.210 C 
ENDBRANCH   5  24
TORSDOF 6
ENDMDL
MODEL 8
REMARK VINA RESULT:      -6.3      3.404      7.401
REMARK  6 active torsions:
REMARK  status: ('A' for Active; 'I' for Inactive)
REMARK    1  A    between atoms: O1_2  and  C2_3 
REMARK    2  A    between atoms: C3_4  and  C4_5 
REMARK    3  A    between atoms: C4_5  and  N2_17 
REMARK    4  A    between atoms: C7_8  and  O2_9 
REMARK    5  A    between atoms: C9_11  and  O3_12 
REMARK    6  A    between atoms: N2_17  and  C14_19 
ROOT
HETATM    1  C4  UNL     1      24.872   4.096  50.381  1.00  0.00     0.104 C 
HETATM    2  C5  UNL     1      25.185   5.083  49.552  1.00  0.00     0.031 A 
HETATM    3  C6  UNL     1      24.183   5.966  48.986  1.00  0.00     0.056 A 
HETATM    4  C7  UNL     1      24.524   6.960  48.148  1.00  0.00     0.102 A 
HETATM    5  C9  UNL     1      25.944   7.164  47.793  1.00  0.00     0.103 A 
HETATM    6  C11 UNL     1      26.870   6.367  48.301  1.00  0.00     0.071 A 
HETATM    7  C12 UNL     1      26.597   5.259  49.221  1.00  0.00     0.064 A 
HETATM    8  N1  UNL     1      27.568   4.524  49.673  1.00  0.00    -0.299 NA
HETATM    9  H12 UNL     1      28.532   4.715  49.391  1.00  0.00     0.187 HD
ENDROOT
BRANCH   1  10
HETATM   10  C3  UNL     1      25.855   3.201  50.959  1.00  0.00    -0.017 C 
HETATM   11  C2  UNL     1      26.684   2.473  51.448  1.00  0.00     0.060 C 
BRANCH  11  12
HETATM   12  O1  UNL     1      27.618   1.653  52.015  1.00  0.00    -0.308 OA
HETATM   13  C1  UNL     1      28.198   2.022  53.234  1.00  0.00     0.223 C 
ENDBRANCH  11  12
ENDBRANCH   1  10
BRANCH   1  14
HETATM   14  N2  UNL     1      23.523   3.839  50.769  1.00  0.00    -0.344 N 
HETATM   15  C13 UNL     1      22.964   4.721  51.790  1.00  0.00     0.157 C 
BRANCH  14  16
HETATM   16  C14 UNL     1      22.766   2.797  50.204  1.00  0.00     0.034 A 
HETATM   17  C15 UNL     1      22.481   2.706  48.839  1.00  0.00     0.029 A 
HETATM   18  C16 UNL     1      21.718   1.626  48.382  1.00  0.00     0.002 A 
HETATM   19  C17 UNL     1      21.233   0.646  49.209  1.00  0.00     0.000 A 
HETATM   20  C18 UNL     1      21.517   0.738  50.569  1.00  0.00     0.002 A 
HETATM   21  C19 UNL     1      22.274   1.807  51.030  1.00  0.00     0.029 A 
ENDBRANCH  14  16
ENDBRANCH   1  14
BRANCH   4  22
HETATM   22  O2  UNL     1      23.484   7.726  47.681  1.00  0.00    -0.353 OA
HETATM   23  C8  UNL     1      22.926   8.839  48.354  1.00  0.00     0.210 C 
ENDBRANCH   4  22
BRANCH   5  24
HETATM   24  O3  UNL     1      26.249   8.203  46.924  1.00  0.00    -0.353 OA
HETATM   25  C10 UNL     1      27.566   8.705  46.798  1.00  0.00     0.210 C 
ENDBRANCH   5  24
TORSDOF 6
ENDMDL
MODEL 9
REMARK VINA RESULT:      -6.2      5.295      8.302
REMARK  6 active torsions:
REMARK  status: ('A' for Active; 'I' for Inactive)
REMARK    1  A    between atoms: O1_2  and  C2_3 
REMARK    2  A    between atoms: C3_4  and  C4_5 
REMARK    3  A    between atoms: C4_5  and  N2_17 
REMARK    4  A    between atoms: C7_8  and  O2_9 
REMARK    5  A    between atoms: C9_11  and  O3_12 
REMARK    6  A    between atoms: N2_17  and  C14_19 
ROOT
HETATM    1  C4  UNL     1      27.909   8.384  48.578  1.00  0.00     0.104 C 
HETATM    2  C5  UNL     1      26.978   7.624  49.139  1.00  0.00     0.031 A 
HETATM    3  C6  UNL     1      26.870   6.204  48.863  1.00  0.00     0.056 A 
HETATM    4  C7  UNL     1      25.918   5.453  49.445  1.00  0.00     0.102 A 
HETATM    5  C9  UNL     1      24.962   6.078  50.382  1.00  0.00     0.103 A 
HETATM    6  C11 UNL     1      25.048   7.372  50.643  1.00  0.00     0.071 A 
HETATM    7  C12 UNL     1      26.048   8.272  50.061  1.00  0.00     0.064 A 
HETATM    8  N1  UNL     1      26.062   9.531  50.373  1.00  0.00    -0.299 NA
HETATM    9  H12 UNL     1      25.373   9.907  51.030  1.00  0.00     0.187 HD
ENDROOT
BRANCH   1  10
HETATM   10  C3  UNL     1      28.038   9.804  48.837  1.00  0.00    -0.017 C 
HETATM   11  C2  UNL     1      28.160  10.988  49.039  1.00  0.00     0.060 C 
BRANCH  11  12
HETATM   12  O1  UNL     1      28.294  12.331  49.254  1.00  0.00    -0.308 OA
HETATM   13  C1  UNL     1      27.624  13.225  48.410  1.00  0.00     0.223 C 
ENDBRANCH  11  12
ENDBRANCH   1  10
BRANCH   1  14
HETATM   14  N2  UNL     1      28.866   7.850  47.663  1.00  0.00    -0.344 N 
HETATM   15  C13 UNL     1      28.581   8.043  46.244  1.00  0.00     0.157 C 
BRANCH  14  16
HETATM   16  C14 UNL     1      30.020   7.175  48.097  1.00  0.00     0.034 A 
HETATM   17  C15 UNL     1      30.350   5.878  47.695  1.00  0.00     0.029 A 
HETATM   18  C16 UNL     1      31.524   5.299  48.188  1.00  0.00     0.002 A 
HETATM   19  C17 UNL     1      32.373   5.942  49.051  1.00  0.00     0.000 A 
HETATM   20  C18 UNL     1      32.043   7.233  49.453  1.00  0.00     0.002 A 
HETATM   21  C19 UNL     1      30.879   7.815  48.967  1.00  0.00     0.029 A 
ENDBRANCH  14  16
ENDBRANCH   1  14
BRANCH   4  22
HETATM   22  O2  UNL     1      25.920   4.123  49.102  1.00  0.00    -0.353 OA
HETATM   23  C8  UNL     1      26.515   3.087  49.862  1.00  0.00     0.210 C 
ENDBRANCH   4  22
BRANCH   5  24
HETATM   24  O3  UNL     1      23.996   5.263  50.957  1.00  0.00    -0.353 OA
HETATM   25  C10 UNL     1      22.717   5.098  50.373  1.00  0.00     0.210 C 
ENDBRANCH   5  24
TORSDOF 6
ENDMDL
