MODEL 1
REMARK VINA RESULT:      -8.3      0.000      0.000
REMARK  5 active torsions:
REMARK  status: ('A' for Active; 'I' for Inactive)
REMARK    1  A    between atoms: C9_12  and  N3_13 
REMARK    2  A    between atoms: N3_13  and  C10_14 
REMARK    3  A    between atoms: C10_14  and  C11_15 
REMARK    4  A    between atoms: C12_16  and  C13_17 
REMARK    5  A    between atoms: C16_20  and  C17_21 
ROOT
HETATM    1  O1  UNL     1      28.590   0.283  54.889  1.00  0.00    -0.273 OA
HETATM    2  C1  UNL     1      27.431   0.314  54.367  1.00  0.00     0.223 C 
HETATM    3  C2  UNL     1      27.229   1.048  53.080  1.00  0.00     0.123 C 
HETATM    4  C3  UNL     1      25.917   1.846  53.131  1.00  0.00     0.134 C 
HETATM    5  N1  UNL     1      24.785   0.974  52.883  1.00  0.00    -0.358 N 
HETATM    6  C4  UNL     1      24.447  -0.073  53.780  1.00  0.00     0.047 C 
HETATM    7  C5  UNL     1      25.137  -0.665  54.741  1.00  0.00     0.120 C 
HETATM    8  N2  UNL     1      26.482  -0.410  55.172  1.00  0.00    -0.335 N 
HETATM    9  C6  UNL     1      23.094  -0.644  53.677  1.00  0.00     0.027 C 
HETATM   10  C7  UNL     1      22.412  -0.045  52.722  1.00  0.00    -0.021 C 
HETATM   11  C8  UNL     1      22.672   1.047  51.742  1.00  0.00     0.073 C 
HETATM   12  C9  UNL     1      24.112   1.332  51.624  1.00  0.00     0.183 C 
HETATM   13  H6  UNL     1      26.748  -0.775  56.104  1.00  0.00     0.168 HD
ENDROOT
BRANCH  12  14
HETATM   14  N3  UNL     1      24.556   2.582  51.172  1.00  0.00    -0.398 N 
HETATM   15  H12 UNL     1      25.404   2.954  51.679  1.00  0.00     0.155 HD
BRANCH  14  16
HETATM   16  C10 UNL     1      24.414   3.030  49.859  1.00  0.00     0.143 C 
BRANCH  16  17
HETATM   17  C11 UNL     1      24.568   4.456  49.559  1.00  0.00    -0.011 C 
HETATM   18  C12 UNL     1      25.576   5.316  49.247  1.00  0.00    -0.022 C 
BRANCH  18  19
HETATM   19  C13 UNL     1      26.924   4.732  49.168  1.00  0.00     0.035 A 
HETATM   20  C14 UNL     1      27.388   5.811  48.483  1.00  0.00     0.005 A 
HETATM   21  C15 UNL     1      28.172   5.641  48.351  1.00  0.00     0.005 A 
HETATM   22  C17 UNL     1      29.454   5.390  48.120  1.00  0.00     0.057 A 
HETATM   23  C16 UNL     1      28.731   5.525  48.247  1.00  0.00    -0.078 A 
ENDBRANCH  18  19
ENDBRANCH  16  17
ENDBRANCH  14  16
ENDBRANCH  12  14
TORSDOF 5
ENDMDL
MODEL 2
REMARK VINA RESULT:      -8.1      2.319      3.451
REMARK  5 active torsions:
REMARK  status: ('A' for Active; 'I' for Inactive)
REMARK    1  A    between atoms: C9_12  and  N3_13 
REMARK    2  A    between atoms: N3_13  and  C10_14 
REMARK    3  A    between atoms: C10_14  and  C11_15 
REMARK    4  A    between atoms: C12_16  and  C13_17 
REMARK    5  A    between atoms: C16_20  and  C17_21 
ROOT
HETATM    1  O1  UNL     1      28.690   0.322  54.964  1.00  0.00    -0.273 OA
HETATM    2  C1  UNL     1      27.539   0.486  54.448  1.00  0.00     0.223 C 
HETATM    3  C2  UNL     1      27.312   1.637  53.521  1.00  0.00     0.123 C 
HETATM    4  C3  UNL     1      25.951   2.289  53.817  1.00  0.00     0.134 C 
HETATM    5  N1  UNL     1      24.879   1.515  53.219  1.00  0.00    -0.358 N 
HETATM    6  C4  UNL     1      24.594   0.192  53.647  1.00  0.00     0.047 C 
HETATM    7  C5  UNL     1      25.305  -0.681  54.343  1.00  0.00     0.120 C 
HETATM    8  N2  UNL     1      26.625  -0.535  54.888  1.00  0.00    -0.335 N 
HETATM    9  C6  UNL     1      23.281  -0.369  53.287  1.00  0.00     0.027 C 
HETATM   10  C7  UNL     1      22.578   0.508  52.600  1.00  0.00    -0.021 C 
HETATM   11  C8  UNL     1      22.785   1.900  52.109  1.00  0.00     0.073 C 
HETATM   12  C9  UNL     1      24.205   2.283  52.160  1.00  0.00     0.183 C 
HETATM   13  H6  UNL     1      26.899  -1.208  55.626  1.00  0.00     0.168 HD
ENDROOT
BRANCH  12  14
HETATM   14  N3  UNL     1      24.577   3.633  52.224  1.00  0.00    -0.398 N 
HETATM   15  H12 UNL     1      25.612   3.796  52.352  1.00  0.00     0.155 HD
BRANCH  14  16
HETATM   16  C10 UNL     1      23.899   4.659  51.566  1.00  0.00     0.143 C 
BRANCH  16  17
HETATM   17  C11 UNL     1      24.188   4.930  50.156  1.00  0.00    -0.011 C 
HETATM   18  C12 UNL     1      23.633   4.655  48.943  1.00  0.00    -0.022 C 
BRANCH  18  19
HETATM   19  C13 UNL     1      22.392   3.865  48.964  1.00  0.00     0.035 A 
HETATM   20  C14 UNL     1      23.057   2.750  48.560  1.00  0.00     0.005 A 
HETATM   21  C15 UNL     1      22.479   2.178  48.517  1.00  0.00     0.005 A 
HETATM   22  C17 UNL     1      21.559   1.226  48.440  1.00  0.00     0.057 A 
HETATM   23  C16 UNL     1      22.073   1.766  48.479  1.00  0.00    -0.078 A 
ENDBRANCH  18  19
ENDBRANCH  16  17
ENDBRANCH  14  16
ENDBRANCH  12  14
TORSDOF 5
ENDMDL
MODEL 3
REMARK VINA RESULT:      -8.0      3.991      5.752
REMARK  5 active torsions:
REMARK  status: ('A' for Active; 'I' for Inactive)
REMARK    1  A    between atoms: C9_12  and  N3_13 
REMARK    2  A    between atoms: N3_13  and  C10_14 
REMARK    3  A    between atoms: C10_14  and  C11_15 
REMARK    4  A    between atoms: C12_16  and  C13_17 
REMARK    5  A    between atoms: C16_20  and  C17_21 
ROOT
HETATM    1  O1  UNL     1      18.885   0.412  52.354  1.00  0.00    -0.273 OA
HETATM    2  C1  UNL     1      20.036   0.183  52.842  1.00  0.00     0.223 C 
HETATM    3  C2  UNL     1      21.203   0.990  52.369  1.00  0.00     0.123 C 
HETATM    4  C3  UNL     1      22.426   0.079  52.171  1.00  0.00     0.134 C 
HETATM    5  N1  UNL     1      23.058  -0.203  53.446  1.00  0.00    -0.358 N 
HETATM    6  C4  UNL     1      22.388  -0.941  54.456  1.00  0.00     0.047 C 
HETATM    7  C5  UNL     1      21.109  -1.235  54.631  1.00  0.00     0.120 C 
HETATM    8  N2  UNL     1      19.984  -0.876  53.815  1.00  0.00    -0.335 N 
HETATM    9  C6  UNL     1      23.210  -1.515  55.535  1.00  0.00     0.027 C 
HETATM   10  C7  UNL     1      24.481  -1.224  55.350  1.00  0.00    -0.021 C 
HETATM   11  C8  UNL     1      25.272  -0.470  54.337  1.00  0.00     0.073 C 
HETATM   12  C9  UNL     1      24.407   0.381  53.504  1.00  0.00     0.183 C 
HETATM   13  H6  UNL     1      19.115  -1.421  53.957  1.00  0.00     0.168 HD
ENDROOT
BRANCH  12  14
HETATM   14  N3  UNL     1      24.820   0.782  52.226  1.00  0.00    -0.398 N 
HETATM   15  H12 UNL     1      24.069   0.729  51.487  1.00  0.00     0.155 HD
BRANCH  14  16
HETATM   16  C10 UNL     1      25.805   1.741  51.992  1.00  0.00     0.143 C 
BRANCH  16  17
HETATM   17  C11 UNL     1      26.556   2.299  53.119  1.00  0.00    -0.011 C 
HETATM   18  C12 UNL     1      27.784   2.145  53.686  1.00  0.00    -0.022 C 
BRANCH  18  19
HETATM   19  C13 UNL     1      28.671   1.158  53.049  1.00  0.00     0.035 A 
HETATM   20  C14 UNL     1      28.735   0.429  54.195  1.00  0.00     0.005 A 
HETATM   21  C15 UNL     1      29.219  -0.197  54.005  1.00  0.00     0.005 A 
HETATM   22  C17 UNL     1      30.004  -1.229  53.725  1.00  0.00     0.057 A 
HETATM   23  C16 UNL     1      29.567  -0.644  53.881  1.00  0.00    -0.078 A 
ENDBRANCH  18  19
ENDBRANCH  16  17
ENDBRANCH  14  16
ENDBRANCH  12  14
TORSDOF 5
ENDMDL
MODEL 4
REMARK VINA RESULT:      -8.0      2.215      6.471
REMARK  5 active torsions:
REMARK  status: ('A' for Active; 'I' for Inactive)
REMARK    1  A    between atoms: C9_12  and  N3_13 
REMARK    2  A    between atoms: N3_13  and  C10_14 
REMARK    3  A    between atoms: C10_14  and  C11_15 
REMARK    4  A    between atoms: C12_16  and  C13_17 
REMARK    5  A    between atoms: C16_20  and  C17_21 
ROOT
HETATM    1  O1  UNL     1      26.917   0.781  54.958  1.00  0.00    -0.273 OA
HETATM    2  C1  UNL     1      26.391   1.254  53.901  1.00  0.00     0.223 C 
HETATM    3  C2  UNL     1      24.902   1.255  53.764  1.00  0.00     0.123 C 
HETATM    4  C3  UNL     1      24.505   0.841  52.338  1.00  0.00     0.134 C 
HETATM    5  N1  UNL     1      24.652   1.961  51.426  1.00  0.00    -0.358 N 
HETATM    6  C4  UNL     1      25.923   2.529  51.152  1.00  0.00     0.047 C 
HETATM    7  C5  UNL     1      27.082   2.445  51.787  1.00  0.00     0.120 C 
HETATM    8  N2  UNL     1      27.399   1.725  52.987  1.00  0.00    -0.335 N 
HETATM    9  C6  UNL     1      26.044   3.374  49.952  1.00  0.00     0.027 C 
HETATM   10  C7  UNL     1      24.889   3.447  49.322  1.00  0.00    -0.021 C 
HETATM   11  C8  UNL     1      23.520   2.895  49.526  1.00  0.00     0.073 C 
HETATM   12  C9  UNL     1      23.346   2.379  50.894  1.00  0.00     0.183 C 
HETATM   13  H6  UNL     1      28.403   1.553  53.174  1.00  0.00     0.168 HD
ENDROOT
BRANCH  12  14
HETATM   14  N3  UNL     1      22.373   1.409  51.170  1.00  0.00    -0.398 N 
HETATM   15  H12 UNL     1      22.761   0.465  51.441  1.00  0.00     0.155 HD
BRANCH  14  16
HETATM   16  C10 UNL     1      21.114   1.697  51.695  1.00  0.00     0.143 C 
BRANCH  16  17
HETATM   17  C11 UNL     1      20.221   0.601  52.078  1.00  0.00    -0.011 C 
HETATM   18  C12 UNL     1      20.040  -0.226  53.145  1.00  0.00    -0.022 C 
BRANCH  18  19
HETATM   19  C13 UNL     1      20.962  -0.032  54.276  1.00  0.00     0.035 A 
HETATM   20  C14 UNL     1      21.564  -1.226  54.031  1.00  0.00     0.005 A 
HETATM   21  C15 UNL     1      22.138  -1.281  54.606  1.00  0.00     0.005 A 
HETATM   22  C17 UNL     1      23.083  -1.397  55.530  1.00  0.00     0.057 A 
HETATM   23  C16 UNL     1      22.546  -1.331  55.014  1.00  0.00    -0.078 A 
ENDBRANCH  18  19
ENDBRANCH  16  17
ENDBRANCH  14  16
ENDBRANCH  12  14
TORSDOF 5
ENDMDL
MODEL 5
REMARK VINA RESULT:      -8.0      3.357      5.370
REMARK  5 active torsions:
REMARK  status: ('A' for Active; 'I' for Inactive)
REMARK    1  A    between atoms: C9_12  and  N3_13 
REMARK    2  A    between atoms: N3_13  and  C10_14 
REMARK    3  A    between atoms: C10_14  and  C11_15 
REMARK    4  A    between atoms: C12_16  and  C13_17 
REMARK    5  A    between atoms: C16_20  and  C17_21 
ROOT
HETATM    1  O1  UNL     1      21.572  -2.059  55.147  1.00  0.00    -0.273 OA
HETATM    2  C1  UNL     1      21.854  -1.086  54.379  1.00  0.00     0.223 C 
HETATM    3  C2  UNL     1      23.103  -1.141  53.558  1.00  0.00     0.123 C 
HETATM    4  C3  UNL     1      23.801   0.229  53.572  1.00  0.00     0.134 C 
HETATM    5  N1  UNL     1      23.155   1.135  52.640  1.00  0.00    -0.358 N 
HETATM    6  C4  UNL     1      21.815   1.562  52.833  1.00  0.00     0.047 C 
HETATM    7  C5  UNL     1      20.837   1.082  53.585  1.00  0.00     0.120 C 
HETATM    8  N2  UNL     1      20.850  -0.057  54.458  1.00  0.00    -0.335 N 
HETATM    9  C6  UNL     1      21.370   2.755  52.093  1.00  0.00     0.027 C 
HETATM   10  C7  UNL     1      22.351   3.230  51.354  1.00  0.00    -0.021 C 
HETATM   11  C8  UNL     1      23.770   2.860  51.088  1.00  0.00     0.073 C 
HETATM   12  C9  UNL     1      24.062   1.489  51.538  1.00  0.00     0.183 C 
HETATM   13  H6  UNL     1      20.092  -0.111  55.161  1.00  0.00     0.168 HD
ENDROOT
BRANCH  12  14
HETATM   14  N3  UNL     1      25.374   1.104  51.843  1.00  0.00    -0.398 N 
HETATM   15  H12 UNL     1      25.520   0.061  51.908  1.00  0.00     0.155 HD
BRANCH  14  16
HETATM   16  C10 UNL     1      26.505   1.832  51.472  1.00  0.00     0.143 C 
BRANCH  16  17
HETATM   17  C11 UNL     1      27.362   2.416  52.506  1.00  0.00    -0.011 C 
HETATM   18  C12 UNL     1      28.099   1.983  53.567  1.00  0.00    -0.022 C 
BRANCH  18  19
HETATM   19  C13 UNL     1      28.083   0.533  53.817  1.00  0.00     0.035 A 
HETATM   20  C14 UNL     1      29.399   0.430  53.493  1.00  0.00     0.005 A 
HETATM   21  C15 UNL     1      29.565  -0.361  53.584  1.00  0.00     0.005 A 
HETATM   22  C17 UNL     1      29.864  -1.646  53.725  1.00  0.00     0.057 A 
HETATM   23  C16 UNL     1      29.690  -0.924  53.641  1.00  0.00    -0.078 A 
ENDBRANCH  18  19
ENDBRANCH  16  17
ENDBRANCH  14  16
ENDBRANCH  12  14
TORSDOF 5
ENDMDL
MODEL 6
REMARK VINA RESULT:      -7.6      3.124      6.019
REMARK  5 active torsions:
REMARK  status: ('A' for Active; 'I' for Inactive)
REMARK    1  A    between atoms: C9_12  and  N3_13 
REMARK    2  A    between atoms: N3_13  and  C10_14 
REMARK    3  A    between atoms: C10_14  and  C11_15 
REMARK    4  A    between atoms: C12_16  and  C13_17 
REMARK    5  A    between atoms: C16_20  and  C17_21 
ROOT
HETATM    1  O1  UNL     1      23.961   5.200  50.866  1.00  0.00    -0.273 OA
HETATM    2  C1  UNL     1      24.370   4.057  51.243  1.00  0.00     0.223 C 
HETATM    3  C2  UNL     1      23.386   3.071  51.784  1.00  0.00     0.123 C 
HETATM    4  C3  UNL     1      23.976   2.358  53.011  1.00  0.00     0.134 C 
HETATM    5  N1  UNL     1      24.890   1.310  52.596  1.00  0.00    -0.358 N 
HETATM    6  C4  UNL     1      26.095   1.611  51.908  1.00  0.00     0.047 C 
HETATM    7  C5  UNL     1      26.494   2.695  51.262  1.00  0.00     0.120 C 
HETATM    8  N2  UNL     1      25.793   3.932  51.063  1.00  0.00    -0.335 N 
HETATM    9  C6  UNL     1      27.134   0.568  51.873  1.00  0.00     0.027 C 
HETATM   10  C7  UNL     1      26.732  -0.505  52.523  1.00  0.00    -0.021 C 
HETATM   11  C8  UNL     1      25.507  -0.911  53.268  1.00  0.00     0.073 C 
HETATM   12  C9  UNL     1      24.376  -0.015  52.973  1.00  0.00     0.183 C 
HETATM   13  H6  UNL     1      26.364   4.748  50.779  1.00  0.00     0.168 HD
ENDROOT
BRANCH  12  14
HETATM   14  N3  UNL     1      23.314   0.113  53.879  1.00  0.00    -0.398 N 
HETATM   15  H12 UNL     1      23.169   1.091  54.246  1.00  0.00     0.155 HD
BRANCH  14  16
HETATM   16  C10 UNL     1      22.166  -0.678  53.849  1.00  0.00     0.143 C 
BRANCH  16  17
HETATM   17  C11 UNL     1      20.916  -0.122  53.325  1.00  0.00    -0.011 C 
HETATM   18  C12 UNL     1      20.422   0.292  52.125  1.00  0.00    -0.022 C 
BRANCH  18  19
HETATM   19  C13 UNL     1      21.338   0.185  50.978  1.00  0.00     0.035 A 
HETATM   20  C14 UNL     1      20.595   1.072  50.263  1.00  0.00     0.005 A 
HETATM   21  C15 UNL     1      20.988   1.132  49.552  1.00  0.00     0.005 A 
HETATM   22  C17 UNL     1      21.607   1.251  48.385  1.00  0.00     0.057 A 
HETATM   23  C16 UNL     1      21.258   1.177  49.041  1.00  0.00    -0.078 A 
ENDBRANCH  18  19
ENDBRANCH  16  17
ENDBRANCH  14  16
ENDBRANCH  12  14
TORSDOF 5
ENDMDL
MODEL 7
REMARK VINA RESULT:      -7.5      2.735      3.883
REMARK  5 active torsions:
REMARK  status: ('A' for Active; 'I' for Inactive)
REMARK    1  A    between atoms: C9_12  and  N3_13 
REMARK    2  A    between atoms: N3_13  and  C10_14 
REMARK    3  A    between atoms: C10_14  and  C11_15 
REMARK    4  A    between atoms: C12_16  and  C13_17 
REMARK    5  A    between atoms: C16_20  and  C17_21 
ROOT
HETATM    1  O1  UNL     1      18.808  -0.737  53.495  1.00  0.00    -0.273 OA
HETATM    2  C1  UNL     1      20.061  -0.591  53.653  1.00  0.00     0.223 C 
HETATM    3  C2  UNL     1      20.739   0.600  53.056  1.00  0.00     0.123 C 
HETATM    4  C3  UNL     1      22.079   0.183  52.429  1.00  0.00     0.134 C 
HETATM    5  N1  UNL     1      23.095   0.041  53.456  1.00  0.00    -0.358 N 
HETATM    6  C4  UNL     1      22.996  -0.955  54.462  1.00  0.00     0.047 C 
HETATM    7  C5  UNL     1      21.974  -1.682  54.884  1.00  0.00     0.120 C 
HETATM    8  N2  UNL     1      20.614  -1.673  54.425  1.00  0.00    -0.335 N 
HETATM    9  C6  UNL     1      24.221  -1.290  55.208  1.00  0.00     0.027 C 
HETATM   10  C7  UNL     1      25.234  -0.566  54.778  1.00  0.00    -0.021 C 
HETATM   11  C8  UNL     1      25.437   0.487  53.743  1.00  0.00     0.073 C 
HETATM   12  C9  UNL     1      24.154   1.048  53.288  1.00  0.00     0.183 C 
HETATM   13  H6  UNL     1      20.033  -2.493  54.678  1.00  0.00     0.168 HD
ENDROOT
BRANCH  12  14
HETATM   14  N3  UNL     1      24.051   1.660  52.031  1.00  0.00    -0.398 N 
HETATM   15  H12 UNL     1      23.298   1.259  51.410  1.00  0.00     0.155 HD
BRANCH  14  16
HETATM   16  C10 UNL     1      24.357   2.999  51.790  1.00  0.00     0.143 C 
BRANCH  16  17
HETATM   17  C11 UNL     1      24.092   3.577  50.471  1.00  0.00    -0.011 C 
HETATM   18  C12 UNL     1      24.811   4.039  49.411  1.00  0.00    -0.022 C 
BRANCH  18  19
HETATM   19  C13 UNL     1      26.275   3.980  49.547  1.00  0.00     0.035 A 
HETATM   20  C14 UNL     1      26.431   5.007  48.670  1.00  0.00     0.005 A 
HETATM   21  C15 UNL     1      27.237   5.110  48.626  1.00  0.00     0.005 A 
HETATM   22  C17 UNL     1      28.546   5.304  48.536  1.00  0.00     0.057 A 
HETATM   23  C16 UNL     1      27.810   5.188  48.585  1.00  0.00    -0.078 A 
ENDBRANCH  18  19
ENDBRANCH  16  17
ENDBRANCH  14  16
ENDBRANCH  12  14
TORSDOF 5
ENDMDL
MODEL 8
REMARK VINA RESULT:      -7.5      2.559      6.236
REMARK  5 active torsions:
REMARK  status: ('A' for Active; 'I' for Inactive)
REMARK    1  A    between atoms: C9_12  and  N3_13 
REMARK    2  A    between atoms: N3_13  and  C10_14 
REMARK    3  A    between atoms: C10_14  and  C11_15 
REMARK    4  A    between atoms: C12_16  and  C13_17 
REMARK    5  A    between atoms: C16_20  and  C17_21 
ROOT
HETATM    1  O1  UNL     1      28.249   4.732  48.582  1.00  0.00    -0.273 OA
HETATM    2  C1  UNL     1      27.167   4.731  49.251  1.00  0.00     0.223 C 
HETATM    3  C2  UNL     1      26.790   3.510  50.027  1.00  0.00     0.123 C 
HETATM    4  C3  UNL     1      25.287   3.229  49.869  1.00  0.00     0.134 C 
HETATM    5  N1  UNL     1      24.516   4.097  50.740  1.00  0.00    -0.358 N 
HETATM    6  C4  UNL     1      24.504   5.505  50.559  1.00  0.00     0.047 C 
HETATM    7  C5  UNL     1      25.309   6.314  49.889  1.00  0.00     0.120 C 
HETATM    8  N2  UNL     1      26.476   5.986  49.119  1.00  0.00    -0.335 N 
HETATM    9  C6  UNL     1      23.421   6.262  51.207  1.00  0.00     0.027 C 
HETATM   10  C7  UNL     1      22.621   5.449  51.866  1.00  0.00    -0.021 C 
HETATM   11  C8  UNL     1      22.549   3.981  52.111  1.00  0.00     0.073 C 
HETATM   12  C9  UNL     1      23.818   3.316  51.773  1.00  0.00     0.183 C 
HETATM   13  H6  UNL     1      26.807   6.705  48.451  1.00  0.00     0.168 HD
ENDROOT
BRANCH  12  14
HETATM   14  N3  UNL     1      23.844   1.952  51.455  1.00  0.00    -0.398 N 
HETATM   15  H12 UNL     1      23.825   1.744  50.420  1.00  0.00     0.155 HD
BRANCH  14  16
HETATM   16  C10 UNL     1      24.474   0.983  52.235  1.00  0.00     0.143 C 
BRANCH  16  17
HETATM   17  C11 UNL     1      25.176   1.380  53.457  1.00  0.00    -0.011 C 
HETATM   18  C12 UNL     1      26.418   1.238  53.997  1.00  0.00    -0.022 C 
BRANCH  18  19
HETATM   19  C13 UNL     1      27.391   0.482  53.192  1.00  0.00     0.035 A 
HETATM   20  C14 UNL     1      28.154   0.232  54.289  1.00  0.00     0.005 A 
HETATM   21  C15 UNL     1      28.777  -0.206  54.002  1.00  0.00     0.005 A 
HETATM   22  C17 UNL     1      29.803  -0.923  53.563  1.00  0.00     0.057 A 
HETATM   23  C16 UNL     1      29.227  -0.514  53.806  1.00  0.00    -0.078 A 
ENDBRANCH  18  19
ENDBRANCH  16  17
ENDBRANCH  14  16
ENDBRANCH  12  14
TORSDOF 5
ENDMDL
MODEL 9
REMARK VINA RESULT:      -7.5      3.090      4.982
REMARK  5 active torsions:
REMARK  status: ('A' for Active; 'I' for Inactive)
REMARK    1  A    between atoms: C9_12  and  N3_13 
REMARK    2  A    between atoms: N3_13  and  C10_14 
REMARK    3  A    between atoms: C10_14  and  C11_15 
REMARK    4  A    between atoms: C12_16  and  C13_17 
REMARK    5  A    between atoms: C16_20  and  C17_21 
ROOT
HETATM    1  O1  UNL     1      26.975   2.913  50.850  1.00  0.00    -0.273 OA
HETATM    2  C1  UNL     1      26.068   2.276  51.473  1.00  0.00     0.223 C 
HETATM    3  C2  UNL     1      24.635   2.504  51.113  1.00  0.00     0.123 C 
HETATM    4  C3  UNL     1      23.779   2.583  52.387  1.00  0.00     0.134 C 
HETATM    5  N1  UNL     1      23.503   1.252  52.894  1.00  0.00    -0.358 N 
HETATM    6  C4  UNL     1      24.544   0.413  53.372  1.00  0.00     0.047 C 
HETATM    7  C5  UNL     1      25.856   0.456  53.208  1.00  0.00     0.120 C 
HETATM    8  N2  UNL     1      26.639   1.404  52.466  1.00  0.00    -0.335 N 
HETATM    9  C6  UNL     1      24.159  -0.731  54.215  1.00  0.00     0.027 C 
HETATM   10  C7  UNL     1      22.852  -0.763  54.380  1.00  0.00    -0.021 C 
HETATM   11  C8  UNL     1      21.694   0.058  53.928  1.00  0.00     0.073 C 
HETATM   12  C9  UNL     1      22.067   0.947  52.815  1.00  0.00     0.183 C 
HETATM   13  H6  UNL     1      27.652   1.436  52.679  1.00  0.00     0.168 HD
ENDROOT
BRANCH  12  14
HETATM   14  N3  UNL     1      21.334   2.113  52.559  1.00  0.00    -0.398 N 
HETATM   15  H12 UNL     1      21.880   2.875  52.074  1.00  0.00     0.155 HD
BRANCH  14  16
HETATM   16  C10 UNL     1      19.960   2.132  52.316  1.00  0.00     0.143 C 
BRANCH  16  17
HETATM   17  C11 UNL     1      19.384   1.203  51.341  1.00  0.00    -0.011 C 
HETATM   18  C12 UNL     1      19.392   1.027  49.990  1.00  0.00    -0.022 C 
BRANCH  18  19
HETATM   19  C13 UNL     1      20.176   2.003  49.216  1.00  0.00     0.035 A 
HETATM   20  C14 UNL     1      21.125   1.069  48.940  1.00  0.00     0.005 A 
HETATM   21  C15 UNL     1      21.671   1.469  48.488  1.00  0.00     0.005 A 
HETATM   22  C17 UNL     1      22.578   2.094  47.748  1.00  0.00     0.057 A 
HETATM   23  C16 UNL     1      22.068   1.747  48.170  1.00  0.00    -0.078 A 
ENDBRANCH  18  19
ENDBRANCH  16  17
ENDBRANCH  14  16
ENDBRANCH  12  14
TORSDOF 5
ENDMDL
