MODEL 1
REMARK VINA RESULT:      -9.2      0.000      0.000
REMARK  2 active torsions:
REMARK  status: ('A' for Active; 'I' for Inactive)
REMARK    1  A    between atoms: C4_5  and  N1_6 
REMARK    2  A    between atoms: N1_6  and  C5_7 
ROOT
HETATM    1  C5  UNL     1      23.943  -0.471  53.825  1.00  0.00     0.158 A 
HETATM    2  N2  UNL     1      24.186  -1.043  55.007  1.00  0.00    -0.222 NA
HETATM    3  C6  UNL     1      23.204  -1.618  55.707  1.00  0.00     0.236 A 
HETATM    4  N3  UNL     1      21.918  -1.648  55.252  1.00  0.00    -0.240 NA
HETATM    5  C7  UNL     1      21.624  -1.076  54.050  1.00  0.00     0.089 A 
HETATM    6  C8  UNL     1      22.661  -0.474  53.320  1.00  0.00     0.104 A 
HETATM    7  N4  UNL     1      22.486   0.133  52.053  1.00  0.00    -0.381 N 
HETATM    8  C9  UNL     1      21.422   0.923  51.507  1.00  0.00     0.159 C 
HETATM    9  C10 UNL     1      20.068   0.545  51.962  1.00  0.00    -0.032 C 
HETATM   10  C11 UNL     1      19.354   1.493  51.328  1.00  0.00     0.011 C 
HETATM   11  C12 UNL     1      17.890   1.673  51.371  1.00  0.00     0.025 C 
HETATM   12  C13 UNL     1      16.943   0.829  51.727  1.00  0.00     0.135 C 
HETATM   13  O1  UNL     1      17.196  -0.457  52.149  1.00  0.00    -0.359 OA
HETATM   14  C14 UNL     1      18.148  -1.059  52.965  1.00  0.00     0.213 C 
HETATM   15  C15 UNL     1      19.515  -0.495  52.825  1.00  0.00    -0.024 C 
HETATM   16  C16 UNL     1      20.187  -1.204  53.736  1.00  0.00     0.044 C 
HETATM   17  H5  UNL     1      23.336  -0.082  51.442  1.00  0.00     0.160 HD
ENDROOT
BRANCH   1  18
HETATM   18  N1  UNL     1      24.965   0.156  53.068  1.00  0.00    -0.339 N 
HETATM   19  H3  UNL     1      24.808   0.827  52.291  1.00  0.00     0.167 HD
BRANCH  18  20
HETATM   20  C4  UNL     1      26.364   0.001  53.239  1.00  0.00     0.035 A 
HETATM   21  C3  UNL     1      27.071  -1.166  52.919  1.00  0.00     0.032 A 
HETATM   22  C2  UNL     1      28.419  -1.340  53.082  1.00  0.00     0.046 A 
HETATM   23  C1  UNL     1      29.179  -0.316  53.598  1.00  0.00     0.138 A 
HETATM   24  F1  UNL     1      30.501  -0.569  53.728  1.00  0.00    -0.204 F 
HETATM   25  C18 UNL     1      28.545   0.862  53.934  1.00  0.00     0.074 A 
HETATM   26  C17 UNL     1      27.193   0.963  53.743  1.00  0.00     0.056 A 
HETATM   27 CL1  UNL     1      29.579   2.108  54.581  1.00  0.00    -0.081 Cl
ENDBRANCH  18  20
ENDBRANCH   1  18
TORSDOF 2
ENDMDL
MODEL 2
REMARK VINA RESULT:      -9.1      5.625      7.460
REMARK  2 active torsions:
REMARK  status: ('A' for Active; 'I' for Inactive)
REMARK    1  A    between atoms: C4_5  and  N1_6 
REMARK    2  A    between atoms: N1_6  and  C5_7 
ROOT
HETATM    1  C5  UNL     1      24.586   2.861  51.667  1.00  0.00     0.158 A 
HETATM    2  N2  UNL     1      23.737   3.263  52.615  1.00  0.00    -0.222 NA
HETATM    3  C6  UNL     1      23.312   4.529  52.667  1.00  0.00     0.236 A 
HETATM    4  N3  UNL     1      23.723   5.463  51.761  1.00  0.00    -0.240 NA
HETATM    5  C7  UNL     1      24.591   5.096  50.775  1.00  0.00     0.089 A 
HETATM    6  C8  UNL     1      25.031   3.765  50.727  1.00  0.00     0.104 A 
HETATM    7  N4  UNL     1      25.913   3.259  49.741  1.00  0.00    -0.381 N 
HETATM    8  C9  UNL     1      27.055   3.831  49.092  1.00  0.00     0.159 C 
HETATM    9  C10 UNL     1      26.967   5.286  48.844  1.00  0.00    -0.032 C 
HETATM   10  C11 UNL     1      28.182   5.487  48.302  1.00  0.00     0.011 C 
HETATM   11  C12 UNL     1      28.734   6.769  47.823  1.00  0.00     0.025 C 
HETATM   12  C13 UNL     1      28.120   7.891  47.507  1.00  0.00     0.135 C 
HETATM   13  O1  UNL     1      26.754   8.052  47.583  1.00  0.00    -0.359 OA
HETATM   14  C14 UNL     1      25.764   7.670  48.481  1.00  0.00     0.213 C 
HETATM   15  C15 UNL     1      25.957   6.317  49.063  1.00  0.00    -0.024 C 
HETATM   16  C16 UNL     1      24.921   6.241  49.902  1.00  0.00     0.044 C 
HETATM   17  H5  UNL     1      25.610   2.269  49.477  1.00  0.00     0.160 HD
ENDROOT
BRANCH   1  18
HETATM   18  N1  UNL     1      25.059   1.526  51.598  1.00  0.00    -0.339 N 
HETATM   19  H3  UNL     1      24.633   0.769  51.028  1.00  0.00     0.167 HD
BRANCH  18  20
HETATM   20  C4  UNL     1      26.190   0.991  52.264  1.00  0.00     0.035 A 
HETATM   21  C3  UNL     1      26.468  -0.379  52.364  1.00  0.00     0.032 A 
HETATM   22  C2  UNL     1      27.549  -0.919  53.007  1.00  0.00     0.046 A 
HETATM   23  C1  UNL     1      28.461  -0.089  53.618  1.00  0.00     0.138 A 
HETATM   24  F1  UNL     1      29.499  -0.701  54.231  1.00  0.00    -0.204 F 
HETATM   25  C18 UNL     1      28.247   1.273  53.557  1.00  0.00     0.074 A 
HETATM   26  C17 UNL     1      27.142   1.739  52.895  1.00  0.00     0.056 A 
HETATM   27 CL1  UNL     1      29.447   2.254  54.355  1.00  0.00    -0.081 Cl
ENDBRANCH  18  20
ENDBRANCH   1  18
TORSDOF 2
ENDMDL
MODEL 3
REMARK VINA RESULT:      -9.0      2.765      4.315
REMARK  2 active torsions:
REMARK  status: ('A' for Active; 'I' for Inactive)
REMARK    1  A    between atoms: C4_5  and  N1_6 
REMARK    2  A    between atoms: N1_6  and  C5_7 
ROOT
HETATM    1  C5  UNL     1      26.204   2.825  51.620  1.00  0.00     0.158 A 
HETATM    2  N2  UNL     1      26.863   3.263  50.545  1.00  0.00    -0.222 NA
HETATM    3  C6  UNL     1      26.214   3.568  49.417  1.00  0.00     0.236 A 
HETATM    4  N3  UNL     1      24.858   3.447  49.313  1.00  0.00    -0.240 NA
HETATM    5  C7  UNL     1      24.145   3.002  50.387  1.00  0.00     0.089 A 
HETATM    6  C8  UNL     1      24.835   2.685  51.567  1.00  0.00     0.104 A 
HETATM    7  N4  UNL     1      24.205   2.234  52.753  1.00  0.00    -0.381 N 
HETATM    8  C9  UNL     1      23.091   1.361  52.975  1.00  0.00     0.159 C 
HETATM    9  C10 UNL     1      22.021   1.445  51.959  1.00  0.00    -0.032 C 
HETATM   10  C11 UNL     1      21.201   0.487  52.429  1.00  0.00     0.011 C 
HETATM   11  C12 UNL     1      19.913   0.064  51.846  1.00  0.00     0.025 C 
HETATM   12  C13 UNL     1      19.125   0.684  50.990  1.00  0.00     0.135 C 
HETATM   13  O1  UNL     1      19.409   1.925  50.465  1.00  0.00    -0.359 OA
HETATM   14  C14 UNL     1      20.552   2.559  49.992  1.00  0.00     0.213 C 
HETATM   15  C15 UNL     1      21.783   2.253  50.766  1.00  0.00    -0.024 C 
HETATM   16  C16 UNL     1      22.703   2.932  50.077  1.00  0.00     0.044 C 
HETATM   17  H5  UNL     1      24.698   2.668  53.596  1.00  0.00     0.160 HD
ENDROOT
BRANCH   1  18
HETATM   18  N1  UNL     1      26.872   2.484  52.824  1.00  0.00    -0.339 N 
HETATM   19  H3  UNL     1      26.859   3.050  53.695  1.00  0.00     0.167 HD
BRANCH  18  20
HETATM   20  C4  UNL     1      27.648   1.323  53.065  1.00  0.00     0.035 A 
HETATM   21  C3  UNL     1      28.933   1.338  53.626  1.00  0.00     0.032 A 
HETATM   22  C2  UNL     1      29.703   0.232  53.861  1.00  0.00     0.046 A 
HETATM   23  C1  UNL     1      29.219  -1.015  53.537  1.00  0.00     0.138 A 
HETATM   24  F1  UNL     1      30.042  -2.055  53.800  1.00  0.00    -0.204 F 
HETATM   25  C18 UNL     1      27.960  -1.101  52.981  1.00  0.00     0.074 A 
HETATM   26  C17 UNL     1      27.247   0.050  52.775  1.00  0.00     0.056 A 
HETATM   27 CL1  UNL     1      27.422  -2.716  52.599  1.00  0.00    -0.081 Cl
ENDBRANCH  18  20
ENDBRANCH   1  18
TORSDOF 2
ENDMDL
MODEL 4
REMARK VINA RESULT:      -8.9      1.303      2.816
REMARK  2 active torsions:
REMARK  status: ('A' for Active; 'I' for Inactive)
REMARK    1  A    between atoms: C4_5  and  N1_6 
REMARK    2  A    between atoms: N1_6  and  C5_7 
ROOT
HETATM    1  C5  UNL     1      23.429   0.963  52.527  1.00  0.00     0.158 A 
HETATM    2  N2  UNL     1      23.876   1.544  51.411  1.00  0.00    -0.222 NA
HETATM    3  C6  UNL     1      23.042   1.850  50.413  1.00  0.00     0.236 A 
HETATM    4  N3  UNL     1      21.705   1.587  50.487  1.00  0.00    -0.240 NA
HETATM    5  C7  UNL     1      21.205   0.994  51.608  1.00  0.00     0.089 A 
HETATM    6  C8  UNL     1      22.088   0.675  52.652  1.00  0.00     0.104 A 
HETATM    7  N4  UNL     1      21.687   0.078  53.872  1.00  0.00    -0.381 N 
HETATM    8  C9  UNL     1      20.710  -0.927  54.172  1.00  0.00     0.159 C 
HETATM    9  C10 UNL     1      19.500  -0.894  53.323  1.00  0.00    -0.032 C 
HETATM   10  C11 UNL     1      18.858  -1.967  53.820  1.00  0.00     0.011 C 
HETATM   11  C12 UNL     1      17.548  -2.490  53.388  1.00  0.00     0.025 C 
HETATM   12  C13 UNL     1      16.586  -1.905  52.703  1.00  0.00     0.135 C 
HETATM   13  O1  UNL     1      16.663  -0.607  52.249  1.00  0.00    -0.359 OA
HETATM   14  C14 UNL     1      17.656   0.181  51.677  1.00  0.00     0.213 C 
HETATM   15  C15 UNL     1      19.011  -0.038  52.246  1.00  0.00    -0.024 C 
HETATM   16  C16 UNL     1      19.748   0.785  51.496  1.00  0.00     0.044 C 
HETATM   17  H5  UNL     1      22.252   0.505  54.672  1.00  0.00     0.160 HD
ENDROOT
BRANCH   1  18
HETATM   18  N1  UNL     1      24.296   0.618  53.594  1.00  0.00    -0.339 N 
HETATM   19  H3  UNL     1      24.035   0.616  54.600  1.00  0.00     0.167 HD
BRANCH  18  20
HETATM   20  C4  UNL     1      25.647   0.200  53.490  1.00  0.00     0.035 A 
HETATM   21  C3  UNL     1      26.053  -1.014  52.919  1.00  0.00     0.032 A 
HETATM   22  C2  UNL     1      27.349  -1.442  52.813  1.00  0.00     0.046 A 
HETATM   23  C1  UNL     1      28.366  -0.649  53.292  1.00  0.00     0.138 A 
HETATM   24  F1  UNL     1      29.617  -1.144  53.149  1.00  0.00    -0.204 F 
HETATM   25  C18 UNL     1      28.036   0.561  53.866  1.00  0.00     0.074 A 
HETATM   26  C17 UNL     1      26.717   0.921  53.937  1.00  0.00     0.056 A 
HETATM   27 CL1  UNL     1      29.384   1.504  54.447  1.00  0.00    -0.081 Cl
ENDBRANCH  18  20
ENDBRANCH   1  18
TORSDOF 2
ENDMDL
MODEL 5
REMARK VINA RESULT:      -8.8      4.794      5.997
REMARK  2 active torsions:
REMARK  status: ('A' for Active; 'I' for Inactive)
REMARK    1  A    between atoms: C4_5  and  N1_6 
REMARK    2  A    between atoms: N1_6  and  C5_7 
ROOT
HETATM    1  C5  UNL     1      26.525   2.381  51.218  1.00  0.00     0.158 A 
HETATM    2  N2  UNL     1      27.678   2.570  51.864  1.00  0.00    -0.222 NA
HETATM    3  C6  UNL     1      27.902   2.005  53.053  1.00  0.00     0.236 A 
HETATM    4  N3  UNL     1      26.970   1.213  53.660  1.00  0.00    -0.240 NA
HETATM    5  C7  UNL     1      25.778   0.992  53.037  1.00  0.00     0.089 A 
HETATM    6  C8  UNL     1      25.551   1.590  51.787  1.00  0.00     0.104 A 
HETATM    7  N4  UNL     1      24.364   1.419  51.033  1.00  0.00    -0.381 N 
HETATM    8  C9  UNL     1      22.988   1.323  51.421  1.00  0.00     0.159 C 
HETATM    9  C10 UNL     1      22.749   0.638  52.708  1.00  0.00    -0.032 C 
HETATM   10  C11 UNL     1      21.413   0.779  52.784  1.00  0.00     0.011 C 
HETATM   11  C12 UNL     1      20.533   0.296  53.866  1.00  0.00     0.025 C 
HETATM   12  C13 UNL     1      20.751  -0.618  54.790  1.00  0.00     0.135 C 
HETATM   13  O1  UNL     1      21.931  -1.320  54.896  1.00  0.00    -0.359 OA
HETATM   14  C14 UNL     1      23.280  -1.006  54.778  1.00  0.00     0.213 C 
HETATM   15  C15 UNL     1      23.587  -0.029  53.700  1.00  0.00    -0.024 C 
HETATM   16  C16 UNL     1      24.905   0.121  53.849  1.00  0.00     0.044 C 
HETATM   17  H5  UNL     1      24.615   1.351  49.997  1.00  0.00     0.160 HD
ENDROOT
BRANCH   1  18
HETATM   18  N1  UNL     1      26.260   2.979  49.960  1.00  0.00    -0.339 N 
HETATM   19  H3  UNL     1      25.948   2.470  49.110  1.00  0.00     0.167 HD
BRANCH  18  20
HETATM   20  C4  UNL     1      26.348   4.357  49.640  1.00  0.00     0.035 A 
HETATM   21  C3  UNL     1      27.320   4.907  48.793  1.00  0.00     0.032 A 
HETATM   22  C2  UNL     1      27.429   6.234  48.475  1.00  0.00     0.046 A 
HETATM   23  C1  UNL     1      26.536   7.135  49.007  1.00  0.00     0.138 A 
HETATM   24  F1  UNL     1      26.713   8.426  48.644  1.00  0.00    -0.204 F 
HETATM   25  C18 UNL     1      25.552   6.660  49.849  1.00  0.00     0.074 A 
HETATM   26  C17 UNL     1      25.506   5.318  50.121  1.00  0.00     0.056 A 
HETATM   27 CL1  UNL     1      24.462   7.867  50.478  1.00  0.00    -0.081 Cl
ENDBRANCH  18  20
ENDBRANCH   1  18
TORSDOF 2
ENDMDL
MODEL 6
REMARK VINA RESULT:      -8.5      5.915      8.085
REMARK  2 active torsions:
REMARK  status: ('A' for Active; 'I' for Inactive)
REMARK    1  A    between atoms: C4_5  and  N1_6 
REMARK    2  A    between atoms: N1_6  and  C5_7 
ROOT
HETATM    1  C5  UNL     1      23.205   3.290  51.040  1.00  0.00     0.158 A 
HETATM    2  N2  UNL     1      22.292   3.909  51.793  1.00  0.00    -0.222 NA
HETATM    3  C6  UNL     1      22.192   5.241  51.797  1.00  0.00     0.236 A 
HETATM    4  N3  UNL     1      23.010   6.026  51.038  1.00  0.00    -0.240 NA
HETATM    5  C7  UNL     1      23.957   5.437  50.253  1.00  0.00     0.089 A 
HETATM    6  C8  UNL     1      24.056   4.037  50.255  1.00  0.00     0.104 A 
HETATM    7  N4  UNL     1      24.982   3.309  49.469  1.00  0.00    -0.381 N 
HETATM    8  C9  UNL     1      26.344   3.568  49.107  1.00  0.00     0.159 C 
HETATM    9  C10 UNL     1      26.674   4.994  48.900  1.00  0.00    -0.032 C 
HETATM   10  C11 UNL     1      27.990   4.876  48.646  1.00  0.00     0.011 C 
HETATM   11  C12 UNL     1      28.933   5.972  48.347  1.00  0.00     0.025 C 
HETATM   12  C13 UNL     1      28.699   7.205  47.945  1.00  0.00     0.135 C 
HETATM   13  O1  UNL     1      27.433   7.701  47.725  1.00  0.00    -0.359 OA
HETATM   14  C14 UNL     1      26.206   7.595  48.369  1.00  0.00     0.213 C 
HETATM   15  C15 UNL     1      25.926   6.247  48.929  1.00  0.00    -0.024 C 
HETATM   16  C16 UNL     1      24.744   6.447  49.517  1.00  0.00     0.044 C 
HETATM   17  H5  UNL     1      24.511   2.420  49.108  1.00  0.00     0.160 HD
ENDROOT
BRANCH   1  18
HETATM   18  N1  UNL     1      23.338   1.879  51.028  1.00  0.00    -0.339 N 
HETATM   19  H3  UNL     1      23.201   1.272  50.195  1.00  0.00     0.167 HD
BRANCH  18  20
HETATM   20  C4  UNL     1      23.696   1.050  52.121  1.00  0.00     0.035 A 
HETATM   21  C3  UNL     1      25.017   0.801  52.519  1.00  0.00     0.032 A 
HETATM   22  C2  UNL     1      25.387   0.000  53.565  1.00  0.00     0.046 A 
HETATM   23  C1  UNL     1      24.420  -0.630  54.314  1.00  0.00     0.138 A 
HETATM   24  F1  UNL     1      24.868  -1.403  55.328  1.00  0.00    -0.204 F 
HETATM   25  C18 UNL     1      23.098  -0.426  53.976  1.00  0.00     0.074 A 
HETATM   26  C17 UNL     1      22.804   0.389  52.915  1.00  0.00     0.056 A 
HETATM   27 CL1  UNL     1      21.936  -1.260  54.974  1.00  0.00    -0.081 Cl
ENDBRANCH  18  20
ENDBRANCH   1  18
TORSDOF 2
ENDMDL
MODEL 7
REMARK VINA RESULT:      -8.4      6.765      8.874
REMARK  2 active torsions:
REMARK  status: ('A' for Active; 'I' for Inactive)
REMARK    1  A    between atoms: C4_5  and  N1_6 
REMARK    2  A    between atoms: N1_6  and  C5_7 
ROOT
HETATM    1  C5  UNL     1      25.539   3.747  50.518  1.00  0.00     0.158 A 
HETATM    2  N2  UNL     1      24.518   4.013  51.336  1.00  0.00    -0.222 NA
HETATM    3  C6  UNL     1      23.979   5.234  51.389  1.00  0.00     0.236 A 
HETATM    4  N3  UNL     1      24.442   6.259  50.616  1.00  0.00    -0.240 NA
HETATM    5  C7  UNL     1      25.484   6.032  49.766  1.00  0.00     0.089 A 
HETATM    6  C8  UNL     1      26.045   4.747  49.716  1.00  0.00     0.104 A 
HETATM    7  N4  UNL     1      27.114   4.383  48.861  1.00  0.00    -0.381 N 
HETATM    8  C9  UNL     1      28.287   5.089  48.440  1.00  0.00     0.159 C 
HETATM    9  C10 UNL     1      28.109   6.545  48.263  1.00  0.00    -0.032 C 
HETATM   10  C11 UNL     1      29.372   6.880  47.940  1.00  0.00     0.011 C 
HETATM   11  C12 UNL     1      29.875   8.232  47.630  1.00  0.00     0.025 C 
HETATM   12  C13 UNL     1      29.219   9.321  47.282  1.00  0.00     0.135 C 
HETATM   13  O1  UNL     1      27.850   9.367  47.142  1.00  0.00    -0.359 OA
HETATM   14  C14 UNL     1      26.768   8.846  47.843  1.00  0.00     0.213 C 
HETATM   15  C15 UNL     1      26.988   7.475  48.372  1.00  0.00    -0.024 C 
HETATM   16  C16 UNL     1      25.843   7.258  49.025  1.00  0.00     0.044 C 
HETATM   17  H5  UNL     1      26.947   3.393  48.495  1.00  0.00     0.160 HD
ENDROOT
BRANCH   1  18
HETATM   18  N1  UNL     1      26.136   2.462  50.452  1.00  0.00    -0.339 N 
HETATM   19  H3  UNL     1      26.237   1.893  49.589  1.00  0.00     0.167 HD
BRANCH  18  20
HETATM   20  C4  UNL     1      26.711   1.738  51.526  1.00  0.00     0.035 A 
HETATM   21  C3  UNL     1      27.425   2.326  52.579  1.00  0.00     0.032 A 
HETATM   22  C2  UNL     1      27.995   1.647  53.622  1.00  0.00     0.046 A 
HETATM   23  C1  UNL     1      27.883   0.277  53.683  1.00  0.00     0.138 A 
HETATM   24  F1  UNL     1      28.474  -0.317  54.744  1.00  0.00    -0.204 F 
HETATM   25  C18 UNL     1      27.191  -0.366  52.677  1.00  0.00     0.074 A 
HETATM   26  C17 UNL     1      26.648   0.380  51.666  1.00  0.00     0.056 A 
HETATM   27 CL1  UNL     1      27.095  -2.101  52.830  1.00  0.00    -0.081 Cl
ENDBRANCH  18  20
ENDBRANCH   1  18
TORSDOF 2
ENDMDL
MODEL 8
REMARK VINA RESULT:      -8.4      4.417      5.212
REMARK  2 active torsions:
REMARK  status: ('A' for Active; 'I' for Inactive)
REMARK    1  A    between atoms: C4_5  and  N1_6 
REMARK    2  A    between atoms: N1_6  and  C5_7 
ROOT
HETATM    1  C5  UNL     1      24.544   2.456  51.137  1.00  0.00     0.158 A 
HETATM    2  N2  UNL     1      25.464   2.800  52.042  1.00  0.00    -0.222 NA
HETATM    3  C6  UNL     1      25.436   2.294  53.278  1.00  0.00     0.236 A 
HETATM    4  N3  UNL     1      24.474   1.410  53.671  1.00  0.00    -0.240 NA
HETATM    5  C7  UNL     1      23.514   1.031  52.780  1.00  0.00     0.089 A 
HETATM    6  C8  UNL     1      23.551   1.567  51.483  1.00  0.00     0.104 A 
HETATM    7  N4  UNL     1      22.624   1.236  50.465  1.00  0.00    -0.381 N 
HETATM    8  C9  UNL     1      21.214   0.984  50.497  1.00  0.00     0.159 C 
HETATM    9  C10 UNL     1      20.729   0.305  51.717  1.00  0.00    -0.032 C 
HETATM   10  C11 UNL     1      19.412   0.286  51.445  1.00  0.00     0.011 C 
HETATM   11  C12 UNL     1      18.343  -0.274  52.295  1.00  0.00     0.025 C 
HETATM   12  C13 UNL     1      18.416  -1.133  53.292  1.00  0.00     0.135 C 
HETATM   13  O1  UNL     1      19.599  -1.685  53.730  1.00  0.00    -0.359 OA
HETATM   14  C14 UNL     1      20.890  -1.213  53.939  1.00  0.00     0.213 C 
HETATM   15  C15 UNL     1      21.353  -0.232  52.923  1.00  0.00    -0.024 C 
HETATM   16  C16 UNL     1      22.564   0.081  53.392  1.00  0.00     0.044 C 
HETATM   17  H5  UNL     1      23.139   1.175  49.531  1.00  0.00     0.160 HD
ENDROOT
BRANCH   1  18
HETATM   18  N1  UNL     1      24.547   2.988  49.823  1.00  0.00    -0.339 N 
HETATM   19  H3  UNL     1      24.020   2.595  49.018  1.00  0.00     0.167 HD
BRANCH  18  20
HETATM   20  C4  UNL     1      25.237   4.142  49.375  1.00  0.00     0.035 A 
HETATM   21  C3  UNL     1      24.627   5.383  49.145  1.00  0.00     0.032 A 
HETATM   22  C2  UNL     1      25.271   6.509  48.706  1.00  0.00     0.046 A 
HETATM   23  C1  UNL     1      26.624   6.465  48.460  1.00  0.00     0.138 A 
HETATM   24  F1  UNL     1      27.184   7.618  48.030  1.00  0.00    -0.204 F 
HETATM   25  C18 UNL     1      27.287   5.273  48.668  1.00  0.00     0.074 A 
HETATM   26  C17 UNL     1      26.575   4.189  49.107  1.00  0.00     0.056 A 
HETATM   27 CL1  UNL     1      28.998   5.303  48.333  1.00  0.00    -0.081 Cl
ENDBRANCH  18  20
ENDBRANCH   1  18
TORSDOF 2
ENDMDL
MODEL 9
REMARK VINA RESULT:      -8.2      2.218      4.010
REMARK  2 active torsions:
REMARK  status: ('A' for Active; 'I' for Inactive)
REMARK    1  A    between atoms: C4_5  and  N1_6 
REMARK    2  A    between atoms: N1_6  and  C5_7 
ROOT
HETATM    1  C5  UNL     1      21.478   0.791  52.369  1.00  0.00     0.158 A 
HETATM    2  N2  UNL     1      21.732   1.488  51.259  1.00  0.00    -0.222 NA
HETATM    3  C6  UNL     1      20.802   1.634  50.310  1.00  0.00     0.236 A 
HETATM    4  N3  UNL     1      19.560   1.081  50.430  1.00  0.00    -0.240 NA
HETATM    5  C7  UNL     1      19.257   0.360  51.546  1.00  0.00     0.089 A 
HETATM    6  C8  UNL     1      20.239   0.212  52.538  1.00  0.00     0.104 A 
HETATM    7  N4  UNL     1      20.039  -0.494  53.749  1.00  0.00    -0.381 N 
HETATM    8  C9  UNL     1      19.320  -1.697  54.050  1.00  0.00     0.159 C 
HETATM    9  C10 UNL     1      18.092  -1.904  53.256  1.00  0.00    -0.032 C 
HETATM   10  C11 UNL     1      17.724  -3.106  53.737  1.00  0.00     0.011 C 
HETATM   11  C12 UNL     1      16.539  -3.891  53.339  1.00  0.00     0.025 C 
HETATM   12  C13 UNL     1      15.440  -3.511  52.720  1.00  0.00     0.135 C 
HETATM   13  O1  UNL     1      15.210  -2.215  52.314  1.00  0.00    -0.359 OA
HETATM   14  C14 UNL     1      15.978  -1.212  51.733  1.00  0.00     0.213 C 
HETATM   15  C15 UNL     1      17.375  -1.145  52.235  1.00  0.00    -0.024 C 
HETATM   16  C16 UNL     1      17.877  -0.159  51.487  1.00  0.00     0.044 C 
HETATM   17  H5  UNL     1      20.536   0.023  54.541  1.00  0.00     0.160 HD
ENDROOT
BRANCH   1  18
HETATM   18  N1  UNL     1      22.451   0.612  53.384  1.00  0.00    -0.339 N 
HETATM   19  H3  UNL     1      22.245   0.405  54.381  1.00  0.00     0.167 HD
BRANCH  18  20
HETATM   20  C4  UNL     1      23.859   0.663  53.229  1.00  0.00     0.035 A 
HETATM   21  C3  UNL     1      24.606   1.849  53.207  1.00  0.00     0.032 A 
HETATM   22  C2  UNL     1      25.964   1.923  53.050  1.00  0.00     0.046 A 
HETATM   23  C1  UNL     1      26.695   0.767  52.900  1.00  0.00     0.138 A 
HETATM   24  F1  UNL     1      28.029   0.926  52.751  1.00  0.00    -0.204 F 
HETATM   25  C18 UNL     1      26.021  -0.437  52.914  1.00  0.00     0.074 A 
HETATM   26  C17 UNL     1      24.661  -0.432  53.074  1.00  0.00     0.056 A 
HETATM   27 CL1  UNL     1      27.019  -1.853  52.717  1.00  0.00    -0.081 Cl
ENDBRANCH  18  20
ENDBRANCH   1  18
TORSDOF 2
ENDMDL
