MODEL 1
REMARK VINA RESULT:      -7.7      0.000      0.000
REMARK  4 active torsions:
REMARK  status: ('A' for Active; 'I' for Inactive)
REMARK    1  A    between atoms: O1_2  and  C2_3 
REMARK    2  A    between atoms: C4_5  and  C5_6 
REMARK    3  A    between atoms: C5_6  and  C6_7 
REMARK    4  A    between atoms: N2_15  and  C13_16 
ROOT
HETATM    1  C2  UNL     1      22.091   0.318  52.506  1.00  0.00     0.082 C 
HETATM    2  C3  UNL     1      22.518   1.481  52.912  1.00  0.00     0.036 C 
HETATM    3  C4  UNL     1      23.808   1.687  53.122  1.00  0.00     0.038 C 
HETATM    4  N2  UNL     1      24.583   0.555  53.503  1.00  0.00    -0.302 N 
HETATM    5  C16 UNL     1      23.995  -0.750  53.341  1.00  0.00     0.102 C 
HETATM    6  C17 UNL     1      22.756  -0.916  52.847  1.00  0.00     0.055 C 
ENDROOT
BRANCH   3   7
HETATM    7  C5  UNL     1      24.521   2.957  53.004  1.00  0.00     0.117 C 
BRANCH   7   8
HETATM    8  C6  UNL     1      24.877   3.306  51.582  1.00  0.00     0.034 C 
HETATM    9  N1  UNL     1      25.973   2.765  51.176  1.00  0.00    -0.290 NA
HETATM   10  C7  UNL     1      26.589   2.893  49.885  1.00  0.00     0.177 C 
HETATM   11  C8  UNL     1      26.451   4.239  49.276  1.00  0.00     0.001 C 
HETATM   12  C9  UNL     1      25.513   5.192  49.224  1.00  0.00    -0.064 C 
HETATM   13  C10 UNL     1      25.696   6.495  48.491  1.00  0.00     0.048 C 
HETATM   14  C11 UNL     1      24.212   5.011  49.904  1.00  0.00     0.008 C 
HETATM   15  C12 UNL     1      23.899   4.202  50.930  1.00  0.00     0.027 C 
ENDBRANCH   7   8
ENDBRANCH   3   7
BRANCH   4  16
HETATM   16  C13 UNL     1      25.896   0.582  54.038  1.00  0.00     0.203 A 
HETATM   17  N3  UNL     1      26.685   1.057  54.934  1.00  0.00    -0.102 NA
HETATM   18  O2  UNL     1      28.004   0.783  55.089  1.00  0.00    -0.223 OA
HETATM   19  C14 UNL     1      28.719  -0.081  54.276  1.00  0.00     0.177 A 
HETATM   20  C15 UNL     1      28.264  -0.766  53.241  1.00  0.00     0.080 A 
HETATM   21  S1  UNL     1      26.539  -0.586  52.813  1.00  0.00    -0.059 SA
ENDBRANCH   4  16
BRANCH   1  22
HETATM   22  O1  UNL     1      20.958   0.322  51.724  1.00  0.00    -0.355 OA
HETATM   23  C1  UNL     1      19.648   0.272  52.203  1.00  0.00     0.210 C 
ENDBRANCH   1  22
TORSDOF 4
ENDMDL
MODEL 2
REMARK VINA RESULT:      -7.6      1.976      5.307
REMARK  4 active torsions:
REMARK  status: ('A' for Active; 'I' for Inactive)
REMARK    1  A    between atoms: O1_2  and  C2_3 
REMARK    2  A    between atoms: C4_5  and  C5_6 
REMARK    3  A    between atoms: C5_6  and  C6_7 
REMARK    4  A    between atoms: N2_15  and  C13_16 
ROOT
HETATM    1  C2  UNL     1      24.818   3.913  49.536  1.00  0.00     0.082 C 
HETATM    2  C3  UNL     1      24.038   3.297  50.379  1.00  0.00     0.036 C 
HETATM    3  C4  UNL     1      24.480   2.963  51.581  1.00  0.00     0.038 C 
HETATM    4  N2  UNL     1      25.876   2.712  51.703  1.00  0.00    -0.302 N 
HETATM    5  C16 UNL     1      26.732   3.123  50.620  1.00  0.00     0.102 C 
HETATM    6  C17 UNL     1      26.248   3.725  49.520  1.00  0.00     0.055 C 
ENDROOT
BRANCH   3   7
HETATM    7  C5  UNL     1      23.682   2.826  52.798  1.00  0.00     0.117 C 
BRANCH   7   8
HETATM    8  C6  UNL     1      22.601   1.784  52.681  1.00  0.00     0.034 C 
HETATM    9  N1  UNL     1      21.412   2.277  52.625  1.00  0.00    -0.290 NA
HETATM   10  C7  UNL     1      20.171   1.564  52.512  1.00  0.00     0.177 C 
HETATM   11  C8  UNL     1      20.135   0.282  53.259  1.00  0.00     0.001 C 
HETATM   12  C9  UNL     1      20.993  -0.709  53.533  1.00  0.00    -0.064 C 
HETATM   13  C10 UNL     1      20.626  -1.918  54.352  1.00  0.00     0.048 C 
HETATM   14  C11 UNL     1      22.384  -0.665  53.033  1.00  0.00     0.008 C 
HETATM   15  C12 UNL     1      23.114   0.398  52.655  1.00  0.00     0.027 C 
ENDBRANCH   7   8
ENDBRANCH   3   7
BRANCH   4  16
HETATM   16  C13 UNL     1      26.520   2.086  52.801  1.00  0.00     0.203 A 
HETATM   17  N3  UNL     1      26.955   2.202  54.004  1.00  0.00    -0.102 NA
HETATM   18  O2  UNL     1      27.570   1.248  54.746  1.00  0.00    -0.223 OA
HETATM   19  C14 UNL     1      27.828  -0.038  54.299  1.00  0.00     0.177 A 
HETATM   20  C15 UNL     1      27.534  -0.547  53.115  1.00  0.00     0.080 A 
HETATM   21  S1  UNL     1      26.710   0.508  51.932  1.00  0.00    -0.059 SA
ENDBRANCH   4  16
BRANCH   1  22
HETATM   22  O1  UNL     1      24.204   4.764  48.645  1.00  0.00    -0.355 OA
HETATM   23  C1  UNL     1      22.889   4.648  48.195  1.00  0.00     0.210 C 
ENDBRANCH   1  22
TORSDOF 4
ENDMDL
MODEL 3
REMARK VINA RESULT:      -7.6      1.466      1.997
REMARK  4 active torsions:
REMARK  status: ('A' for Active; 'I' for Inactive)
REMARK    1  A    between atoms: O1_2  and  C2_3 
REMARK    2  A    between atoms: C4_5  and  C5_6 
REMARK    3  A    between atoms: C5_6  and  C6_7 
REMARK    4  A    between atoms: N2_15  and  C13_16 
ROOT
HETATM    1  C2  UNL     1      22.142   0.306  52.611  1.00  0.00     0.082 C 
HETATM    2  C3  UNL     1      22.633   1.480  52.889  1.00  0.00     0.036 C 
HETATM    3  C4  UNL     1      23.935   1.637  53.069  1.00  0.00     0.038 C 
HETATM    4  N2  UNL     1      24.653   0.512  53.564  1.00  0.00    -0.302 N 
HETATM    5  C16 UNL     1      23.996  -0.769  53.545  1.00  0.00     0.102 C 
HETATM    6  C17 UNL     1      22.744  -0.919  53.078  1.00  0.00     0.055 C 
ENDROOT
BRANCH   3   7
HETATM    7  C5  UNL     1      24.713   2.848  52.812  1.00  0.00     0.117 C 
BRANCH   7   8
HETATM    8  C6  UNL     1      24.245   3.605  51.596  1.00  0.00     0.034 C 
HETATM    9  N1  UNL     1      23.571   4.667  51.875  1.00  0.00    -0.290 NA
HETATM   10  C7  UNL     1      22.988   5.602  50.956  1.00  0.00     0.177 C 
HETATM   11  C8  UNL     1      22.440   4.984  49.724  1.00  0.00     0.001 C 
HETATM   12  C9  UNL     1      22.775   3.977  48.909  1.00  0.00    -0.064 C 
HETATM   13  C10 UNL     1      21.972   3.592  47.694  1.00  0.00     0.048 C 
HETATM   14  C11 UNL     1      23.985   3.166  49.166  1.00  0.00     0.008 C 
HETATM   15  C12 UNL     1      24.650   2.981  50.319  1.00  0.00     0.027 C 
ENDBRANCH   7   8
ENDBRANCH   3   7
BRANCH   4  16
HETATM   16  C13 UNL     1      25.972   0.526  54.086  1.00  0.00     0.203 A 
HETATM   17  N3  UNL     1      26.773   0.987  54.978  1.00  0.00    -0.102 NA
HETATM   18  O2  UNL     1      28.091   0.703  55.118  1.00  0.00    -0.223 OA
HETATM   19  C14 UNL     1      28.792  -0.159  54.289  1.00  0.00     0.177 A 
HETATM   20  C15 UNL     1      28.322  -0.832  53.253  1.00  0.00     0.080 A 
HETATM   21  S1  UNL     1      26.594  -0.636  52.844  1.00  0.00    -0.059 SA
ENDBRANCH   4  16
BRANCH   1  22
HETATM   22  O1  UNL     1      21.002   0.287  51.839  1.00  0.00    -0.355 OA
HETATM   23  C1  UNL     1      20.834   0.968  50.633  1.00  0.00     0.210 C 
ENDBRANCH   1  22
TORSDOF 4
ENDMDL
MODEL 4
REMARK VINA RESULT:      -7.6      2.621      5.460
REMARK  4 active torsions:
REMARK  status: ('A' for Active; 'I' for Inactive)
REMARK    1  A    between atoms: O1_2  and  C2_3 
REMARK    2  A    between atoms: C4_5  and  C5_6 
REMARK    3  A    between atoms: C5_6  and  C6_7 
REMARK    4  A    between atoms: N2_15  and  C13_16 
ROOT
HETATM    1  C2  UNL     1      26.868   2.048  52.550  1.00  0.00     0.082 C 
HETATM    2  C3  UNL     1      26.460   2.157  51.317  1.00  0.00     0.036 C 
HETATM    3  C4  UNL     1      25.421   2.921  51.019  1.00  0.00     0.038 C 
HETATM    4  N2  UNL     1      24.436   3.086  52.033  1.00  0.00    -0.302 N 
HETATM    5  C16 UNL     1      24.773   2.678  53.373  1.00  0.00     0.102 C 
HETATM    6  C17 UNL     1      25.974   2.156  53.677  1.00  0.00     0.055 C 
ENDROOT
BRANCH   3   7
HETATM    7  C5  UNL     1      25.180   3.613  49.754  1.00  0.00     0.117 C 
BRANCH   7   8
HETATM    8  C6  UNL     1      25.995   4.870  49.603  1.00  0.00     0.034 C 
HETATM    9  N1  UNL     1      25.404   5.926  50.046  1.00  0.00    -0.290 NA
HETATM   10  C7  UNL     1      25.901   7.273  50.051  1.00  0.00     0.177 C 
HETATM   11  C8  UNL     1      26.711   7.627  48.860  1.00  0.00     0.001 C 
HETATM   12  C9  UNL     1      27.600   7.014  48.070  1.00  0.00    -0.064 C 
HETATM   13  C10 UNL     1      28.266   7.683  46.896  1.00  0.00     0.048 C 
HETATM   14  C11 UNL     1      27.986   5.607  48.315  1.00  0.00     0.008 C 
HETATM   15  C12 UNL     1      27.314   4.649  48.976  1.00  0.00     0.027 C 
ENDBRANCH   7   8
ENDBRANCH   3   7
BRANCH   4  16
HETATM   16  C13 UNL     1      23.134   3.618  51.855  1.00  0.00     0.203 A 
HETATM   17  N3  UNL     1      22.421   4.639  51.540  1.00  0.00    -0.102 NA
HETATM   18  O2  UNL     1      21.067   4.710  51.499  1.00  0.00    -0.223 OA
HETATM   19  C14 UNL     1      20.225   3.652  51.801  1.00  0.00     0.177 A 
HETATM   20  C15 UNL     1      20.574   2.431  52.170  1.00  0.00     0.080 A 
HETATM   21  S1  UNL     1      22.317   2.066  52.305  1.00  0.00    -0.059 SA
ENDBRANCH   4  16
BRANCH   1  22
HETATM   22  O1  UNL     1      28.213   1.820  52.731  1.00  0.00    -0.355 OA
HETATM   23  C1  UNL     1      28.942   2.159  53.872  1.00  0.00     0.210 C 
ENDBRANCH   1  22
TORSDOF 4
ENDMDL
MODEL 5
REMARK VINA RESULT:      -7.2      2.804      5.875
REMARK  4 active torsions:
REMARK  status: ('A' for Active; 'I' for Inactive)
REMARK    1  A    between atoms: O1_2  and  C2_3 
REMARK    2  A    between atoms: C4_5  and  C5_6 
REMARK    3  A    between atoms: C5_6  and  C6_7 
REMARK    4  A    between atoms: N2_15  and  C13_16 
ROOT
HETATM    1  C2  UNL     1      22.790   1.695  52.442  1.00  0.00     0.082 C 
HETATM    2  C3  UNL     1      23.784   1.350  51.672  1.00  0.00     0.036 C 
HETATM    3  C4  UNL     1      24.615   2.266  51.199  1.00  0.00     0.038 C 
HETATM    4  N2  UNL     1      24.086   3.574  51.010  1.00  0.00    -0.302 N 
HETATM    5  C16 UNL     1      22.815   3.880  51.614  1.00  0.00     0.102 C 
HETATM    6  C17 UNL     1      22.133   2.975  52.336  1.00  0.00     0.055 C 
ENDROOT
BRANCH   3   7
HETATM    7  C5  UNL     1      26.021   2.072  50.850  1.00  0.00     0.117 C 
BRANCH   7   8
HETATM    8  C6  UNL     1      26.851   1.563  51.999  1.00  0.00     0.034 C 
HETATM    9  N1  UNL     1      27.621   2.457  52.517  1.00  0.00    -0.290 NA
HETATM   10  C7  UNL     1      28.532   2.301  53.616  1.00  0.00     0.177 C 
HETATM   11  C8  UNL     1      29.212   0.983  53.660  1.00  0.00     0.001 C 
HETATM   12  C9  UNL     1      28.889  -0.289  53.393  1.00  0.00    -0.064 C 
HETATM   13  C10 UNL     1      29.850  -1.437  53.548  1.00  0.00     0.048 C 
HETATM   14  C11 UNL     1      27.533  -0.641  52.918  1.00  0.00     0.008 C 
HETATM   15  C12 UNL     1      26.622   0.137  52.309  1.00  0.00     0.027 C 
ENDBRANCH   7   8
ENDBRANCH   3   7
BRANCH   4  16
HETATM   16  C13 UNL     1      24.693   4.622  50.274  1.00  0.00     0.203 A 
HETATM   17  N3  UNL     1      25.732   5.359  50.104  1.00  0.00    -0.102 NA
HETATM   18  O2  UNL     1      25.895   6.342  49.185  1.00  0.00    -0.223 OA
HETATM   19  C14 UNL     1      24.932   6.709  48.260  1.00  0.00     0.177 A 
HETATM   20  C15 UNL     1      23.725   6.188  48.112  1.00  0.00     0.080 A 
HETATM   21  S1  UNL     1      23.248   4.861  49.208  1.00  0.00    -0.059 SA
ENDBRANCH   4  16
BRANCH   1  22
HETATM   22  O1  UNL     1      22.388   0.765  53.374  1.00  0.00    -0.355 OA
HETATM   23  C1  UNL     1      23.031  -0.446  53.633  1.00  0.00     0.210 C 
ENDBRANCH   1  22
TORSDOF 4
ENDMDL
MODEL 6
REMARK VINA RESULT:      -7.2      1.515      4.598
REMARK  4 active torsions:
REMARK  status: ('A' for Active; 'I' for Inactive)
REMARK    1  A    between atoms: O1_2  and  C2_3 
REMARK    2  A    between atoms: C4_5  and  C5_6 
REMARK    3  A    between atoms: C5_6  and  C6_7 
REMARK    4  A    between atoms: N2_15  and  C13_16 
ROOT
HETATM    1  C2  UNL     1      26.204   0.544  54.234  1.00  0.00     0.082 C 
HETATM    2  C3  UNL     1      25.983   1.543  53.426  1.00  0.00     0.036 C 
HETATM    3  C4  UNL     1      24.758   1.800  52.996  1.00  0.00     0.038 C 
HETATM    4  N2  UNL     1      23.868   0.693  52.899  1.00  0.00    -0.302 N 
HETATM    5  C16 UNL     1      24.250  -0.536  53.544  1.00  0.00     0.102 C 
HETATM    6  C17 UNL     1      25.405  -0.657  54.221  1.00  0.00     0.055 C 
ENDROOT
BRANCH   3   7
HETATM    7  C5  UNL     1      24.224   3.104  52.609  1.00  0.00     0.117 C 
BRANCH   7   8
HETATM    8  C6  UNL     1      24.658   3.537  51.233  1.00  0.00     0.034 C 
HETATM    9  N1  UNL     1      25.885   3.251  50.964  1.00  0.00    -0.290 NA
HETATM   10  C7  UNL     1      26.604   3.523  49.752  1.00  0.00     0.177 C 
HETATM   11  C8  UNL     1      26.249   4.814  49.110  1.00  0.00     0.001 C 
HETATM   12  C9  UNL     1      25.139   5.541  48.936  1.00  0.00    -0.064 C 
HETATM   13  C10 UNL     1      25.119   6.860  48.210  1.00  0.00     0.048 C 
HETATM   14  C11 UNL     1      23.838   5.075  49.464  1.00  0.00     0.008 C 
HETATM   15  C12 UNL     1      23.591   4.206  50.459  1.00  0.00     0.027 C 
ENDBRANCH   7   8
ENDBRANCH   3   7
BRANCH   4  16
HETATM   16  C13 UNL     1      22.625   0.678  52.218  1.00  0.00     0.203 A 
HETATM   17  N3  UNL     1      22.001   0.854  51.109  1.00  0.00    -0.102 NA
HETATM   18  O2  UNL     1      20.670   0.718  50.889  1.00  0.00    -0.223 OA
HETATM   19  C14 UNL     1      19.755   0.353  51.863  1.00  0.00     0.177 A 
HETATM   20  C15 UNL     1      20.003   0.085  53.134  1.00  0.00     0.080 A 
HETATM   21  S1  UNL     1      21.696   0.192  53.695  1.00  0.00    -0.059 SA
ENDBRANCH   4  16
BRANCH   1  22
HETATM   22  O1  UNL     1      27.252   0.690  55.114  1.00  0.00    -0.355 OA
HETATM   23  C1  UNL     1      28.549   0.218  54.907  1.00  0.00     0.210 C 
ENDBRANCH   1  22
TORSDOF 4
ENDMDL
MODEL 7
REMARK VINA RESULT:      -7.1      1.994      4.840
REMARK  4 active torsions:
REMARK  status: ('A' for Active; 'I' for Inactive)
REMARK    1  A    between atoms: O1_2  and  C2_3 
REMARK    2  A    between atoms: C4_5  and  C5_6 
REMARK    3  A    between atoms: C5_6  and  C6_7 
REMARK    4  A    between atoms: N2_15  and  C13_16 
ROOT
HETATM    1  C2  UNL     1      25.011   4.193  49.522  1.00  0.00     0.082 C 
HETATM    2  C3  UNL     1      24.101   3.696  50.312  1.00  0.00     0.036 C 
HETATM    3  C4  UNL     1      24.418   3.296  51.534  1.00  0.00     0.038 C 
HETATM    4  N2  UNL     1      25.752   2.839  51.731  1.00  0.00    -0.302 N 
HETATM    5  C16 UNL     1      26.721   3.123  50.704  1.00  0.00     0.102 C 
HETATM    6  C17 UNL     1      26.396   3.795  49.586  1.00  0.00     0.055 C 
ENDROOT
BRANCH   3   7
HETATM    7  C5  UNL     1      23.540   3.273  52.701  1.00  0.00     0.117 C 
BRANCH   7   8
HETATM    8  C6  UNL     1      22.375   2.330  52.547  1.00  0.00     0.034 C 
HETATM    9  N1  UNL     1      22.708   1.086  52.584  1.00  0.00    -0.290 NA
HETATM   10  C7  UNL     1      21.847  -0.057  52.468  1.00  0.00     0.177 C 
HETATM   11  C8  UNL     1      20.725   0.122  51.514  1.00  0.00     0.001 C 
HETATM   12  C9  UNL     1      19.906   1.116  51.150  1.00  0.00    -0.064 C 
HETATM   13  C10 UNL     1      18.828   0.962  50.110  1.00  0.00     0.048 C 
HETATM   14  C11 UNL     1      20.021   2.455  51.767  1.00  0.00     0.008 C 
HETATM   15  C12 UNL     1      21.077   3.016  52.381  1.00  0.00     0.027 C 
ENDBRANCH   7   8
ENDBRANCH   3   7
BRANCH   4  16
HETATM   16  C13 UNL     1      26.231   2.121  52.856  1.00  0.00     0.203 A 
HETATM   17  N3  UNL     1      26.497   2.137  54.112  1.00  0.00    -0.102 NA
HETATM   18  O2  UNL     1      26.994   1.119  54.857  1.00  0.00    -0.223 OA
HETATM   19  C14 UNL     1      27.297  -0.135  54.352  1.00  0.00     0.177 A 
HETATM   20  C15 UNL     1      27.164  -0.550  53.104  1.00  0.00     0.080 A 
HETATM   21  S1  UNL     1      26.524   0.608  51.904  1.00  0.00    -0.059 SA
ENDBRANCH   4  16
BRANCH   1  22
HETATM   22  O1  UNL     1      24.583   5.129  48.609  1.00  0.00    -0.355 OA
HETATM   23  C1  UNL     1      23.260   5.318  48.209  1.00  0.00     0.210 C 
ENDBRANCH   1  22
TORSDOF 4
ENDMDL
MODEL 8
REMARK VINA RESULT:      -7.0      2.376      4.908
REMARK  4 active torsions:
REMARK  status: ('A' for Active; 'I' for Inactive)
REMARK    1  A    between atoms: O1_2  and  C2_3 
REMARK    2  A    between atoms: C4_5  and  C5_6 
REMARK    3  A    between atoms: C5_6  and  C6_7 
REMARK    4  A    between atoms: N2_15  and  C13_16 
ROOT
HETATM    1  C2  UNL     1      24.076  -0.218  53.515  1.00  0.00     0.082 C 
HETATM    2  C3  UNL     1      24.264   0.847  52.787  1.00  0.00     0.036 C 
HETATM    3  C4  UNL     1      23.322   1.773  52.695  1.00  0.00     0.038 C 
HETATM    4  N2  UNL     1      21.977   1.333  52.846  1.00  0.00    -0.302 N 
HETATM    5  C16 UNL     1      21.754   0.012  53.376  1.00  0.00     0.102 C 
HETATM    6  C17 UNL     1      22.771  -0.796  53.723  1.00  0.00     0.055 C 
ENDROOT
BRANCH   3   7
HETATM    7  C5  UNL     1      23.521   3.200  52.454  1.00  0.00     0.117 C 
BRANCH   7   8
HETATM    8  C6  UNL     1      24.319   3.485  51.209  1.00  0.00     0.034 C 
HETATM    9  N1  UNL     1      25.516   3.009  51.242  1.00  0.00    -0.290 NA
HETATM   10  C7  UNL     1      26.526   3.104  50.226  1.00  0.00     0.177 C 
HETATM   11  C8  UNL     1      26.530   4.392  49.490  1.00  0.00     0.001 C 
HETATM   12  C9  UNL     1      25.615   5.261  49.044  1.00  0.00    -0.064 C 
HETATM   13  C10 UNL     1      25.965   6.525  48.303  1.00  0.00     0.048 C 
HETATM   14  C11 UNL     1      24.173   5.019  49.262  1.00  0.00     0.008 C 
HETATM   15  C12 UNL     1      23.574   4.255  50.192  1.00  0.00     0.027 C 
ENDBRANCH   7   8
ENDBRANCH   3   7
BRANCH   4  16
HETATM   16  C13 UNL     1      20.814   2.075  52.519  1.00  0.00     0.203 A 
HETATM   17  N3  UNL     1      20.103   3.121  52.747  1.00  0.00    -0.102 NA
HETATM   18  O2  UNL     1      18.942   3.469  52.139  1.00  0.00    -0.223 OA
HETATM   19  C14 UNL     1      18.331   2.721  51.146  1.00  0.00     0.177 A 
HETATM   20  C15 UNL     1      18.750   1.577  50.633  1.00  0.00     0.080 A 
HETATM   21  S1  UNL     1      20.273   0.887  51.263  1.00  0.00    -0.059 SA
ENDBRANCH   4  16
BRANCH   1  22
HETATM   22  O1  UNL     1      25.199  -0.775  54.084  1.00  0.00    -0.355 OA
HETATM   23  C1  UNL     1      26.154  -0.082  54.828  1.00  0.00     0.210 C 
ENDBRANCH   1  22
TORSDOF 4
ENDMDL
MODEL 9
REMARK VINA RESULT:      -7.0      1.815      2.832
REMARK  4 active torsions:
REMARK  status: ('A' for Active; 'I' for Inactive)
REMARK    1  A    between atoms: O1_2  and  C2_3 
REMARK    2  A    between atoms: C4_5  and  C5_6 
REMARK    3  A    between atoms: C5_6  and  C6_7 
REMARK    4  A    between atoms: N2_15  and  C13_16 
ROOT
HETATM    1  C2  UNL     1      22.976   1.954  50.956  1.00  0.00     0.082 C 
HETATM    2  C3  UNL     1      23.850   2.753  50.410  1.00  0.00     0.036 C 
HETATM    3  C4  UNL     1      25.146   2.544  50.579  1.00  0.00     0.038 C 
HETATM    4  N2  UNL     1      25.539   1.897  51.784  1.00  0.00    -0.302 N 
HETATM    5  C16 UNL     1      24.516   1.258  52.571  1.00  0.00     0.102 C 
HETATM    6  C17 UNL     1      23.225   1.261  52.197  1.00  0.00     0.055 C 
ENDROOT
BRANCH   3   7
HETATM    7  C5  UNL     1      26.217   2.911  49.654  1.00  0.00     0.117 C 
BRANCH   7   8
HETATM    8  C6  UNL     1      26.429   4.399  49.555  1.00  0.00     0.034 C 
HETATM    9  N1  UNL     1      25.518   5.092  50.146  1.00  0.00    -0.290 NA
HETATM   10  C7  UNL     1      25.425   6.521  50.238  1.00  0.00     0.177 C 
HETATM   11  C8  UNL     1      25.875   7.240  49.021  1.00  0.00     0.001 C 
HETATM   12  C9  UNL     1      26.836   7.091  48.101  1.00  0.00    -0.064 C 
HETATM   13  C10 UNL     1      27.029   8.035  46.944  1.00  0.00     0.048 C 
HETATM   14  C11 UNL     1      27.784   5.958  48.175  1.00  0.00     0.008 C 
HETATM   15  C12 UNL     1      27.641   4.774  48.797  1.00  0.00     0.027 C 
ENDBRANCH   7   8
ENDBRANCH   3   7
BRANCH   4  16
HETATM   16  C13 UNL     1      26.858   1.819  52.299  1.00  0.00     0.203 A 
HETATM   17  N3  UNL     1      27.958   2.437  52.545  1.00  0.00    -0.102 NA
HETATM   18  O2  UNL     1      29.080   1.918  53.102  1.00  0.00    -0.223 OA
HETATM   19  C14 UNL     1      29.209   0.599  53.504  1.00  0.00     0.177 A 
HETATM   20  C15 UNL     1      28.299  -0.356  53.418  1.00  0.00     0.080 A 
HETATM   21  S1  UNL     1      26.712   0.062  52.714  1.00  0.00    -0.059 SA
ENDBRANCH   4  16
BRANCH   1  22
HETATM   22  O1  UNL     1      21.785   1.801  50.284  1.00  0.00    -0.355 OA
HETATM   23  C1  UNL     1      21.047   2.835  49.706  1.00  0.00     0.210 C 
ENDBRANCH   1  22
TORSDOF 4
ENDMDL
