MODEL 1
REMARK VINA RESULT:      -8.9      0.000      0.000
REMARK  5 active torsions:
REMARK  status: ('A' for Active; 'I' for Inactive)
REMARK    1  A    between atoms: C5_7  and  C6_8 
REMARK    2  A    between atoms: C7_9  and  N2_10 
REMARK    3  A    between atoms: N2_10  and  C8_11 
REMARK    4  A    between atoms: C12_17  and  O1_18 
REMARK    5  A    between atoms: O1_18  and  C13_19 
ROOT
HETATM    1  C1  UNL     1      28.612  -0.499  53.585  1.00  0.00     0.173 A 
HETATM    2  C2  UNL     1      28.541   0.596  53.879  1.00  0.00     0.049 A 
HETATM    3  C3  UNL     1      29.339   1.628  54.586  1.00  0.00     0.062 C 
HETATM    4  N1  UNL     1      29.932   2.391  55.133  1.00  0.00    -0.197 NA
HETATM    5  C4  UNL     1      28.636  -1.020  53.438  1.00  0.00     0.124 A 
HETATM    6  F1  UNL     1      29.360  -2.245  53.585  1.00  0.00    -0.241 F 
HETATM    7  C5  UNL     1      27.577  -0.992  52.673  1.00  0.00     0.055 A 
ENDROOT
BRANCH   7   8
HETATM    8  C6  UNL     1      26.688   0.113  52.372  1.00  0.00    -0.002 C 
HETATM    9  C7  UNL     1      25.408  -0.037  52.534  1.00  0.00     0.086 C 
BRANCH   9  10
HETATM   10  N2  UNL     1      24.130   0.503  52.459  1.00  0.00    -0.350 N 
HETATM   11  H6  UNL     1      24.348   1.251  51.759  1.00  0.00     0.166 HD
BRANCH  10  12
HETATM   12  C8  UNL     1      23.161  -0.106  53.297  1.00  0.00     0.144 A 
HETATM   13  N3  UNL     1      23.613  -0.765  54.352  1.00  0.00    -0.223 NA
HETATM   14  C9  UNL     1      22.742  -1.402  55.182  1.00  0.00     0.236 A 
HETATM   15  N4  UNL     1      21.431  -1.335  54.890  1.00  0.00    -0.241 NA
HETATM   16  C10 UNL     1      20.951  -0.676  53.830  1.00  0.00     0.077 A 
HETATM   17  C11 UNL     1      19.617  -0.626  53.506  1.00  0.00     0.072 A 
HETATM   18  C18 UNL     1      21.824  -0.029  52.984  1.00  0.00     0.075 A 
HETATM   19  C12 UNL     1      19.154   0.030  52.400  1.00  0.00     0.107 A 
HETATM   20  C16 UNL     1      20.101   0.656  51.603  1.00  0.00     0.136 A 
HETATM   21  C17 UNL     1      21.451   0.649  51.862  1.00  0.00     0.121 A 
HETATM   22  O3  UNL     1      19.707   1.343  50.461  1.00  0.00    -0.344 OA
HETATM   23  O2  UNL     1      22.281   1.311  50.989  1.00  0.00    -0.345 OA
HETATM   24  C19 UNL     1      22.004   1.444  49.618  1.00  0.00     0.202 C 
HETATM   25  C20 UNL     1      20.519   1.392  49.298  1.00  0.00     0.202 C 
BRANCH  19  26
HETATM   26  O1  UNL     1      17.817   0.087  52.054  1.00  0.00    -0.344 OA
BRANCH  26  27
HETATM   27  C13 UNL     1      17.056  -0.905  51.451  1.00  0.00     0.121 C 
HETATM   28  C14 UNL     1      15.877  -1.287  52.287  1.00  0.00     0.040 C 
HETATM   29  C15 UNL     1      16.578  -0.341  50.116  1.00  0.00     0.040 C 
ENDBRANCH  26  27
ENDBRANCH  19  26
ENDBRANCH  10  12
ENDBRANCH   9  10
ENDBRANCH   7   8
TORSDOF 5
ENDMDL
MODEL 2
REMARK VINA RESULT:      -8.7      1.727      2.060
REMARK  5 active torsions:
REMARK  status: ('A' for Active; 'I' for Inactive)
REMARK    1  A    between atoms: C5_7  and  C6_8 
REMARK    2  A    between atoms: C7_9  and  N2_10 
REMARK    3  A    between atoms: N2_10  and  C8_11 
REMARK    4  A    between atoms: C12_17  and  O1_18 
REMARK    5  A    between atoms: O1_18  and  C13_19 
ROOT
HETATM    1  C1  UNL     1      28.778   0.930  53.589  1.00  0.00     0.173 A 
HETATM    2  C2  UNL     1      28.534  -0.079  53.130  1.00  0.00     0.049 A 
HETATM    3  C3  UNL     1      28.902  -1.508  53.286  1.00  0.00     0.062 C 
HETATM    4  N1  UNL     1      29.195  -2.574  53.395  1.00  0.00    -0.197 NA
HETATM    5  C4  UNL     1      28.886   1.417  53.803  1.00  0.00     0.124 A 
HETATM    6  F1  UNL     1      29.738   2.141  54.694  1.00  0.00    -0.241 F 
HETATM    7  C5  UNL     1      27.937   2.053  53.169  1.00  0.00     0.055 A 
ENDROOT
BRANCH   7   8
HETATM    8  C6  UNL     1      26.961   1.545  52.224  1.00  0.00    -0.002 C 
HETATM    9  C7  UNL     1      25.775   1.222  52.644  1.00  0.00     0.086 C 
BRANCH   9  10
HETATM   10  N2  UNL     1      24.505   0.737  52.358  1.00  0.00    -0.350 N 
HETATM   11  H6  UNL     1      24.435   1.127  51.388  1.00  0.00     0.166 HD
BRANCH  10  12
HETATM   12  C8  UNL     1      23.881   0.008  53.403  1.00  0.00     0.144 A 
HETATM   13  N3  UNL     1      24.677  -0.544  54.305  1.00  0.00    -0.223 NA
HETATM   14  C9  UNL     1      24.150  -1.284  55.318  1.00  0.00     0.236 A 
HETATM   15  N4  UNL     1      22.814  -1.430  55.361  1.00  0.00    -0.241 NA
HETATM   16  C10 UNL     1      21.990  -0.882  54.461  1.00  0.00     0.077 A 
HETATM   17  C11 UNL     1      20.626  -1.048  54.480  1.00  0.00     0.072 A 
HETATM   18  C18 UNL     1      22.514  -0.131  53.433  1.00  0.00     0.075 A 
HETATM   19  C12 UNL     1      19.806  -0.503  53.532  1.00  0.00     0.107 A 
HETATM   20  C16 UNL     1      20.417   0.240  52.532  1.00  0.00     0.136 A 
HETATM   21  C17 UNL     1      21.773   0.450  52.448  1.00  0.00     0.121 A 
HETATM   22  O3  UNL     1      19.650   0.827  51.532  1.00  0.00    -0.344 OA
HETATM   23  O2  UNL     1      22.246   1.208  51.403  1.00  0.00    -0.345 OA
HETATM   24  C19 UNL     1      21.622   1.259  50.146  1.00  0.00     0.202 C 
HETATM   25  C20 UNL     1      20.131   0.969  50.204  1.00  0.00     0.202 C 
BRANCH  19  26
HETATM   26  O1  UNL     1      18.433  -0.663  53.529  1.00  0.00    -0.344 OA
BRANCH  26  27
HETATM   27  C13 UNL     1      17.690  -1.576  52.795  1.00  0.00     0.121 C 
HETATM   28  C14 UNL     1      17.450  -2.839  53.556  1.00  0.00     0.040 C 
HETATM   29  C15 UNL     1      16.355  -0.904  52.481  1.00  0.00     0.040 C 
ENDBRANCH  26  27
ENDBRANCH  19  26
ENDBRANCH  10  12
ENDBRANCH   9  10
ENDBRANCH   7   8
TORSDOF 5
ENDMDL
MODEL 3
REMARK VINA RESULT:      -8.6      4.355      5.044
REMARK  5 active torsions:
REMARK  status: ('A' for Active; 'I' for Inactive)
REMARK    1  A    between atoms: C5_7  and  C6_8 
REMARK    2  A    between atoms: C7_9  and  N2_10 
REMARK    3  A    between atoms: N2_10  and  C8_11 
REMARK    4  A    between atoms: C12_17  and  O1_18 
REMARK    5  A    between atoms: O1_18  and  C13_19 
ROOT
HETATM    1  C1  UNL     1      27.485   5.548  48.471  1.00  0.00     0.173 A 
HETATM    2  C2  UNL     1      26.730   6.396  48.495  1.00  0.00     0.049 A 
HETATM    3  C3  UNL     1      26.520   7.737  47.896  1.00  0.00     0.062 C 
HETATM    4  N1  UNL     1      26.377   8.748  47.459  1.00  0.00    -0.197 NA
HETATM    5  C4  UNL     1      27.838   5.136  48.464  1.00  0.00     0.124 A 
HETATM    6  F1  UNL     1      29.133   4.712  48.032  1.00  0.00    -0.241 F 
HETATM    7  C5  UNL     1      27.083   4.304  49.131  1.00  0.00     0.055 A 
ENDROOT
BRANCH   7   8
HETATM    8  C6  UNL     1      25.752   4.500  49.672  1.00  0.00    -0.002 C 
HETATM    9  C7  UNL     1      25.438   3.951  50.807  1.00  0.00     0.086 C 
BRANCH   9  10
HETATM   10  N2  UNL     1      24.489   3.732  51.798  1.00  0.00    -0.350 N 
HETATM   11  H6  UNL     1      24.170   4.725  51.891  1.00  0.00     0.166 HD
BRANCH  10  12
HETATM   12  C8  UNL     1      24.374   2.391  52.246  1.00  0.00     0.144 A 
HETATM   13  N3  UNL     1      25.496   1.693  52.337  1.00  0.00    -0.223 NA
HETATM   14  C9  UNL     1      25.457   0.390  52.730  1.00  0.00     0.236 A 
HETATM   15  N4  UNL     1      24.258  -0.147  53.013  1.00  0.00    -0.241 NA
HETATM   16  C10 UNL     1      23.112   0.538  52.927  1.00  0.00     0.077 A 
HETATM   17  C11 UNL     1      21.879  -0.009  53.187  1.00  0.00     0.072 A 
HETATM   18  C18 UNL     1      23.140   1.856  52.532  1.00  0.00     0.075 A 
HETATM   19  C12 UNL     1      20.718   0.703  53.063  1.00  0.00     0.107 A 
HETATM   20  C16 UNL     1      20.838   2.025  52.660  1.00  0.00     0.136 A 
HETATM   21  C17 UNL     1      22.035   2.640  52.384  1.00  0.00     0.121 A 
HETATM   22  O3  UNL     1      19.703   2.814  52.513  1.00  0.00    -0.344 OA
HETATM   23  O2  UNL     1      22.011   3.958  51.994  1.00  0.00    -0.345 OA
HETATM   24  C19 UNL     1      20.943   4.528  51.279  1.00  0.00     0.202 C 
HETATM   25  C20 UNL     1      19.617   3.826  51.521  1.00  0.00     0.202 C 
BRANCH  19  26
HETATM   26  O1  UNL     1      19.468   0.170  53.313  1.00  0.00    -0.344 OA
BRANCH  26  27
HETATM   27  C13 UNL     1      18.804  -0.808  52.584  1.00  0.00     0.121 C 
HETATM   28  C14 UNL     1      17.992  -1.701  53.464  1.00  0.00     0.040 C 
HETATM   29  C15 UNL     1      17.888  -0.078  51.605  1.00  0.00     0.040 C 
ENDBRANCH  26  27
ENDBRANCH  19  26
ENDBRANCH  10  12
ENDBRANCH   9  10
ENDBRANCH   7   8
TORSDOF 5
ENDMDL
MODEL 4
REMARK VINA RESULT:      -8.6      3.551      8.482
REMARK  5 active torsions:
REMARK  status: ('A' for Active; 'I' for Inactive)
REMARK    1  A    between atoms: C5_7  and  C6_8 
REMARK    2  A    between atoms: C7_9  and  N2_10 
REMARK    3  A    between atoms: N2_10  and  C8_11 
REMARK    4  A    between atoms: C12_17  and  O1_18 
REMARK    5  A    between atoms: O1_18  and  C13_19 
ROOT
HETATM    1  C1  UNL     1      17.618   0.058  50.611  1.00  0.00     0.173 A 
HETATM    2  C2  UNL     1      17.618  -0.534  51.579  1.00  0.00     0.049 A 
HETATM    3  C3  UNL     1      16.798  -1.555  52.277  1.00  0.00     0.062 C 
HETATM    4  N1  UNL     1      16.171  -2.305  52.805  1.00  0.00    -0.197 NA
HETATM    5  C4  UNL     1      17.629   0.344  50.150  1.00  0.00     0.124 A 
HETATM    6  F1  UNL     1      16.890   0.709  48.981  1.00  0.00    -0.241 F 
HETATM    7  C5  UNL     1      18.834   0.821  50.318  1.00  0.00     0.055 A 
ENDROOT
BRANCH   7   8
HETATM    8  C6  UNL     1      19.766   0.603  51.407  1.00  0.00    -0.002 C 
HETATM    9  C7  UNL     1      20.756   1.427  51.573  1.00  0.00     0.086 C 
BRANCH   9  10
HETATM   10  N2  UNL     1      21.884   1.799  52.295  1.00  0.00    -0.350 N 
HETATM   11  H6  UNL     1      21.950   2.779  51.931  1.00  0.00     0.166 HD
BRANCH  10  12
HETATM   12  C8  UNL     1      22.437   0.790  53.123  1.00  0.00     0.144 A 
HETATM   13  N3  UNL     1      21.615   0.198  53.975  1.00  0.00    -0.223 NA
HETATM   14  C9  UNL     1      22.084  -0.758  54.823  1.00  0.00     0.236 A 
HETATM   15  N4  UNL     1      23.391  -1.067  54.761  1.00  0.00    -0.241 NA
HETATM   16  C10 UNL     1      24.241  -0.483  53.910  1.00  0.00     0.077 A 
HETATM   17  C11 UNL     1      25.583  -0.771  53.859  1.00  0.00     0.072 A 
HETATM   18  C18 UNL     1      23.776   0.485  53.048  1.00  0.00     0.075 A 
HETATM   19  C12 UNL     1      26.438  -0.138  52.999  1.00  0.00     0.107 A 
HETATM   20  C16 UNL     1      25.886   0.822  52.165  1.00  0.00     0.136 A 
HETATM   21  C17 UNL     1      24.555   1.164  52.159  1.00  0.00     0.121 A 
HETATM   22  O3  UNL     1      26.691   1.508  51.263  1.00  0.00    -0.344 OA
HETATM   23  O2  UNL     1      24.140   2.135  51.279  1.00  0.00    -0.345 OA
HETATM   24  C19 UNL     1      24.962   3.194  50.861  1.00  0.00     0.202 C 
HETATM   25  C20 UNL     1      26.444   2.863  50.917  1.00  0.00     0.202 C 
BRANCH  19  26
HETATM   26  O1  UNL     1      27.792  -0.409  52.937  1.00  0.00    -0.344 OA
BRANCH  26  27
HETATM   27  C13 UNL     1      28.725  -0.300  53.959  1.00  0.00     0.121 C 
HETATM   28  C14 UNL     1      29.958  -1.093  53.672  1.00  0.00     0.040 C 
HETATM   29  C15 UNL     1      29.079   1.180  54.073  1.00  0.00     0.040 C 
ENDBRANCH  26  27
ENDBRANCH  19  26
ENDBRANCH  10  12
ENDBRANCH   9  10
ENDBRANCH   7   8
TORSDOF 5
ENDMDL
MODEL 5
REMARK VINA RESULT:      -8.3      2.850      3.296
REMARK  5 active torsions:
REMARK  status: ('A' for Active; 'I' for Inactive)
REMARK    1  A    between atoms: C5_7  and  C6_8 
REMARK    2  A    between atoms: C7_9  and  N2_10 
REMARK    3  A    between atoms: N2_10  and  C8_11 
REMARK    4  A    between atoms: C12_17  and  O1_18 
REMARK    5  A    between atoms: O1_18  and  C13_19 
ROOT
HETATM    1  C1  UNL     1      28.928   0.952  53.800  1.00  0.00     0.173 A 
HETATM    2  C2  UNL     1      28.678  -0.031  53.290  1.00  0.00     0.049 A 
HETATM    3  C3  UNL     1      28.985  -1.477  53.417  1.00  0.00     0.062 C 
HETATM    4  N1  UNL     1      29.233  -2.556  53.503  1.00  0.00    -0.197 NA
HETATM    5  C4  UNL     1      29.039   1.427  54.038  1.00  0.00     0.124 A 
HETATM    6  F1  UNL     1      29.858   2.088  55.006  1.00  0.00    -0.241 F 
HETATM    7  C5  UNL     1      28.154   2.119  53.371  1.00  0.00     0.055 A 
ENDROOT
BRANCH   7   8
HETATM    8  C6  UNL     1      27.222   1.681  52.350  1.00  0.00    -0.002 C 
HETATM    9  C7  UNL     1      26.092   2.306  52.209  1.00  0.00     0.086 C 
BRANCH   9  10
HETATM   10  N2  UNL     1      24.880   2.432  51.541  1.00  0.00    -0.350 N 
HETATM   11  H6  UNL     1      25.223   3.050  50.768  1.00  0.00     0.166 HD
BRANCH  10  12
HETATM   12  C8  UNL     1      23.783   1.758  52.137  1.00  0.00     0.144 A 
HETATM   13  N3  UNL     1      24.033   0.583  52.692  1.00  0.00    -0.223 NA
HETATM   14  C9  UNL     1      23.022  -0.134  53.255  1.00  0.00     0.236 A 
HETATM   15  N4  UNL     1      21.785   0.390  53.223  1.00  0.00    -0.241 NA
HETATM   16  C10 UNL     1      21.508   1.575  52.668  1.00  0.00     0.077 A 
HETATM   17  C11 UNL     1      20.243   2.107  52.604  1.00  0.00     0.072 A 
HETATM   18  C18 UNL     1      22.524   2.308  52.096  1.00  0.00     0.075 A 
HETATM   19  C12 UNL     1      19.980   3.307  52.004  1.00  0.00     0.107 A 
HETATM   20  C16 UNL     1      21.061   3.980  51.455  1.00  0.00     0.136 A 
HETATM   21  C17 UNL     1      22.353   3.512  51.480  1.00  0.00     0.121 A 
HETATM   22  O3  UNL     1      20.874   5.207  50.828  1.00  0.00    -0.344 OA
HETATM   23  O2  UNL     1      23.332   4.281  50.897  1.00  0.00    -0.345 OA
HETATM   24  C19 UNL     1      23.093   5.124  49.798  1.00  0.00     0.202 C 
HETATM   25  C20 UNL     1      21.655   5.607  49.712  1.00  0.00     0.202 C 
BRANCH  19  26
HETATM   26  O1  UNL     1      18.714   3.857  51.924  1.00  0.00    -0.344 OA
BRANCH  26  27
HETATM   27  C13 UNL     1      17.548   3.235  51.500  1.00  0.00     0.121 C 
HETATM   28  C14 UNL     1      16.329   3.910  52.041  1.00  0.00     0.040 C 
HETATM   29  C15 UNL     1      17.541   3.307  49.975  1.00  0.00     0.040 C 
ENDBRANCH  26  27
ENDBRANCH  19  26
ENDBRANCH  10  12
ENDBRANCH   9  10
ENDBRANCH   7   8
TORSDOF 5
ENDMDL
MODEL 6
REMARK VINA RESULT:      -8.0      5.326      6.308
REMARK  5 active torsions:
REMARK  status: ('A' for Active; 'I' for Inactive)
REMARK    1  A    between atoms: C5_7  and  C6_8 
REMARK    2  A    between atoms: C7_9  and  N2_10 
REMARK    3  A    between atoms: N2_10  and  C8_11 
REMARK    4  A    between atoms: C12_17  and  O1_18 
REMARK    5  A    between atoms: O1_18  and  C13_19 
ROOT
HETATM    1  C1  UNL     1      28.591   7.438  48.332  1.00  0.00     0.173 A 
HETATM    2  C2  UNL     1      27.882   8.163  48.842  1.00  0.00     0.049 A 
HETATM    3  C3  UNL     1      27.747   9.619  49.094  1.00  0.00     0.062 C 
HETATM    4  N1  UNL     1      27.660  10.708  49.297  1.00  0.00    -0.197 NA
HETATM    5  C4  UNL     1      28.921   7.083  48.089  1.00  0.00     0.124 A 
HETATM    6  F1  UNL     1      30.194   6.910  47.460  1.00  0.00    -0.241 F 
HETATM    7  C5  UNL     1      28.120   6.057  48.200  1.00  0.00     0.055 A 
ENDROOT
BRANCH   7   8
HETATM    8  C6  UNL     1      26.798   5.981  48.793  1.00  0.00    -0.002 C 
HETATM    9  C7  UNL     1      26.286   4.819  49.063  1.00  0.00     0.086 C 
BRANCH   9  10
HETATM   10  N2  UNL     1      25.224   4.075  49.563  1.00  0.00    -0.350 N 
HETATM   11  H6  UNL     1      24.491   4.446  48.913  1.00  0.00     0.166 HD
BRANCH  10  12
HETATM   12  C8  UNL     1      25.536   3.225  50.655  1.00  0.00     0.144 A 
HETATM   13  N3  UNL     1      26.820   3.019  50.904  1.00  0.00    -0.223 NA
HETATM   14  C9  UNL     1      27.192   2.189  51.917  1.00  0.00     0.236 A 
HETATM   15  N4  UNL     1      26.222   1.600  52.637  1.00  0.00    -0.241 NA
HETATM   16  C10 UNL     1      24.919   1.793  52.403  1.00  0.00     0.077 A 
HETATM   17  C11 UNL     1      23.920   1.173  53.114  1.00  0.00     0.072 A 
HETATM   18  C18 UNL     1      24.532   2.630  51.382  1.00  0.00     0.075 A 
HETATM   19  C12 UNL     1      22.595   1.363  52.838  1.00  0.00     0.107 A 
HETATM   20  C16 UNL     1      22.294   2.224  51.793  1.00  0.00     0.136 A 
HETATM   21  C17 UNL     1      23.237   2.879  51.037  1.00  0.00     0.121 A 
HETATM   22  O3  UNL     1      20.968   2.469  51.451  1.00  0.00    -0.344 OA
HETATM   23  O2  UNL     1      22.800   3.705  50.030  1.00  0.00    -0.345 OA
HETATM   24  C19 UNL     1      21.609   3.483  49.317  1.00  0.00     0.202 C 
HETATM   25  C20 UNL     1      20.571   2.706  50.109  1.00  0.00     0.202 C 
BRANCH  19  26
HETATM   26  O1  UNL     1      21.575   0.745  53.536  1.00  0.00    -0.344 OA
BRANCH  26  27
HETATM   27  C13 UNL     1      21.110  -0.554  53.382  1.00  0.00     0.121 C 
HETATM   28  C14 UNL     1      21.491  -1.423  54.536  1.00  0.00     0.040 C 
HETATM   29  C15 UNL     1      19.589  -0.466  53.284  1.00  0.00     0.040 C 
ENDBRANCH  26  27
ENDBRANCH  19  26
ENDBRANCH  10  12
ENDBRANCH   9  10
ENDBRANCH   7   8
TORSDOF 5
ENDMDL
MODEL 7
REMARK VINA RESULT:      -7.9      4.478      5.551
REMARK  5 active torsions:
REMARK  status: ('A' for Active; 'I' for Inactive)
REMARK    1  A    between atoms: C5_7  and  C6_8 
REMARK    2  A    between atoms: C7_9  and  N2_10 
REMARK    3  A    between atoms: N2_10  and  C8_11 
REMARK    4  A    between atoms: C12_17  and  O1_18 
REMARK    5  A    between atoms: O1_18  and  C13_19 
ROOT
HETATM    1  C1  UNL     1      27.395   5.488  48.584  1.00  0.00     0.173 A 
HETATM    2  C2  UNL     1      26.638   6.315  48.762  1.00  0.00     0.049 A 
HETATM    3  C3  UNL     1      26.340   7.691  48.293  1.00  0.00     0.062 C 
HETATM    4  N1  UNL     1      26.133   8.728  47.953  1.00  0.00    -0.197 NA
HETATM    5  C4  UNL     1      27.750   5.085  48.505  1.00  0.00     0.124 A 
HETATM    6  F1  UNL     1      28.989   4.720  47.891  1.00  0.00    -0.241 F 
HETATM    7  C5  UNL     1      27.092   4.191  49.195  1.00  0.00     0.055 A 
ENDROOT
BRANCH   7   8
HETATM    8  C6  UNL     1      25.833   4.319  49.904  1.00  0.00    -0.002 C 
HETATM    9  C7  UNL     1      25.656   3.663  51.011  1.00  0.00     0.086 C 
BRANCH   9  10
HETATM   10  N2  UNL     1      24.832   3.341  52.082  1.00  0.00    -0.350 N 
HETATM   11  H6  UNL     1      25.572   2.920  52.691  1.00  0.00     0.166 HD
BRANCH  10  12
HETATM   12  C8  UNL     1      23.460   3.661  51.913  1.00  0.00     0.144 A 
HETATM   13  N3  UNL     1      23.175   4.908  51.571  1.00  0.00    -0.223 NA
HETATM   14  C9  UNL     1      21.879   5.294  51.422  1.00  0.00     0.236 A 
HETATM   15  N4  UNL     1      20.920   4.376  51.635  1.00  0.00    -0.241 NA
HETATM   16  C10 UNL     1      21.184   3.111  51.981  1.00  0.00     0.077 A 
HETATM   17  C11 UNL     1      20.211   2.173  52.228  1.00  0.00     0.072 A 
HETATM   18  C18 UNL     1      22.492   2.711  52.133  1.00  0.00     0.075 A 
HETATM   19  C12 UNL     1      20.505   0.893  52.610  1.00  0.00     0.107 A 
HETATM   20  C16 UNL     1      21.848   0.574  52.738  1.00  0.00     0.136 A 
HETATM   21  C17 UNL     1      22.876   1.458  52.509  1.00  0.00     0.121 A 
HETATM   22  O3  UNL     1      22.226  -0.708  53.123  1.00  0.00    -0.344 OA
HETATM   23  O2  UNL     1      24.164   1.009  52.673  1.00  0.00    -0.345 OA
HETATM   24  C19 UNL     1      24.518   0.012  53.598  1.00  0.00     0.202 C 
HETATM   25  C20 UNL     1      23.380  -0.943  53.916  1.00  0.00     0.202 C 
BRANCH  19  26
HETATM   26  O1  UNL     1      19.542  -0.063  52.869  1.00  0.00    -0.344 OA
BRANCH  26  27
HETATM   27  C13 UNL     1      18.232  -0.091  52.411  1.00  0.00     0.121 C 
HETATM   28  C14 UNL     1      18.162  -0.027  50.920  1.00  0.00     0.040 C 
HETATM   29  C15 UNL     1      17.624  -1.404  52.899  1.00  0.00     0.040 C 
ENDBRANCH  26  27
ENDBRANCH  19  26
ENDBRANCH  10  12
ENDBRANCH   9  10
ENDBRANCH   7   8
TORSDOF 5
ENDMDL
MODEL 8
REMARK VINA RESULT:      -7.7      1.903      2.980
REMARK  5 active torsions:
REMARK  status: ('A' for Active; 'I' for Inactive)
REMARK    1  A    between atoms: C5_7  and  C6_8 
REMARK    2  A    between atoms: C7_9  and  N2_10 
REMARK    3  A    between atoms: N2_10  and  C8_11 
REMARK    4  A    between atoms: C12_17  and  O1_18 
REMARK    5  A    between atoms: O1_18  and  C13_19 
ROOT
HETATM    1  C1  UNL     1      28.549  -0.508  53.629  1.00  0.00     0.173 A 
HETATM    2  C2  UNL     1      28.447   0.413  54.285  1.00  0.00     0.049 A 
HETATM    3  C3  UNL     1      29.272   1.544  54.778  1.00  0.00     0.062 C 
HETATM    4  N1  UNL     1      29.898   2.378  55.160  1.00  0.00    -0.197 NA
HETATM    5  C4  UNL     1      28.586  -0.949  53.316  1.00  0.00     0.124 A 
HETATM    6  F1  UNL     1      29.483  -1.810  52.608  1.00  0.00    -0.241 F 
HETATM    7  C5  UNL     1      27.306  -1.207  53.296  1.00  0.00     0.055 A 
ENDROOT
BRANCH   7   8
HETATM    8  C6  UNL     1      26.213  -0.493  53.930  1.00  0.00    -0.002 C 
HETATM    9  C7  UNL     1      25.030  -0.537  53.397  1.00  0.00     0.086 C 
BRANCH   9  10
HETATM   10  N2  UNL     1      23.694  -0.156  53.438  1.00  0.00    -0.350 N 
HETATM   11  H6  UNL     1      23.313  -1.064  53.793  1.00  0.00     0.166 HD
BRANCH  10  12
HETATM   12  C8  UNL     1      23.424   1.167  53.002  1.00  0.00     0.144 A 
HETATM   13  N3  UNL     1      24.445   2.008  52.978  1.00  0.00    -0.223 NA
HETATM   14  C9  UNL     1      24.253   3.302  52.600  1.00  0.00     0.236 A 
HETATM   15  N4  UNL     1      23.008   3.681  52.262  1.00  0.00    -0.241 NA
HETATM   16  C10 UNL     1      21.962   2.849  52.279  1.00  0.00     0.077 A 
HETATM   17  C11 UNL     1      20.681   3.232  51.963  1.00  0.00     0.072 A 
HETATM   18  C18 UNL     1      22.146   1.538  52.659  1.00  0.00     0.075 A 
HETATM   19  C12 UNL     1      19.621   2.370  52.017  1.00  0.00     0.107 A 
HETATM   20  C16 UNL     1      19.896   1.068  52.409  1.00  0.00     0.136 A 
HETATM   21  C17 UNL     1      21.149   0.612  52.740  1.00  0.00     0.121 A 
HETATM   22  O3  UNL     1      18.870   0.133  52.487  1.00  0.00    -0.344 OA
HETATM   23  O2  UNL     1      21.281  -0.705  53.111  1.00  0.00    -0.345 OA
HETATM   24  C19 UNL     1      20.265  -1.425  53.761  1.00  0.00     0.202 C 
HETATM   25  C20 UNL     1      18.870  -0.900  53.460  1.00  0.00     0.202 C 
BRANCH  19  26
HETATM   26  O1  UNL     1      18.325   2.738  51.709  1.00  0.00    -0.344 OA
BRANCH  26  27
HETATM   27  C13 UNL     1      17.592   2.391  50.583  1.00  0.00     0.121 C 
HETATM   28  C14 UNL     1      16.178   2.047  50.923  1.00  0.00     0.040 C 
HETATM   29  C15 UNL     1      17.617   3.601  49.653  1.00  0.00     0.040 C 
ENDBRANCH  26  27
ENDBRANCH  19  26
ENDBRANCH  10  12
ENDBRANCH   9  10
ENDBRANCH   7   8
TORSDOF 5
ENDMDL
MODEL 9
REMARK VINA RESULT:      -7.7      4.680      6.665
REMARK  5 active torsions:
REMARK  status: ('A' for Active; 'I' for Inactive)
REMARK    1  A    between atoms: C5_7  and  C6_8 
REMARK    2  A    between atoms: C7_9  and  N2_10 
REMARK    3  A    between atoms: N2_10  and  C8_11 
REMARK    4  A    between atoms: C12_17  and  O1_18 
REMARK    5  A    between atoms: O1_18  and  C13_19 
ROOT
HETATM    1  C1  UNL     1      24.235   8.084  50.329  1.00  0.00     0.173 A 
HETATM    2  C2  UNL     1      23.193   7.633  50.339  1.00  0.00     0.049 A 
HETATM    3  C3  UNL     1      21.782   8.048  50.144  1.00  0.00     0.062 C 
HETATM    4  N1  UNL     1      20.726   8.368  50.016  1.00  0.00    -0.197 NA
HETATM    5  C4  UNL     1      24.737   8.289  50.325  1.00  0.00     0.124 A 
HETATM    6  F1  UNL     1      25.510   9.492  50.280  1.00  0.00    -0.241 F 
HETATM    7  C5  UNL     1      25.351   7.138  50.388  1.00  0.00     0.055 A 
ENDROOT
BRANCH   7   8
HETATM    8  C6  UNL     1      24.794   5.800  50.446  1.00  0.00    -0.002 C 
HETATM    9  C7  UNL     1      25.506   4.795  50.032  1.00  0.00     0.086 C 
BRANCH   9  10
HETATM   10  N2  UNL     1      25.616   3.427  49.815  1.00  0.00    -0.350 N 
HETATM   11  H6  UNL     1      25.427   3.445  48.785  1.00  0.00     0.166 HD
BRANCH  10  12
HETATM   12  C8  UNL     1      25.888   2.648  50.969  1.00  0.00     0.144 A 
HETATM   13  N3  UNL     1      27.108   2.735  51.476  1.00  0.00    -0.223 NA
HETATM   14  C9  UNL     1      27.449   1.991  52.564  1.00  0.00     0.236 A 
HETATM   15  N4  UNL     1      26.515   1.180  53.089  1.00  0.00    -0.241 NA
HETATM   16  C10 UNL     1      25.277   1.074  52.594  1.00  0.00     0.077 A 
HETATM   17  C11 UNL     1      24.323   0.227  53.106  1.00  0.00     0.072 A 
HETATM   18  C18 UNL     1      24.922   1.823  51.494  1.00  0.00     0.075 A 
HETATM   19  C12 UNL     1      23.073   0.115  52.564  1.00  0.00     0.107 A 
HETATM   20  C16 UNL     1      22.800   0.906  51.458  1.00  0.00     0.136 A 
HETATM   21  C17 UNL     1      23.700   1.776  50.891  1.00  0.00     0.121 A 
HETATM   22  O3  UNL     1      21.550   0.848  50.852  1.00  0.00    -0.344 OA
HETATM   23  O2  UNL     1      23.298   2.501  49.796  1.00  0.00    -0.345 OA
HETATM   24  C19 UNL     1      22.358   2.029  48.864  1.00  0.00     0.202 C 
HETATM   25  C20 UNL     1      21.387   1.017  49.452  1.00  0.00     0.202 C 
BRANCH  19  26
HETATM   26  O1  UNL     1      22.103  -0.735  53.060  1.00  0.00    -0.344 OA
BRANCH  26  27
HETATM   27  C13 UNL     1      21.496  -0.691  54.307  1.00  0.00     0.121 C 
HETATM   28  C14 UNL     1      20.781   0.601  54.532  1.00  0.00     0.040 C 
HETATM   29  C15 UNL     1      20.498  -1.845  54.351  1.00  0.00     0.040 C 
ENDBRANCH  26  27
ENDBRANCH  19  26
ENDBRANCH  10  12
ENDBRANCH   9  10
ENDBRANCH   7   8
TORSDOF 5
ENDMDL
