MODEL 1
REMARK VINA RESULT:      -8.0      0.000      0.000
REMARK  7 active torsions:
REMARK  status: ('A' for Active; 'I' for Inactive)
REMARK    1  A    between atoms: C2_2  and  N1_3 
REMARK    2  A    between atoms: N1_3  and  C3_4 
REMARK    3  A    between atoms: N1_3  and  C5_7 
REMARK    4  A    between atoms: C3_4  and  C4_5 
REMARK    5  A    between atoms: C5_7  and  N2_8 
REMARK    6  A    between atoms: N2_8  and  C6_9 
REMARK    7  A    between atoms: C10_14  and  C12_16 
ROOT
HETATM    1  C6  UNL     1      25.981   1.844  51.949  1.00  0.00     0.132 C 
HETATM    2  C7  UNL     1      26.717   2.243  50.716  1.00  0.00     0.024 C 
HETATM    3  C8  UNL     1      26.242   3.452  50.416  1.00  0.00    -0.000 C 
HETATM    4  C9  UNL     1      26.773   4.168  49.210  1.00  0.00     0.067 C 
HETATM    5  N3  UNL     1      25.243   3.940  51.315  1.00  0.00    -0.381 N 
HETATM    6  C10 UNL     1      24.763   2.680  51.925  1.00  0.00     0.066 C 
HETATM    7  C11 UNL     1      24.413   3.066  53.351  1.00  0.00     0.042 C 
HETATM    8  H17 UNL     1      25.052   4.958  51.374  1.00  0.00     0.160 HD
ENDROOT
BRANCH   6   9
HETATM    9  C12 UNL     1      23.626   2.209  51.108  1.00  0.00     0.143 A 
HETATM   10  C13 UNL     1      22.829   3.364  50.627  1.00  0.00     0.233 A 
HETATM   11  O2  UNL     1      22.939   4.351  49.835  1.00  0.00    -0.272 OA
HETATM   12  N4  UNL     1      21.521   3.397  51.234  1.00  0.00    -0.326 N 
HETATM   13  C14 UNL     1      21.384   2.256  52.098  1.00  0.00     0.042 A 
HETATM   14  H22 UNL     1      20.668   4.023  51.205  1.00  0.00     0.169 HD
HETATM   15  C15 UNL     1      20.423   1.714  52.907  1.00  0.00     0.032 A 
HETATM   16  C19 UNL     1      22.594   1.556  52.008  1.00  0.00    -0.014 A 
HETATM   17  C16 UNL     1      20.537   0.559  53.630  1.00  0.00     0.026 A 
HETATM   18  C17 UNL     1      21.732  -0.136  53.541  1.00  0.00     0.034 A 
HETATM   19 CL1  UNL     1      21.884  -1.614  54.463  1.00  0.00    -0.084 Cl
HETATM   20  C18 UNL     1      22.720   0.384  52.735  1.00  0.00     0.034 A 
ENDBRANCH   6   9
BRANCH   1  21
HETATM   21  N2  UNL     1      25.938   0.491  52.261  1.00  0.00    -0.396 N 
HETATM   22  H11 UNL     1      25.116  -0.030  51.910  1.00  0.00     0.155 HD
BRANCH  21  23
HETATM   23  C5  UNL     1      27.043  -0.238  52.719  1.00  0.00     0.236 C 
BRANCH  23  24
HETATM   24  N1  UNL     1      27.271  -0.047  54.133  1.00  0.00    -0.392 N 
BRANCH  24  25
HETATM   25  C2  UNL     1      26.177   0.192  54.953  1.00  0.00     0.114 C 
HETATM   26  C1  UNL     1      25.270  -0.976  55.228  1.00  0.00     0.026 C 
ENDBRANCH  24  25
BRANCH  24  27
HETATM   27  C3  UNL     1      28.586   0.197  54.549  1.00  0.00     0.188 C 
BRANCH  27  28
HETATM   28  C4  UNL     1      29.087   1.567  54.153  1.00  0.00     0.250 C 
HETATM   29  O1  UNL     1      28.559   2.661  54.118  1.00  0.00    -0.305 OA
ENDBRANCH  27  28
ENDBRANCH  24  27
ENDBRANCH  23  24
ENDBRANCH  21  23
ENDBRANCH   1  21
TORSDOF 7
ENDMDL
MODEL 2
REMARK VINA RESULT:      -7.6      2.178      5.352
REMARK  7 active torsions:
REMARK  status: ('A' for Active; 'I' for Inactive)
REMARK    1  A    between atoms: C2_2  and  N1_3 
REMARK    2  A    between atoms: N1_3  and  C3_4 
REMARK    3  A    between atoms: N1_3  and  C5_7 
REMARK    4  A    between atoms: C3_4  and  C4_5 
REMARK    5  A    between atoms: C5_7  and  N2_8 
REMARK    6  A    between atoms: N2_8  and  C6_9 
REMARK    7  A    between atoms: C10_14  and  C12_16 
ROOT
HETATM    1  C6  UNL     1      27.276   2.045  52.148  1.00  0.00     0.132 C 
HETATM    2  C7  UNL     1      28.263   2.657  53.083  1.00  0.00     0.024 C 
HETATM    3  C8  UNL     1      28.663   1.649  53.858  1.00  0.00    -0.000 C 
HETATM    4  C9  UNL     1      29.676   1.909  54.932  1.00  0.00     0.067 C 
HETATM    5  N3  UNL     1      28.051   0.391  53.562  1.00  0.00    -0.381 N 
HETATM    6  C10 UNL     1      26.829   0.824  52.848  1.00  0.00     0.066 C 
HETATM    7  C11 UNL     1      26.594  -0.265  51.817  1.00  0.00     0.042 C 
HETATM    8  H17 UNL     1      28.508  -0.491  53.861  1.00  0.00     0.160 HD
ENDROOT
BRANCH   6   9
HETATM    9  C12 UNL     1      25.763   0.967  53.861  1.00  0.00     0.143 A 
HETATM   10  C13 UNL     1      25.849  -0.134  54.852  1.00  0.00     0.233 A 
HETATM   11  O2  UNL     1      26.619  -0.544  55.776  1.00  0.00    -0.272 OA
HETATM   12  N4  UNL     1      24.721  -1.026  54.755  1.00  0.00    -0.326 N 
HETATM   13  C14 UNL     1      23.832  -0.537  53.737  1.00  0.00     0.042 A 
HETATM   14  H22 UNL     1      24.393  -1.916  55.224  1.00  0.00     0.169 HD
HETATM   15  C15 UNL     1      22.625  -0.891  53.196  1.00  0.00     0.032 A 
HETATM   16  C19 UNL     1      24.423   0.630  53.235  1.00  0.00    -0.014 A 
HETATM   17  C16 UNL     1      21.952  -0.214  52.218  1.00  0.00     0.026 A 
HETATM   18  C17 UNL     1      22.535   0.941  51.721  1.00  0.00     0.034 A 
HETATM   19 CL1  UNL     1      21.678   1.811  50.470  1.00  0.00    -0.084 Cl
HETATM   20  C18 UNL     1      23.749   1.324  52.245  1.00  0.00     0.034 A 
ENDBRANCH   6   9
BRANCH   1  21
HETATM   21  N2  UNL     1      26.382   2.898  51.513  1.00  0.00    -0.396 N 
HETATM   22  H11 UNL     1      25.866   3.552  52.125  1.00  0.00     0.155 HD
BRANCH  21  23
HETATM   23  C5  UNL     1      26.377   3.132  50.132  1.00  0.00     0.236 C 
BRANCH  23  24
HETATM   24  N1  UNL     1      25.678   4.350  49.791  1.00  0.00    -0.392 N 
BRANCH  24  25
HETATM   25  C2  UNL     1      26.356   5.322  49.068  1.00  0.00     0.114 C 
HETATM   26  C1  UNL     1      27.756   4.986  48.631  1.00  0.00     0.026 C 
ENDBRANCH  24  25
BRANCH  24  27
HETATM   27  C3  UNL     1      24.479   4.617  50.464  1.00  0.00     0.188 C 
BRANCH  27  28
HETATM   28  C4  UNL     1      24.329   6.070  50.853  1.00  0.00     0.250 C 
HETATM   29  O1  UNL     1      23.384   6.834  50.841  1.00  0.00    -0.305 OA
ENDBRANCH  27  28
ENDBRANCH  24  27
ENDBRANCH  23  24
ENDBRANCH  21  23
ENDBRANCH   1  21
TORSDOF 7
ENDMDL
MODEL 3
REMARK VINA RESULT:      -7.4      2.932      5.722
REMARK  7 active torsions:
REMARK  status: ('A' for Active; 'I' for Inactive)
REMARK    1  A    between atoms: C2_2  and  N1_3 
REMARK    2  A    between atoms: N1_3  and  C3_4 
REMARK    3  A    between atoms: N1_3  and  C5_7 
REMARK    4  A    between atoms: C3_4  and  C4_5 
REMARK    5  A    between atoms: C5_7  and  N2_8 
REMARK    6  A    between atoms: N2_8  and  C6_9 
REMARK    7  A    between atoms: C10_14  and  C12_16 
ROOT
HETATM    1  C6  UNL     1      23.566   1.457  52.966  1.00  0.00     0.132 C 
HETATM    2  C7  UNL     1      24.421   0.363  53.507  1.00  0.00     0.024 C 
HETATM    3  C8  UNL     1      25.576   0.956  53.811  1.00  0.00    -0.000 C 
HETATM    4  C9  UNL     1      26.689   0.137  54.393  1.00  0.00     0.067 C 
HETATM    5  N3  UNL     1      25.616   2.359  53.534  1.00  0.00    -0.381 N 
HETATM    6  C10 UNL     1      24.532   2.487  52.534  1.00  0.00     0.066 C 
HETATM    7  C11 UNL     1      23.934   3.855  52.806  1.00  0.00     0.042 C 
HETATM    8  H17 UNL     1      26.307   2.963  54.017  1.00  0.00     0.160 HD
ENDROOT
BRANCH   6   9
HETATM    9  C12 UNL     1      25.152   2.328  51.202  1.00  0.00     0.143 A 
HETATM   10  C13 UNL     1      26.529   2.881  51.210  1.00  0.00     0.233 A 
HETATM   11  O2  UNL     1      27.665   2.638  51.725  1.00  0.00    -0.272 OA
HETATM   12  N4  UNL     1      26.633   4.060  50.385  1.00  0.00    -0.326 N 
HETATM   13  C14 UNL     1      25.358   4.308  49.772  1.00  0.00     0.042 A 
HETATM   14  H22 UNL     1      27.382   4.760  50.126  1.00  0.00     0.169 HD
HETATM   15  C15 UNL     1      24.818   5.212  48.898  1.00  0.00     0.032 A 
HETATM   16  C19 UNL     1      24.505   3.293  50.227  1.00  0.00    -0.014 A 
HETATM   17  C16 UNL     1      23.533   5.213  48.432  1.00  0.00     0.026 A 
HETATM   18  C17 UNL     1      22.689   4.210  48.879  1.00  0.00     0.034 A 
HETATM   19 CL1  UNL     1      21.044   4.206  48.286  1.00  0.00    -0.084 Cl
HETATM   20  C18 UNL     1      23.202   3.284  49.760  1.00  0.00     0.034 A 
ENDBRANCH   6   9
BRANCH   1  21
HETATM   21  N2  UNL     1      22.480   1.092  52.180  1.00  0.00    -0.396 N 
HETATM   22  H11 UNL     1      22.648   0.331  51.500  1.00  0.00     0.155 HD
BRANCH  21  23
HETATM   23  C5  UNL     1      21.157   1.452  52.464  1.00  0.00     0.236 C 
BRANCH  23  24
HETATM   24  N1  UNL     1      20.398   0.349  53.009  1.00  0.00    -0.392 N 
BRANCH  24  25
HETATM   25  C2  UNL     1      19.258  -0.066  52.335  1.00  0.00     0.114 C 
HETATM   26  C1  UNL     1      19.051   0.487  50.951  1.00  0.00     0.026 C 
ENDBRANCH  24  25
BRANCH  24  27
HETATM   27  C3  UNL     1      20.669  -0.031  54.329  1.00  0.00     0.188 C 
BRANCH  27  28
HETATM   28  C4  UNL     1      21.217  -1.435  54.441  1.00  0.00     0.250 C 
HETATM   29  O1  UNL     1      21.988  -1.960  55.219  1.00  0.00    -0.305 OA
ENDBRANCH  27  28
ENDBRANCH  24  27
ENDBRANCH  23  24
ENDBRANCH  21  23
ENDBRANCH   1  21
TORSDOF 7
ENDMDL
MODEL 4
REMARK VINA RESULT:      -7.3      1.823      2.729
REMARK  7 active torsions:
REMARK  status: ('A' for Active; 'I' for Inactive)
REMARK    1  A    between atoms: C2_2  and  N1_3 
REMARK    2  A    between atoms: N1_3  and  C3_4 
REMARK    3  A    between atoms: N1_3  and  C5_7 
REMARK    4  A    between atoms: C3_4  and  C4_5 
REMARK    5  A    between atoms: C5_7  and  N2_8 
REMARK    6  A    between atoms: N2_8  and  C6_9 
REMARK    7  A    between atoms: C10_14  and  C12_16 
ROOT
HETATM    1  C6  UNL     1      23.893   2.640  50.968  1.00  0.00     0.132 C 
HETATM    2  C7  UNL     1      23.995   2.884  49.501  1.00  0.00     0.024 C 
HETATM    3  C8  UNL     1      22.754   3.192  49.123  1.00  0.00    -0.000 C 
HETATM    4  C9  UNL     1      22.484   3.504  47.682  1.00  0.00     0.067 C 
HETATM    5  N3  UNL     1      21.791   3.186  50.180  1.00  0.00    -0.381 N 
HETATM    6  C10 UNL     1      22.465   2.329  51.181  1.00  0.00     0.066 C 
HETATM    7  C11 UNL     1      22.038   2.910  52.516  1.00  0.00     0.042 C 
HETATM    8  H17 UNL     1      20.903   3.711  50.074  1.00  0.00     0.160 HD
ENDROOT
BRANCH   6   9
HETATM    9  C12 UNL     1      22.022   0.942  50.932  1.00  0.00     0.143 A 
HETATM   10  C13 UNL     1      20.591   0.924  50.542  1.00  0.00     0.233 A 
HETATM   11  O2  UNL     1      19.847   1.293  49.580  1.00  0.00    -0.272 OA
HETATM   12  N4  UNL     1      19.772   0.300  51.553  1.00  0.00    -0.326 N 
HETATM   13  C14 UNL     1      20.622  -0.152  52.620  1.00  0.00     0.042 A 
HETATM   14  H22 UNL     1      18.745   0.098  51.702  1.00  0.00     0.169 HD
HETATM   15  C15 UNL     1      20.481  -0.816  53.809  1.00  0.00     0.032 A 
HETATM   16  C19 UNL     1      21.927   0.198  52.251  1.00  0.00    -0.014 A 
HETATM   17  C16 UNL     1      21.491  -1.164  54.661  1.00  0.00     0.026 A 
HETATM   18  C17 UNL     1      22.783  -0.819  54.297  1.00  0.00     0.034 A 
HETATM   19 CL1  UNL     1      24.080  -1.262  55.383  1.00  0.00    -0.084 Cl
HETATM   20  C18 UNL     1      22.959  -0.151  53.106  1.00  0.00     0.034 A 
ENDBRANCH   6   9
BRANCH   1  21
HETATM   21  N2  UNL     1      24.904   1.900  51.566  1.00  0.00    -0.396 N 
HETATM   22  H11 UNL     1      24.617   1.003  51.994  1.00  0.00     0.155 HD
BRANCH  21  23
HETATM   23  C5  UNL     1      26.270   2.131  51.352  1.00  0.00     0.236 C 
BRANCH  23  24
HETATM   24  N1  UNL     1      27.085   1.580  52.411  1.00  0.00    -0.392 N 
BRANCH  24  25
HETATM   25  C2  UNL     1      26.617   0.468  53.096  1.00  0.00     0.114 C 
HETATM   26  C1  UNL     1      26.806  -0.866  52.429  1.00  0.00     0.026 C 
ENDBRANCH  24  25
BRANCH  24  27
HETATM   27  C3  UNL     1      28.137   2.370  52.893  1.00  0.00     0.188 C 
BRANCH  27  28
HETATM   28  C4  UNL     1      28.891   1.722  54.030  1.00  0.00     0.250 C 
HETATM   29  O1  UNL     1      29.382   2.162  55.051  1.00  0.00    -0.305 OA
ENDBRANCH  27  28
ENDBRANCH  24  27
ENDBRANCH  23  24
ENDBRANCH  21  23
ENDBRANCH   1  21
TORSDOF 7
ENDMDL
MODEL 5
REMARK VINA RESULT:      -7.3      2.596      5.888
REMARK  7 active torsions:
REMARK  status: ('A' for Active; 'I' for Inactive)
REMARK    1  A    between atoms: C2_2  and  N1_3 
REMARK    2  A    between atoms: N1_3  and  C3_4 
REMARK    3  A    between atoms: N1_3  and  C5_7 
REMARK    4  A    between atoms: C3_4  and  C4_5 
REMARK    5  A    between atoms: C5_7  and  N2_8 
REMARK    6  A    between atoms: N2_8  and  C6_9 
REMARK    7  A    between atoms: C10_14  and  C12_16 
ROOT
HETATM    1  C6  UNL     1      23.351   1.397  52.733  1.00  0.00     0.132 C 
HETATM    2  C7  UNL     1      24.083   0.194  53.223  1.00  0.00     0.024 C 
HETATM    3  C8  UNL     1      25.262   0.661  53.635  1.00  0.00    -0.000 C 
HETATM    4  C9  UNL     1      26.270  -0.293  54.201  1.00  0.00     0.067 C 
HETATM    5  N3  UNL     1      25.430   2.073  53.480  1.00  0.00    -0.381 N 
HETATM    6  C10 UNL     1      24.421   2.372  52.440  1.00  0.00     0.066 C 
HETATM    7  C11 UNL     1      23.920   3.760  52.796  1.00  0.00     0.042 C 
HETATM    8  H17 UNL     1      26.139   2.575  54.047  1.00  0.00     0.160 HD
ENDROOT
BRANCH   6   9
HETATM    9  C12 UNL     1      25.102   2.269  51.133  1.00  0.00     0.143 A 
HETATM   10  C13 UNL     1      26.488   2.787  51.236  1.00  0.00     0.233 A 
HETATM   11  O2  UNL     1      27.592   2.489  51.792  1.00  0.00    -0.272 OA
HETATM   12  N4  UNL     1      26.659   4.005  50.483  1.00  0.00    -0.326 N 
HETATM   13  C14 UNL     1      25.421   4.316  49.823  1.00  0.00     0.042 A 
HETATM   14  H22 UNL     1      27.435   4.700  50.298  1.00  0.00     0.169 HD
HETATM   15  C15 UNL     1      24.945   5.278  48.973  1.00  0.00     0.032 A 
HETATM   16  C19 UNL     1      24.525   3.300  50.181  1.00  0.00    -0.014 A 
HETATM   17  C16 UNL     1      23.685   5.335  48.447  1.00  0.00     0.026 A 
HETATM   18  C17 UNL     1      22.798   4.330  48.799  1.00  0.00     0.034 A 
HETATM   19 CL1  UNL     1      21.185   4.397  48.128  1.00  0.00    -0.084 Cl
HETATM   20  C18 UNL     1      23.246   3.347  49.652  1.00  0.00     0.034 A 
ENDBRANCH   6   9
BRANCH   1  21
HETATM   21  N2  UNL     1      22.287   1.190  51.865  1.00  0.00    -0.396 N 
HETATM   22  H11 UNL     1      22.232   1.830  51.053  1.00  0.00     0.155 HD
BRANCH  21  23
HETATM   23  C5  UNL     1      21.510   0.024  51.848  1.00  0.00     0.236 C 
BRANCH  23  24
HETATM   24  N1  UNL     1      20.206   0.232  52.435  1.00  0.00    -0.392 N 
BRANCH  24  25
HETATM   25  C2  UNL     1      19.920  -0.380  53.646  1.00  0.00     0.114 C 
HETATM   26  C1  UNL     1      20.897  -1.418  54.127  1.00  0.00     0.026 C 
ENDBRANCH  24  25
BRANCH  24  27
HETATM   27  C3  UNL     1      19.208   0.773  51.614  1.00  0.00     0.188 C 
BRANCH  27  28
HETATM   28  C4  UNL     1      18.984   2.249  51.848  1.00  0.00     0.250 C 
HETATM   29  O1  UNL     1      19.682   3.125  52.319  1.00  0.00    -0.305 OA
ENDBRANCH  27  28
ENDBRANCH  24  27
ENDBRANCH  23  24
ENDBRANCH  21  23
ENDBRANCH   1  21
TORSDOF 7
ENDMDL
MODEL 6
REMARK VINA RESULT:      -7.3      2.516      4.482
REMARK  7 active torsions:
REMARK  status: ('A' for Active; 'I' for Inactive)
REMARK    1  A    between atoms: C2_2  and  N1_3 
REMARK    2  A    between atoms: N1_3  and  C3_4 
REMARK    3  A    between atoms: N1_3  and  C5_7 
REMARK    4  A    between atoms: C3_4  and  C4_5 
REMARK    5  A    between atoms: C5_7  and  N2_8 
REMARK    6  A    between atoms: N2_8  and  C6_9 
REMARK    7  A    between atoms: C10_14  and  C12_16 
ROOT
HETATM    1  C6  UNL     1      23.487   0.634  52.193  1.00  0.00     0.132 C 
HETATM    2  C7  UNL     1      22.936   0.244  53.521  1.00  0.00     0.024 C 
HETATM    3  C8  UNL     1      21.636   0.531  53.445  1.00  0.00    -0.000 C 
HETATM    4  C9  UNL     1      20.755   0.259  54.627  1.00  0.00     0.067 C 
HETATM    5  N3  UNL     1      21.222   1.087  52.194  1.00  0.00    -0.381 N 
HETATM    6  C10 UNL     1      22.505   1.604  51.668  1.00  0.00     0.066 C 
HETATM    7  C11 UNL     1      22.395   1.416  50.166  1.00  0.00     0.042 C 
HETATM    8  H17 UNL     1      20.225   1.040  51.911  1.00  0.00     0.160 HD
ENDROOT
BRANCH   6   9
HETATM    9  C12 UNL     1      22.622   3.007  52.116  1.00  0.00     0.143 A 
HETATM   10  C13 UNL     1      21.294   3.668  52.080  1.00  0.00     0.233 A 
HETATM   11  O2  UNL     1      20.172   3.613  52.673  1.00  0.00    -0.272 OA
HETATM   12  N4  UNL     1      21.237   4.692  51.066  1.00  0.00    -0.326 N 
HETATM   13  C14 UNL     1      22.520   4.779  50.425  1.00  0.00     0.042 A 
HETATM   14  H22 UNL     1      20.517   5.370  50.689  1.00  0.00     0.169 HD
HETATM   15  C15 UNL     1      23.109   5.532  49.446  1.00  0.00     0.032 A 
HETATM   16  C19 UNL     1      23.330   3.820  51.048  1.00  0.00    -0.014 A 
HETATM   17  C16 UNL     1      24.405   5.432  49.024  1.00  0.00     0.026 A 
HETATM   18  C17 UNL     1      25.208   4.485  49.639  1.00  0.00     0.034 A 
HETATM   19 CL1  UNL     1      26.867   4.354  49.104  1.00  0.00    -0.084 Cl
HETATM   20  C18 UNL     1      24.645   3.711  50.629  1.00  0.00     0.034 A 
ENDBRANCH   6   9
BRANCH   1  21
HETATM   21  N2  UNL     1      24.856   0.854  52.107  1.00  0.00    -0.396 N 
HETATM   22  H11 UNL     1      25.217   1.107  51.171  1.00  0.00     0.155 HD
BRANCH  21  23
HETATM   23  C5  UNL     1      25.683   1.059  53.219  1.00  0.00     0.236 C 
BRANCH  23  24
HETATM   24  N1  UNL     1      26.714   0.051  53.321  1.00  0.00    -0.392 N 
BRANCH  24  25
HETATM   25  C2  UNL     1      26.476  -1.197  52.765  1.00  0.00     0.114 C 
HETATM   26  C1  UNL     1      27.628  -2.164  52.754  1.00  0.00     0.026 C 
ENDBRANCH  24  25
BRANCH  24  27
HETATM   27  C3  UNL     1      27.753   0.280  54.233  1.00  0.00     0.188 C 
BRANCH  27  28
HETATM   28  C4  UNL     1      28.652   1.427  53.831  1.00  0.00     0.250 C 
HETATM   29  O1  UNL     1      28.874   2.514  54.326  1.00  0.00    -0.305 OA
ENDBRANCH  27  28
ENDBRANCH  24  27
ENDBRANCH  23  24
ENDBRANCH  21  23
ENDBRANCH   1  21
TORSDOF 7
ENDMDL
MODEL 7
REMARK VINA RESULT:      -7.0      2.420      3.107
REMARK  7 active torsions:
REMARK  status: ('A' for Active; 'I' for Inactive)
REMARK    1  A    between atoms: C2_2  and  N1_3 
REMARK    2  A    between atoms: N1_3  and  C3_4 
REMARK    3  A    between atoms: N1_3  and  C5_7 
REMARK    4  A    between atoms: C3_4  and  C4_5 
REMARK    5  A    between atoms: C5_7  and  N2_8 
REMARK    6  A    between atoms: N2_8  and  C6_9 
REMARK    7  A    between atoms: C10_14  and  C12_16 
ROOT
HETATM    1  C6  UNL     1      23.346   2.100  52.250  1.00  0.00     0.132 C 
HETATM    2  C7  UNL     1      24.709   2.126  51.648  1.00  0.00     0.024 C 
HETATM    3  C8  UNL     1      24.589   2.906  50.574  1.00  0.00    -0.000 C 
HETATM    4  C9  UNL     1      25.791   3.160  49.714  1.00  0.00     0.067 C 
HETATM    5  N3  UNL     1      23.274   3.428  50.361  1.00  0.00    -0.381 N 
HETATM    6  C10 UNL     1      22.453   2.468  51.132  1.00  0.00     0.066 C 
HETATM    7  C11 UNL     1      21.314   3.308  51.680  1.00  0.00     0.042 C 
HETATM    8  H17 UNL     1      23.141   4.276  49.778  1.00  0.00     0.160 HD
ENDROOT
BRANCH   6   9
HETATM    9  C12 UNL     1      22.049   1.397  50.198  1.00  0.00     0.143 A 
HETATM   10  C13 UNL     1      21.794   1.963  48.851  1.00  0.00     0.233 A 
HETATM   11  O2  UNL     1      22.432   2.503  47.894  1.00  0.00    -0.272 OA
HETATM   12  N4  UNL     1      20.398   1.887  48.497  1.00  0.00    -0.326 N 
HETATM   13  C14 UNL     1      19.686   1.239  49.564  1.00  0.00     0.042 A 
HETATM   14  H22 UNL     1      19.788   2.176  47.682  1.00  0.00     0.169 HD
HETATM   15  C15 UNL     1      18.401   0.852  49.829  1.00  0.00     0.032 A 
HETATM   16  C19 UNL     1      20.645   0.934  50.540  1.00  0.00    -0.014 A 
HETATM   17  C16 UNL     1      17.972   0.200  50.952  1.00  0.00     0.026 A 
HETATM   18  C17 UNL     1      18.918  -0.103  51.917  1.00  0.00     0.034 A 
HETATM   19 CL1  UNL     1      18.375  -0.937  53.355  1.00  0.00    -0.084 Cl
HETATM   20  C18 UNL     1      20.221   0.273  51.680  1.00  0.00     0.034 A 
ENDBRANCH   6   9
BRANCH   1  21
HETATM   21  N2  UNL     1      23.048   1.056  53.116  1.00  0.00    -0.396 N 
HETATM   22  H11 UNL     1      22.214   1.186  53.715  1.00  0.00     0.155 HD
BRANCH  21  23
HETATM   23  C5  UNL     1      23.592  -0.230  53.002  1.00  0.00     0.236 C 
BRANCH  23  24
HETATM   24  N1  UNL     1      23.876  -0.816  54.292  1.00  0.00    -0.392 N 
BRANCH  24  25
HETATM   25  C2  UNL     1      22.810  -1.164  55.109  1.00  0.00     0.114 C 
HETATM   26  C1  UNL     1      21.649  -1.855  54.449  1.00  0.00     0.026 C 
ENDBRANCH  24  25
BRANCH  24  27
HETATM   27  C3  UNL     1      25.187  -0.713  54.773  1.00  0.00     0.188 C 
BRANCH  27  28
HETATM   28  C4  UNL     1      26.222  -0.686  53.672  1.00  0.00     0.250 C 
HETATM   29  O1  UNL     1      27.273  -1.275  53.514  1.00  0.00    -0.305 OA
ENDBRANCH  27  28
ENDBRANCH  24  27
ENDBRANCH  23  24
ENDBRANCH  21  23
ENDBRANCH   1  21
TORSDOF 7
ENDMDL
MODEL 8
REMARK VINA RESULT:      -6.8      3.291      7.270
REMARK  7 active torsions:
REMARK  status: ('A' for Active; 'I' for Inactive)
REMARK    1  A    between atoms: C2_2  and  N1_3 
REMARK    2  A    between atoms: N1_3  and  C3_4 
REMARK    3  A    between atoms: N1_3  and  C5_7 
REMARK    4  A    between atoms: C3_4  and  C4_5 
REMARK    5  A    between atoms: C5_7  and  N2_8 
REMARK    6  A    between atoms: N2_8  and  C6_9 
REMARK    7  A    between atoms: C10_14  and  C12_16 
ROOT
HETATM    1  C6  UNL     1      19.242   0.619  51.775  1.00  0.00     0.132 C 
HETATM    2  C7  UNL     1      18.375  -0.589  51.878  1.00  0.00     0.024 C 
HETATM    3  C8  UNL     1      18.554  -1.028  53.123  1.00  0.00    -0.000 C 
HETATM    4  C9  UNL     1      17.819  -2.252  53.582  1.00  0.00     0.067 C 
HETATM    5  N3  UNL     1      19.464  -0.249  53.904  1.00  0.00    -0.381 N 
HETATM    6  C10 UNL     1      20.241   0.435  52.846  1.00  0.00     0.066 C 
HETATM    7  C11 UNL     1      20.567   1.792  53.442  1.00  0.00     0.042 C 
HETATM    8  H17 UNL     1      19.428  -0.293  54.940  1.00  0.00     0.160 HD
ENDROOT
BRANCH   6   9
HETATM    9  C12 UNL     1      21.412  -0.416  52.551  1.00  0.00     0.143 A 
HETATM   10  C13 UNL     1      21.901  -1.062  53.794  1.00  0.00     0.233 A 
HETATM   11  O2  UNL     1      21.530  -1.934  54.641  1.00  0.00    -0.272 OA
HETATM   12  N4  UNL     1      23.197  -0.560  54.180  1.00  0.00    -0.326 N 
HETATM   13  C14 UNL     1      23.633   0.396  53.199  1.00  0.00     0.042 A 
HETATM   14  H22 UNL     1      23.883  -0.711  54.971  1.00  0.00     0.169 HD
HETATM   15  C15 UNL     1      24.732   1.179  52.972  1.00  0.00     0.032 A 
HETATM   16  C19 UNL     1      22.610   0.462  52.243  1.00  0.00    -0.014 A 
HETATM   17  C16 UNL     1      24.919   2.014  51.907  1.00  0.00     0.026 A 
HETATM   18  C17 UNL     1      23.910   2.081  50.960  1.00  0.00     0.034 A 
HETATM   19 CL1  UNL     1      24.144   3.147  49.594  1.00  0.00    -0.084 Cl
HETATM   20  C18 UNL     1      22.790   1.304  51.158  1.00  0.00     0.034 A 
ENDBRANCH   6   9
BRANCH   1  21
HETATM   21  N2  UNL     1      19.598   1.045  50.502  1.00  0.00    -0.396 N 
HETATM   22  H11 UNL     1      20.281   0.451  49.999  1.00  0.00     0.155 HD
BRANCH  21  23
HETATM   23  C5  UNL     1      18.883   2.002  49.771  1.00  0.00     0.236 C 
BRANCH  23  24
HETATM   24  N1  UNL     1      19.137   3.345  50.241  1.00  0.00    -0.392 N 
BRANCH  24  25
HETATM   25  C2  UNL     1      18.053   4.153  50.554  1.00  0.00     0.114 C 
HETATM   26  C1  UNL     1      17.124   3.653  51.625  1.00  0.00     0.026 C 
ENDBRANCH  24  25
BRANCH  24  27
HETATM   27  C3  UNL     1      20.428   3.859  50.060  1.00  0.00     0.188 C 
BRANCH  27  28
HETATM   28  C4  UNL     1      20.867   4.767  51.185  1.00  0.00     0.250 C 
HETATM   29  O1  UNL     1      21.875   4.813  51.863  1.00  0.00    -0.305 OA
ENDBRANCH  27  28
ENDBRANCH  24  27
ENDBRANCH  23  24
ENDBRANCH  21  23
ENDBRANCH   1  21
TORSDOF 7
ENDMDL
MODEL 9
REMARK VINA RESULT:      -6.7      2.864      5.753
REMARK  7 active torsions:
REMARK  status: ('A' for Active; 'I' for Inactive)
REMARK    1  A    between atoms: C2_2  and  N1_3 
REMARK    2  A    between atoms: N1_3  and  C3_4 
REMARK    3  A    between atoms: N1_3  and  C5_7 
REMARK    4  A    between atoms: C3_4  and  C4_5 
REMARK    5  A    between atoms: C5_7  and  N2_8 
REMARK    6  A    between atoms: N2_8  and  C6_9 
REMARK    7  A    between atoms: C10_14  and  C12_16 
ROOT
HETATM    1  C6  UNL     1      24.427   4.347  51.009  1.00  0.00     0.132 C 
HETATM    2  C7  UNL     1      23.419   4.562  49.933  1.00  0.00     0.024 C 
HETATM    3  C8  UNL     1      22.282   4.079  50.433  1.00  0.00    -0.000 C 
HETATM    4  C9  UNL     1      21.035   4.135  49.603  1.00  0.00     0.067 C 
HETATM    5  N3  UNL     1      22.393   3.544  51.755  1.00  0.00    -0.381 N 
HETATM    6  C10 UNL     1      23.845   3.269  51.834  1.00  0.00     0.066 C 
HETATM    7  C11 UNL     1      24.195   3.530  53.288  1.00  0.00     0.042 C 
HETATM    8  H17 UNL     1      21.548   3.451  52.349  1.00  0.00     0.160 HD
ENDROOT
BRANCH   6   9
HETATM    9  C12 UNL     1      24.047   1.876  51.383  1.00  0.00     0.143 A 
HETATM   10  C13 UNL     1      22.868   1.048  51.736  1.00  0.00     0.233 A 
HETATM   11  O2  UNL     1      21.642   0.931  51.423  1.00  0.00    -0.272 OA
HETATM   12  N4  UNL     1      23.189   0.067  52.743  1.00  0.00    -0.326 N 
HETATM   13  C14 UNL     1      24.585   0.176  53.064  1.00  0.00     0.042 A 
HETATM   14  H22 UNL     1      22.677  -0.684  53.284  1.00  0.00     0.169 HD
HETATM   15  C15 UNL     1      25.483  -0.453  53.884  1.00  0.00     0.032 A 
HETATM   16  C19 UNL     1      25.088   1.208  52.261  1.00  0.00    -0.014 A 
HETATM   17  C16 UNL     1      26.816  -0.166  53.988  1.00  0.00     0.026 A 
HETATM   18  C17 UNL     1      27.315   0.853  53.193  1.00  0.00     0.034 A 
HETATM   19 CL1  UNL     1      29.019   1.224  53.321  1.00  0.00    -0.084 Cl
HETATM   20  C18 UNL     1      26.437   1.506  52.357  1.00  0.00     0.034 A 
ENDBRANCH   6   9
BRANCH   1  21
HETATM   21  N2  UNL     1      25.767   4.350  50.643  1.00  0.00    -0.396 N 
HETATM   22  H11 UNL     1      26.449   4.246  51.414  1.00  0.00     0.155 HD
BRANCH  21  23
HETATM   23  C5  UNL     1      26.216   4.172  49.328  1.00  0.00     0.236 C 
BRANCH  23  24
HETATM   24  N1  UNL     1      26.983   5.303  48.858  1.00  0.00    -0.392 N 
BRANCH  24  25
HETATM   25  C2  UNL     1      28.295   5.092  48.459  1.00  0.00     0.114 C 
HETATM   26  C1  UNL     1      29.037   6.283  47.917  1.00  0.00     0.026 C 
ENDBRANCH  24  25
BRANCH  24  27
HETATM   27  C3  UNL     1      26.475   6.582  49.121  1.00  0.00     0.188 C 
BRANCH  27  28
HETATM   28  C4  UNL     1      25.429   7.020  48.122  1.00  0.00     0.250 C 
HETATM   29  O1  UNL     1      25.360   7.966  47.361  1.00  0.00    -0.305 OA
ENDBRANCH  27  28
ENDBRANCH  24  27
ENDBRANCH  23  24
ENDBRANCH  21  23
ENDBRANCH   1  21
TORSDOF 7
ENDMDL
