MODEL 1
REMARK VINA RESULT:      -7.8      0.000      0.000
REMARK  7 active torsions:
REMARK  status: ('A' for Active; 'I' for Inactive)
REMARK    1  A    between atoms: O1_2  and  C2_3 
REMARK    2  A    between atoms: N1_6  and  C5_7 
REMARK    3  A    between atoms: C5_7  and  N2_8 
REMARK    4  A    between atoms: N2_8  and  C6_9 
REMARK    5  A    between atoms: C13_18  and  O2_19 
REMARK    6  A    between atoms: O2_19  and  C14_20 
REMARK    7  A    between atoms: C14_20  and  C15_21 
ROOT
HETATM    1  C2  UNL     1      21.936   0.368  52.083  1.00  0.00     0.100 A 
HETATM    2  C3  UNL     1      21.142   0.616  51.053  1.00  0.00     0.032 A 
HETATM    3  C4  UNL     1      21.445   1.498  49.910  1.00  0.00     0.154 A 
HETATM    4  N1  UNL     1      22.768   2.053  50.106  1.00  0.00    -0.368 N 
HETATM    5  C12 UNL     1      23.670   1.832  51.179  1.00  0.00     0.127 A 
HETATM    6  C13 UNL     1      23.240   1.013  52.121  1.00  0.00     0.117 A 
ENDROOT
BRANCH   4   7
HETATM    7  C5  UNL     1      23.219   2.957  49.050  1.00  0.00     0.246 C 
BRANCH   7   8
HETATM    8  N2  UNL     1      23.878   4.086  49.703  1.00  0.00    -0.371 N 
HETATM    9  H9  UNL     1      23.506   4.573  50.526  1.00  0.00     0.161 HD
BRANCH   8  10
HETATM   10  C6  UNL     1      25.127   4.653  49.274  1.00  0.00     0.068 A 
HETATM   11  C7  UNL     1      25.035   5.965  48.805  1.00  0.00     0.034 A 
HETATM   12  C8  UNL     1      26.162   6.623  48.364  1.00  0.00     0.021 A 
HETATM   13  C9  UNL     1      27.402   5.985  48.383  1.00  0.00     0.014 A 
HETATM   14 BR1  UNL     1      29.039   6.787  47.801  1.00  0.00    -0.051 Br
HETATM   15  C10 UNL     1      27.481   4.685  48.850  1.00  0.00     0.063 A 
HETATM   16  C11 UNL     1      26.364   4.042  49.284  1.00  0.00     0.144 A 
HETATM   17  F1  UNL     1      26.316   2.776  49.761  1.00  0.00    -0.204 F 
ENDBRANCH   8  10
ENDBRANCH   7   8
ENDBRANCH   4   7
BRANCH   6  18
HETATM   18  O2  UNL     1      24.030   0.731  53.202  1.00  0.00    -0.346 OA
BRANCH  18  19
HETATM   19  C14 UNL     1      25.220   1.474  53.506  1.00  0.00     0.180 C 
BRANCH  19  20
HETATM   20  C15 UNL     1      26.288   0.449  53.752  1.00  0.00     0.013 C 
HETATM   21  C16 UNL     1      26.874  -0.145  52.486  1.00  0.00     0.026 C 
HETATM   22  C17 UNL     1      27.798  -1.252  52.961  1.00  0.00     0.117 C 
HETATM   23  N3  UNL     1      28.769  -0.834  53.905  1.00  0.00    -0.417 N 
HETATM   24  C18 UNL     1      30.086  -0.590  53.387  1.00  0.00     0.143 C 
HETATM   25  C19 UNL     1      28.349   0.033  54.946  1.00  0.00     0.117 C 
HETATM   26  C20 UNL     1      27.473   1.152  54.423  1.00  0.00     0.026 C 
ENDBRANCH  19  20
ENDBRANCH  18  19
ENDBRANCH   6  18
BRANCH   1  27
HETATM   27  O1  UNL     1      21.394  -0.500  53.012  1.00  0.00    -0.353 OA
HETATM   28  C1  UNL     1      20.763  -0.156  54.205  1.00  0.00     0.210 C 
ENDBRANCH   1  27
TORSDOF 7
ENDMDL
MODEL 2
REMARK VINA RESULT:      -7.6      1.192      1.660
REMARK  7 active torsions:
REMARK  status: ('A' for Active; 'I' for Inactive)
REMARK    1  A    between atoms: O1_2  and  C2_3 
REMARK    2  A    between atoms: N1_6  and  C5_7 
REMARK    3  A    between atoms: C5_7  and  N2_8 
REMARK    4  A    between atoms: N2_8  and  C6_9 
REMARK    5  A    between atoms: C13_18  and  O2_19 
REMARK    6  A    between atoms: O2_19  and  C14_20 
REMARK    7  A    between atoms: C14_20  and  C15_21 
ROOT
HETATM    1  C2  UNL     1      22.579   0.191  52.485  1.00  0.00     0.100 A 
HETATM    2  C3  UNL     1      21.684   0.204  51.511  1.00  0.00     0.032 A 
HETATM    3  C4  UNL     1      21.721   1.048  50.301  1.00  0.00     0.154 A 
HETATM    4  N1  UNL     1      22.912   1.868  50.360  1.00  0.00    -0.368 N 
HETATM    5  C12 UNL     1      23.911   1.907  51.367  1.00  0.00     0.127 A 
HETATM    6  C13 UNL     1      23.724   1.085  52.384  1.00  0.00     0.117 A 
ENDROOT
BRANCH   4   7
HETATM    7  C5  UNL     1      23.096   2.769  49.224  1.00  0.00     0.246 C 
BRANCH   7   8
HETATM    8  N2  UNL     1      23.606   4.032  49.754  1.00  0.00    -0.371 N 
HETATM    9  H9  UNL     1      23.135   4.584  50.481  1.00  0.00     0.161 HD
BRANCH   8  10
HETATM   10  C6  UNL     1      24.827   4.655  49.326  1.00  0.00     0.068 A 
HETATM   11  C7  UNL     1      25.957   3.838  49.421  1.00  0.00     0.034 A 
HETATM   12  C8  UNL     1      27.191   4.317  49.041  1.00  0.00     0.021 A 
HETATM   13  C9  UNL     1      27.323   5.620  48.560  1.00  0.00     0.014 A 
HETATM   14 BR1  UNL     1      28.977   6.403  48.001  1.00  0.00    -0.051 Br
HETATM   15  C10 UNL     1      26.198   6.419  48.472  1.00  0.00     0.063 A 
HETATM   16  C11 UNL     1      24.983   5.940  48.848  1.00  0.00     0.144 A 
HETATM   17  F1  UNL     1      23.815   6.625  48.807  1.00  0.00    -0.204 F 
ENDBRANCH   8  10
ENDBRANCH   7   8
ENDBRANCH   4   7
BRANCH   6  18
HETATM   18  O2  UNL     1      24.627   1.042  53.411  1.00  0.00    -0.346 OA
BRANCH  18  19
HETATM   19  C14 UNL     1      25.399   2.184  53.810  1.00  0.00     0.180 C 
BRANCH  19  20
HETATM   20  C15 UNL     1      26.778   1.663  54.092  1.00  0.00     0.013 C 
HETATM   21  C16 UNL     1      26.797   0.325  54.806  1.00  0.00     0.026 C 
HETATM   22  C17 UNL     1      28.258   0.072  55.130  1.00  0.00     0.117 C 
HETATM   23  N3  UNL     1      29.122   0.139  54.008  1.00  0.00    -0.417 N 
HETATM   24  C18 UNL     1      29.509  -1.120  53.436  1.00  0.00     0.143 C 
HETATM   25  C19 UNL     1      28.927   1.197  53.084  1.00  0.00     0.117 C 
HETATM   26  C20 UNL     1      27.461   1.383  52.749  1.00  0.00     0.026 C 
ENDBRANCH  19  20
ENDBRANCH  18  19
ENDBRANCH   6  18
BRANCH   1  27
HETATM   27  O1  UNL     1      22.291  -0.702  53.500  1.00  0.00    -0.353 OA
HETATM   28  C1  UNL     1      21.149  -0.717  54.297  1.00  0.00     0.210 C 
ENDBRANCH   1  27
TORSDOF 7
ENDMDL
MODEL 3
REMARK VINA RESULT:      -7.6      1.684      1.979
REMARK  7 active torsions:
REMARK  status: ('A' for Active; 'I' for Inactive)
REMARK    1  A    between atoms: O1_2  and  C2_3 
REMARK    2  A    between atoms: N1_6  and  C5_7 
REMARK    3  A    between atoms: C5_7  and  N2_8 
REMARK    4  A    between atoms: N2_8  and  C6_9 
REMARK    5  A    between atoms: C13_18  and  O2_19 
REMARK    6  A    between atoms: O2_19  and  C14_20 
REMARK    7  A    between atoms: C14_20  and  C15_21 
ROOT
HETATM    1  C2  UNL     1      20.914   2.596  52.367  1.00  0.00     0.100 A 
HETATM    2  C3  UNL     1      20.228   3.525  51.720  1.00  0.00     0.032 A 
HETATM    3  C4  UNL     1      20.790   4.690  51.011  1.00  0.00     0.154 A 
HETATM    4  N1  UNL     1      22.231   4.646  51.143  1.00  0.00    -0.368 N 
HETATM    5  C12 UNL     1      23.029   3.685  51.817  1.00  0.00     0.127 A 
HETATM    6  C13 UNL     1      22.365   2.705  52.401  1.00  0.00     0.117 A 
ENDROOT
BRANCH   4   7
HETATM    7  C5  UNL     1      22.943   5.742  50.490  1.00  0.00     0.246 C 
BRANCH   7   8
HETATM    8  N2  UNL     1      23.593   5.188  49.304  1.00  0.00    -0.371 N 
HETATM    9  H9  UNL     1      23.096   4.707  48.547  1.00  0.00     0.161 HD
BRANCH   8  10
HETATM   10  C6  UNL     1      25.006   5.250  49.052  1.00  0.00     0.068 A 
HETATM   11  C7  UNL     1      25.456   6.486  48.584  1.00  0.00     0.034 A 
HETATM   12  C8  UNL     1      26.792   6.676  48.304  1.00  0.00     0.021 A 
HETATM   13  C9  UNL     1      27.704   5.637  48.487  1.00  0.00     0.014 A 
HETATM   14 BR1  UNL     1      29.580   5.772  48.136  1.00  0.00    -0.051 Br
HETATM   15  C10 UNL     1      27.246   4.416  48.950  1.00  0.00     0.063 A 
HETATM   16  C11 UNL     1      25.927   4.236  49.224  1.00  0.00     0.144 A 
HETATM   17  F1  UNL     1      25.364   3.093  49.681  1.00  0.00    -0.204 F 
ENDBRANCH   8  10
ENDBRANCH   7   8
ENDBRANCH   4   7
BRANCH   6  18
HETATM   18  O2  UNL     1      23.037   1.725  53.080  1.00  0.00    -0.346 OA
BRANCH  18  19
HETATM   19  C14 UNL     1      23.961   0.835  52.439  1.00  0.00     0.180 C 
BRANCH  19  20
HETATM   20  C15 UNL     1      25.255   0.987  53.183  1.00  0.00     0.013 C 
HETATM   21  C16 UNL     1      25.611  -0.204  54.050  1.00  0.00     0.026 C 
HETATM   22  C17 UNL     1      26.846   0.223  54.821  1.00  0.00     0.117 C 
HETATM   23  N3  UNL     1      27.911   0.681  54.006  1.00  0.00    -0.417 N 
HETATM   24  C18 UNL     1      28.962  -0.265  53.754  1.00  0.00     0.143 C 
HETATM   25  C19 UNL     1      27.595   1.546  52.927  1.00  0.00     0.117 C 
HETATM   26  C20 UNL     1      26.388   1.056  52.153  1.00  0.00     0.026 C 
ENDBRANCH  19  20
ENDBRANCH  18  19
ENDBRANCH   6  18
BRANCH   1  27
HETATM   27  O1  UNL     1      20.126   1.616  52.942  1.00  0.00    -0.353 OA
HETATM   28  C1  UNL     1      19.683   0.442  52.338  1.00  0.00     0.210 C 
ENDBRANCH   1  27
TORSDOF 7
ENDMDL
MODEL 4
REMARK VINA RESULT:      -7.4      3.650      5.390
REMARK  7 active torsions:
REMARK  status: ('A' for Active; 'I' for Inactive)
REMARK    1  A    between atoms: O1_2  and  C2_3 
REMARK    2  A    between atoms: N1_6  and  C5_7 
REMARK    3  A    between atoms: C5_7  and  N2_8 
REMARK    4  A    between atoms: N2_8  and  C6_9 
REMARK    5  A    between atoms: C13_18  and  O2_19 
REMARK    6  A    between atoms: O2_19  and  C14_20 
REMARK    7  A    between atoms: C14_20  and  C15_21 
ROOT
HETATM    1  C2  UNL     1      24.819   5.430  50.159  1.00  0.00     0.100 A 
HETATM    2  C3  UNL     1      24.946   6.657  49.679  1.00  0.00     0.032 A 
HETATM    3  C4  UNL     1      26.076   7.170  48.881  1.00  0.00     0.154 A 
HETATM    4  N1  UNL     1      27.032   6.096  48.710  1.00  0.00    -0.368 N 
HETATM    5  C12 UNL     1      26.961   4.763  49.193  1.00  0.00     0.127 A 
HETATM    6  C13 UNL     1      25.880   4.470  49.891  1.00  0.00     0.117 A 
ENDROOT
BRANCH   4   7
HETATM    7  C5  UNL     1      28.220   6.447  47.935  1.00  0.00     0.246 C 
BRANCH   7   8
HETATM    8  N2  UNL     1      29.337   6.529  48.873  1.00  0.00    -0.371 N 
HETATM    9  H9  UNL     1      29.292   7.002  49.783  1.00  0.00     0.161 HD
BRANCH   8  10
HETATM   10  C6  UNL     1      30.635   5.959  48.639  1.00  0.00     0.068 A 
HETATM   11  C7  UNL     1      30.659   4.956  47.668  1.00  0.00     0.034 A 
HETATM   12  C8  UNL     1      31.843   4.328  47.350  1.00  0.00     0.021 A 
HETATM   13  C9  UNL     1      33.026   4.690  47.993  1.00  0.00     0.014 A 
HETATM   14 BR1  UNL     1      34.733   3.897  47.643  1.00  0.00    -0.051 Br
HETATM   15  C10 UNL     1      32.990   5.685  48.953  1.00  0.00     0.063 A 
HETATM   16  C11 UNL     1      31.818   6.299  49.263  1.00  0.00     0.144 A 
HETATM   17  F1  UNL     1      31.659   7.283  50.180  1.00  0.00    -0.204 F 
ENDBRANCH   8  10
ENDBRANCH   7   8
ENDBRANCH   4   7
BRANCH   6  18
HETATM   18  O2  UNL     1      25.711   3.213  50.405  1.00  0.00    -0.346 OA
BRANCH  18  19
HETATM   19  C14 UNL     1      26.725   2.547  51.171  1.00  0.00     0.180 C 
BRANCH  19  20
HETATM   20  C15 UNL     1      26.077   1.306  51.710  1.00  0.00     0.013 C 
HETATM   21  C16 UNL     1      27.034   0.376  52.430  1.00  0.00     0.026 C 
HETATM   22  C17 UNL     1      26.217  -0.865  52.743  1.00  0.00     0.117 C 
HETATM   23  N3  UNL     1      25.018  -0.608  53.455  1.00  0.00    -0.417 N 
HETATM   24  C18 UNL     1      25.063  -0.844  54.870  1.00  0.00     0.143 C 
HETATM   25  C19 UNL     1      24.228   0.496  53.043  1.00  0.00     0.117 C 
HETATM   26  C20 UNL     1      25.075   1.727  52.791  1.00  0.00     0.026 C 
ENDBRANCH  19  20
ENDBRANCH  18  19
ENDBRANCH   6  18
BRANCH   1  27
HETATM   27  O1  UNL     1      23.653   5.226  50.874  1.00  0.00    -0.353 OA
HETATM   28  C1  UNL     1      23.541   5.053  52.251  1.00  0.00     0.210 C 
ENDBRANCH   1  27
TORSDOF 7
ENDMDL
MODEL 5
REMARK VINA RESULT:      -7.3      5.247      8.324
REMARK  7 active torsions:
REMARK  status: ('A' for Active; 'I' for Inactive)
REMARK    1  A    between atoms: O1_2  and  C2_3 
REMARK    2  A    between atoms: N1_6  and  C5_7 
REMARK    3  A    between atoms: C5_7  and  N2_8 
REMARK    4  A    between atoms: N2_8  and  C6_9 
REMARK    5  A    between atoms: C13_18  and  O2_19 
REMARK    6  A    between atoms: O2_19  and  C14_20 
REMARK    7  A    between atoms: C14_20  and  C15_21 
ROOT
HETATM    1  C2  UNL     1      28.418   7.385  48.419  1.00  0.00     0.100 A 
HETATM    2  C3  UNL     1      27.179   7.552  48.855  1.00  0.00     0.032 A 
HETATM    3  C4  UNL     1      26.226   6.483  49.209  1.00  0.00     0.154 A 
HETATM    4  N1  UNL     1      26.879   5.209  48.997  1.00  0.00    -0.368 N 
HETATM    5  C12 UNL     1      28.197   4.955  48.536  1.00  0.00     0.127 A 
HETATM    6  C13 UNL     1      28.918   6.027  48.263  1.00  0.00     0.117 A 
ENDROOT
BRANCH   4   7
HETATM    7  C5  UNL     1      26.059   4.038  49.304  1.00  0.00     0.246 C 
BRANCH   7   8
HETATM    8  N2  UNL     1      26.044   3.892  50.758  1.00  0.00    -0.371 N 
HETATM    9  H9  UNL     1      26.546   4.511  51.405  1.00  0.00     0.161 HD
BRANCH   8  10
HETATM   10  C6  UNL     1      25.325   2.866  51.461  1.00  0.00     0.068 A 
HETATM   11  C7  UNL     1      24.058   3.250  51.905  1.00  0.00     0.034 A 
HETATM   12  C8  UNL     1      23.265   2.358  52.594  1.00  0.00     0.021 A 
HETATM   13  C9  UNL     1      23.722   1.066  52.851  1.00  0.00     0.014 A 
HETATM   14 BR1  UNL     1      22.720  -0.265  53.794  1.00  0.00    -0.051 Br
HETATM   15  C10 UNL     1      24.978   0.697  52.407  1.00  0.00     0.063 A 
HETATM   16  C11 UNL     1      25.755   1.583  51.729  1.00  0.00     0.144 A 
HETATM   17  F1  UNL     1      26.996   1.338  51.246  1.00  0.00    -0.204 F 
ENDBRANCH   8  10
ENDBRANCH   7   8
ENDBRANCH   4   7
BRANCH   6  18
HETATM   18  O2  UNL     1      30.203   5.897  47.811  1.00  0.00    -0.346 OA
BRANCH  18  19
HETATM   19  C14 UNL     1      31.345   6.079  48.660  1.00  0.00     0.180 C 
BRANCH  19  20
HETATM   20  C15 UNL     1      32.278   4.950  48.335  1.00  0.00     0.013 C 
HETATM   21  C16 UNL     1      31.928   4.211  47.059  1.00  0.00     0.026 C 
HETATM   22  C17 UNL     1      32.883   3.032  47.010  1.00  0.00     0.117 C 
HETATM   23  N3  UNL     1      34.252   3.388  47.114  1.00  0.00    -0.417 N 
HETATM   24  C18 UNL     1      34.984   3.439  45.880  1.00  0.00     0.143 C 
HETATM   25  C19 UNL     1      34.610   4.364  48.079  1.00  0.00     0.117 C 
HETATM   26  C20 UNL     1      33.663   5.546  48.059  1.00  0.00     0.026 C 
ENDBRANCH  19  20
ENDBRANCH  18  19
ENDBRANCH   6  18
BRANCH   1  27
HETATM   27  O1  UNL     1      29.086   8.568  48.164  1.00  0.00    -0.353 OA
HETATM   28  C1  UNL     1      29.601   9.454  49.107  1.00  0.00     0.210 C 
ENDBRANCH   1  27
TORSDOF 7
ENDMDL
MODEL 6
REMARK VINA RESULT:      -7.3      1.932      2.342
REMARK  7 active torsions:
REMARK  status: ('A' for Active; 'I' for Inactive)
REMARK    1  A    between atoms: O1_2  and  C2_3 
REMARK    2  A    between atoms: N1_6  and  C5_7 
REMARK    3  A    between atoms: C5_7  and  N2_8 
REMARK    4  A    between atoms: N2_8  and  C6_9 
REMARK    5  A    between atoms: C13_18  and  O2_19 
REMARK    6  A    between atoms: O2_19  and  C14_20 
REMARK    7  A    between atoms: C14_20  and  C15_21 
ROOT
HETATM    1  C2  UNL     1      21.040   1.800  51.947  1.00  0.00     0.100 A 
HETATM    2  C3  UNL     1      20.275   2.871  51.812  1.00  0.00     0.032 A 
HETATM    3  C4  UNL     1      20.732   4.235  51.483  1.00  0.00     0.154 A 
HETATM    4  N1  UNL     1      22.171   4.204  51.330  1.00  0.00    -0.368 N 
HETATM    5  C12 UNL     1      23.051   3.098  51.458  1.00  0.00     0.127 A 
HETATM    6  C13 UNL     1      22.476   1.948  51.757  1.00  0.00     0.117 A 
ENDROOT
BRANCH   4   7
HETATM    7  C5  UNL     1      22.783   5.490  51.000  1.00  0.00     0.246 C 
BRANCH   7   8
HETATM    8  N2  UNL     1      24.219   5.356  51.236  1.00  0.00    -0.371 N 
HETATM    9  H9  UNL     1      24.627   4.888  52.053  1.00  0.00     0.161 HD
BRANCH   8  10
HETATM   10  C6  UNL     1      25.235   5.861  50.355  1.00  0.00     0.068 A 
HETATM   11  C7  UNL     1      25.907   4.879  49.625  1.00  0.00     0.034 A 
HETATM   12  C8  UNL     1      26.905   5.232  48.743  1.00  0.00     0.021 A 
HETATM   13  C9  UNL     1      27.250   6.573  48.572  1.00  0.00     0.014 A 
HETATM   14 BR1  UNL     1      28.614   7.194  47.382  1.00  0.00    -0.051 Br
HETATM   15  C10 UNL     1      26.577   7.537  49.301  1.00  0.00     0.063 A 
HETATM   16  C11 UNL     1      25.594   7.180  50.170  1.00  0.00     0.144 A 
HETATM   17  F1  UNL     1      24.869   8.031  50.934  1.00  0.00    -0.204 F 
ENDBRANCH   8  10
ENDBRANCH   7   8
ENDBRANCH   4   7
BRANCH   6  18
HETATM   18  O2  UNL     1      23.232   0.817  51.904  1.00  0.00    -0.346 OA
BRANCH  18  19
HETATM   19  C14 UNL     1      23.868   0.466  53.142  1.00  0.00     0.180 C 
BRANCH  19  20
HETATM   20  C15 UNL     1      25.342   0.586  52.890  1.00  0.00     0.013 C 
HETATM   21  C16 UNL     1      25.988   1.777  53.571  1.00  0.00     0.026 C 
HETATM   22  C17 UNL     1      27.417   1.797  53.059  1.00  0.00     0.117 C 
HETATM   23  N3  UNL     1      28.117   0.578  53.241  1.00  0.00    -0.417 N 
HETATM   24  C18 UNL     1      29.011   0.528  54.365  1.00  0.00     0.143 C 
HETATM   25  C19 UNL     1      27.433  -0.629  52.949  1.00  0.00     0.117 C 
HETATM   26  C20 UNL     1      26.030  -0.629  53.522  1.00  0.00     0.026 C 
ENDBRANCH  19  20
ENDBRANCH  18  19
ENDBRANCH   6  18
BRANCH   1  27
HETATM   27  O1  UNL     1      20.343   0.648  52.260  1.00  0.00    -0.353 OA
HETATM   28  C1  UNL     1      20.177   0.093  53.527  1.00  0.00     0.210 C 
ENDBRANCH   1  27
TORSDOF 7
ENDMDL
MODEL 7
REMARK VINA RESULT:      -7.2      3.652      7.695
REMARK  7 active torsions:
REMARK  status: ('A' for Active; 'I' for Inactive)
REMARK    1  A    between atoms: O1_2  and  C2_3 
REMARK    2  A    between atoms: N1_6  and  C5_7 
REMARK    3  A    between atoms: C5_7  and  N2_8 
REMARK    4  A    between atoms: N2_8  and  C6_9 
REMARK    5  A    between atoms: C13_18  and  O2_19 
REMARK    6  A    between atoms: O2_19  and  C14_20 
REMARK    7  A    between atoms: C14_20  and  C15_21 
ROOT
HETATM    1  C2  UNL     1      26.617   1.330  53.899  1.00  0.00     0.100 A 
HETATM    2  C3  UNL     1      26.430   0.236  54.620  1.00  0.00     0.032 A 
HETATM    3  C4  UNL     1      25.254  -0.653  54.569  1.00  0.00     0.154 A 
HETATM    4  N1  UNL     1      24.331  -0.123  53.588  1.00  0.00    -0.368 N 
HETATM    5  C12 UNL     1      24.465   1.037  52.781  1.00  0.00     0.127 A 
HETATM    6  C13 UNL     1      25.582   1.721  52.954  1.00  0.00     0.117 A 
ENDROOT
BRANCH   4   7
HETATM    7  C5  UNL     1      23.102  -0.897  53.417  1.00  0.00     0.246 C 
BRANCH   7   8
HETATM    8  N2  UNL     1      21.984   0.029  53.580  1.00  0.00    -0.371 N 
HETATM    9  H9  UNL     1      21.950   0.774  54.285  1.00  0.00     0.161 HD
BRANCH   8  10
HETATM   10  C6  UNL     1      20.795   0.011  52.773  1.00  0.00     0.068 A 
HETATM   11  C7  UNL     1      19.674  -0.531  53.407  1.00  0.00     0.034 A 
HETATM   12  C8  UNL     1      18.470  -0.605  52.742  1.00  0.00     0.021 A 
HETATM   13  C9  UNL     1      18.361  -0.139  51.432  1.00  0.00     0.014 A 
HETATM   14 BR1  UNL     1      16.750  -0.185  50.400  1.00  0.00    -0.051 Br
HETATM   15  C10 UNL     1      19.477   0.395  50.814  1.00  0.00     0.063 A 
HETATM   16  C11 UNL     1      20.662   0.465  51.477  1.00  0.00     0.144 A 
HETATM   17  F1  UNL     1      21.818   0.965  50.979  1.00  0.00    -0.204 F 
ENDBRANCH   8  10
ENDBRANCH   7   8
ENDBRANCH   4   7
BRANCH   6  18
HETATM   18  O2  UNL     1      25.813   2.857  52.227  1.00  0.00    -0.346 OA
BRANCH  18  19
HETATM   19  C14 UNL     1      25.905   2.854  50.795  1.00  0.00     0.180 C 
BRANCH  19  20
HETATM   20  C15 UNL     1      24.965   3.926  50.326  1.00  0.00     0.013 C 
HETATM   21  C16 UNL     1      25.528   4.797  49.221  1.00  0.00     0.026 C 
HETATM   22  C17 UNL     1      24.497   5.892  49.018  1.00  0.00     0.117 C 
HETATM   23  N3  UNL     1      23.186   5.417  48.765  1.00  0.00    -0.417 N 
HETATM   24  C18 UNL     1      22.772   5.411  47.390  1.00  0.00     0.143 C 
HETATM   25  C19 UNL     1      22.711   4.336  49.552  1.00  0.00     0.117 C 
HETATM   26  C20 UNL     1      23.751   3.243  49.686  1.00  0.00     0.026 C 
ENDBRANCH  19  20
ENDBRANCH  18  19
ENDBRANCH   6  18
BRANCH   1  27
HETATM   27  O1  UNL     1      27.815   1.971  54.154  1.00  0.00    -0.353 OA
HETATM   28  C1  UNL     1      29.067   1.376  54.290  1.00  0.00     0.210 C 
ENDBRANCH   1  27
TORSDOF 7
ENDMDL
MODEL 8
REMARK VINA RESULT:      -7.1      3.657      5.717
REMARK  7 active torsions:
REMARK  status: ('A' for Active; 'I' for Inactive)
REMARK    1  A    between atoms: O1_2  and  C2_3 
REMARK    2  A    between atoms: N1_6  and  C5_7 
REMARK    3  A    between atoms: C5_7  and  N2_8 
REMARK    4  A    between atoms: N2_8  and  C6_9 
REMARK    5  A    between atoms: C13_18  and  O2_19 
REMARK    6  A    between atoms: O2_19  and  C14_20 
REMARK    7  A    between atoms: C14_20  and  C15_21 
ROOT
HETATM    1  C2  UNL     1      24.973   5.132  49.644  1.00  0.00     0.100 A 
HETATM    2  C3  UNL     1      25.322   6.275  49.076  1.00  0.00     0.032 A 
HETATM    3  C4  UNL     1      26.634   6.590  48.481  1.00  0.00     0.154 A 
HETATM    4  N1  UNL     1      27.485   5.427  48.623  1.00  0.00    -0.368 N 
HETATM    5  C12 UNL     1      27.180   4.175  49.217  1.00  0.00     0.127 A 
HETATM    6  C13 UNL     1      25.957   4.061  49.703  1.00  0.00     0.117 A 
ENDROOT
BRANCH   4   7
HETATM    7  C5  UNL     1      28.833   5.580  48.079  1.00  0.00     0.246 C 
BRANCH   7   8
HETATM    8  N2  UNL     1      29.573   6.444  48.996  1.00  0.00    -0.371 N 
HETATM    9  H9  UNL     1      29.656   6.277  50.005  1.00  0.00     0.161 HD
BRANCH   8  10
HETATM   10  C6  UNL     1      30.275   7.632  48.598  1.00  0.00     0.068 A 
HETATM   11  C7  UNL     1      31.379   7.403  47.773  1.00  0.00     0.034 A 
HETATM   12  C8  UNL     1      32.138   8.460  47.322  1.00  0.00     0.021 A 
HETATM   13  C9  UNL     1      31.811   9.766  47.685  1.00  0.00     0.014 A 
HETATM   14 BR1  UNL     1      32.782  11.318  47.126  1.00  0.00    -0.051 Br
HETATM   15  C10 UNL     1      30.716   9.981  48.502  1.00  0.00     0.063 A 
HETATM   16  C11 UNL     1      29.972   8.933  48.944  1.00  0.00     0.144 A 
HETATM   17  F1  UNL     1      28.883   9.019  49.744  1.00  0.00    -0.204 F 
ENDBRANCH   8  10
ENDBRANCH   7   8
ENDBRANCH   4   7
BRANCH   6  18
HETATM   18  O2  UNL     1      25.558   2.895  50.297  1.00  0.00    -0.346 OA
BRANCH  18  19
HETATM   19  C14 UNL     1      26.316   2.255  51.333  1.00  0.00     0.180 C 
BRANCH  19  20
HETATM   20  C15 UNL     1      25.306   1.719  52.305  1.00  0.00     0.013 C 
HETATM   21  C16 UNL     1      23.879   1.762  51.795  1.00  0.00     0.026 C 
HETATM   22  C17 UNL     1      23.025   1.334  52.975  1.00  0.00     0.117 C 
HETATM   23  N3  UNL     1      23.398   0.089  53.541  1.00  0.00    -0.417 N 
HETATM   24  C18 UNL     1      22.605  -1.043  53.150  1.00  0.00     0.143 C 
HETATM   25  C19 UNL     1      24.781  -0.167  53.725  1.00  0.00     0.117 C 
HETATM   26  C20 UNL     1      25.590   0.226  52.506  1.00  0.00     0.026 C 
ENDBRANCH  19  20
ENDBRANCH  18  19
ENDBRANCH   6  18
BRANCH   1  27
HETATM   27  O1  UNL     1      23.675   5.115  50.119  1.00  0.00    -0.353 OA
HETATM   28  C1  UNL     1      23.251   5.475  51.396  1.00  0.00     0.210 C 
ENDBRANCH   1  27
TORSDOF 7
ENDMDL
MODEL 9
REMARK VINA RESULT:      -7.1      3.888      6.548
REMARK  7 active torsions:
REMARK  status: ('A' for Active; 'I' for Inactive)
REMARK    1  A    between atoms: O1_2  and  C2_3 
REMARK    2  A    between atoms: N1_6  and  C5_7 
REMARK    3  A    between atoms: C5_7  and  N2_8 
REMARK    4  A    between atoms: N2_8  and  C6_9 
REMARK    5  A    between atoms: C13_18  and  O2_19 
REMARK    6  A    between atoms: O2_19  and  C14_20 
REMARK    7  A    between atoms: C14_20  and  C15_21 
ROOT
HETATM    1  C2  UNL     1      24.455   3.063  49.776  1.00  0.00     0.100 A 
HETATM    2  C3  UNL     1      23.521   3.628  49.028  1.00  0.00     0.032 A 
HETATM    3  C4  UNL     1      22.069   3.617  49.287  1.00  0.00     0.154 A 
HETATM    4  N1  UNL     1      21.834   2.876  50.509  1.00  0.00    -0.368 N 
HETATM    5  C12 UNL     1      22.781   2.248  51.358  1.00  0.00     0.127 A 
HETATM    6  C13 UNL     1      24.042   2.353  50.978  1.00  0.00     0.117 A 
ENDROOT
BRANCH   4   7
HETATM    7  C5  UNL     1      20.432   2.772  50.906  1.00  0.00     0.246 C 
BRANCH   7   8
HETATM    8  N2  UNL     1      20.408   2.226  52.261  1.00  0.00    -0.371 N 
HETATM    9  H9  UNL     1      20.827   2.687  53.076  1.00  0.00     0.161 HD
BRANCH   8  10
HETATM   10  C6  UNL     1      19.793   0.977  52.620  1.00  0.00     0.068 A 
HETATM   11  C7  UNL     1      18.670   0.646  51.858  1.00  0.00     0.034 A 
HETATM   12  C8  UNL     1      17.989  -0.526  52.101  1.00  0.00     0.021 A 
HETATM   13  C9  UNL     1      18.416  -1.391  53.109  1.00  0.00     0.014 A 
HETATM   14 BR1  UNL     1      17.559  -3.046  53.546  1.00  0.00    -0.051 Br
HETATM   15  C10 UNL     1      19.528  -1.052  53.858  1.00  0.00     0.063 A 
HETATM   16  C11 UNL     1      20.195   0.107  53.611  1.00  0.00     0.144 A 
HETATM   17  F1  UNL     1      21.293   0.543  54.274  1.00  0.00    -0.204 F 
ENDBRANCH   8  10
ENDBRANCH   7   8
ENDBRANCH   4   7
BRANCH   6  18
HETATM   18  O2  UNL     1      25.037   1.784  51.725  1.00  0.00    -0.346 OA
BRANCH  18  19
HETATM   19  C14 UNL     1      24.842   1.367  53.084  1.00  0.00     0.180 C 
BRANCH  19  20
HETATM   20  C15 UNL     1      26.212   1.321  53.695  1.00  0.00     0.013 C 
HETATM   21  C16 UNL     1      26.596  -0.039  54.244  1.00  0.00     0.026 C 
HETATM   22  C17 UNL     1      27.923   0.179  54.946  1.00  0.00     0.117 C 
HETATM   23  N3  UNL     1      28.920   0.774  54.133  1.00  0.00    -0.417 N 
HETATM   24  C18 UNL     1      29.891  -0.122  53.570  1.00  0.00     0.143 C 
HETATM   25  C19 UNL     1      28.537   1.860  53.304  1.00  0.00     0.117 C 
HETATM   26  C20 UNL     1      27.234   1.580  52.583  1.00  0.00     0.026 C 
ENDBRANCH  19  20
ENDBRANCH  18  19
ENDBRANCH   6  18
BRANCH   1  27
HETATM   27  O1  UNL     1      25.739   3.231  49.293  1.00  0.00    -0.353 OA
HETATM   28  C1  UNL     1      26.627   4.252  49.624  1.00  0.00     0.210 C 
ENDBRANCH   1  27
TORSDOF 7
ENDMDL
