MODEL 1
REMARK VINA RESULT:      -8.0      0.000      0.000
REMARK  10 active torsions:
REMARK  status: ('A' for Active; 'I' for Inactive)
REMARK    1  A    between atoms: C2_2  and  C3_3 
REMARK    2  A    between atoms: C3_3  and  C4_4 
REMARK    3  A    between atoms: C4_4  and  N1_5 
REMARK    4  A    between atoms: C4_4  and  C5_6 
REMARK    5  A    between atoms: C5_6  and  C6_7 
REMARK    6  A    between atoms: C6_7  and  N2_8 
REMARK    7  A    between atoms: N2_8  and  C7_9 
REMARK    8  A    between atoms: C8_11  and  N4_12 
REMARK    9  A    between atoms: N4_12  and  C9_13 
REMARK   10  A    between atoms: N6_23  and  C17_24 
ROOT
HETATM    1  C7  UNL     1      24.862   2.596  53.384  1.00  0.00     0.726 A 
HETATM    2  N3  UNL     1      23.938   1.633  53.265  1.00  0.00    -0.043 NA
HETATM    3  C8  UNL     1      24.238   0.325  53.232  1.00  0.00     0.180 A 
HETATM    4  C15 UNL     1      25.551  -0.086  53.326  1.00  0.00     0.151 A 
HETATM    5  N5  UNL     1      26.152  -1.305  53.321  1.00  0.00    -0.236 NA
HETATM    6  C16 UNL     1      27.469  -1.090  53.441  1.00  0.00     0.212 A 
HETATM    7  N6  UNL     1      27.694   0.233  53.519  1.00  0.00    -0.324 N 
HETATM    8  C19 UNL     1      26.505   0.904  53.450  1.00  0.00     0.182 A 
HETATM    9  N7  UNL     1      26.172   2.227  53.479  1.00  0.00    -0.042 NA
ENDROOT
BRANCH   1  10
HETATM   10  N2  UNL     1      24.471   3.962  53.403  1.00  0.00    -0.222 N 
HETATM   11  H15 UNL     1      24.839   4.589  54.128  1.00  0.00     0.177 HD
BRANCH  10  12
HETATM   12  C6  UNL     1      23.547   4.548  52.424  1.00  0.00     0.140 C 
BRANCH  12  13
HETATM   13  C5  UNL     1      24.114   4.523  51.045  1.00  0.00     0.055 C 
BRANCH  13  14
HETATM   14  C4  UNL     1      24.441   5.903  50.596  1.00  0.00     0.219 C 
BRANCH  14  15
HETATM   15  C3  UNL     1      25.633   6.073  49.735  1.00  0.00     0.035 C 
BRANCH  15  16
HETATM   16  C2  UNL     1      26.283   4.776  49.326  1.00  0.00    -0.002 C 
HETATM   17  C1  UNL     1      27.607   4.984  48.638  1.00  0.00     0.005 C 
ENDBRANCH  15  16
ENDBRANCH  14  15
BRANCH  14  18
HETATM   18  N1  UNL     1      24.425   6.846  51.714  1.00  0.00     0.083 N 
HETATM   19  H9  UNL     1      24.408   6.356  52.631  1.00  0.00     0.313 HD
HETATM   20  H10 UNL     1      23.691   7.564  51.607  1.00  0.00     0.313 HD
ENDBRANCH  14  18
ENDBRANCH  13  14
ENDBRANCH  12  13
ENDBRANCH  10  12
ENDBRANCH   1  10
BRANCH   3  21
HETATM   21  N4  UNL     1      23.267  -0.703  53.110  1.00  0.00    -0.338 N 
HETATM   22  H16 UNL     1      23.646  -1.697  53.151  1.00  0.00     0.167 HD
BRANCH  21  23
HETATM   23  C9  UNL     1      21.877  -0.531  52.942  1.00  0.00     0.035 A 
HETATM   24  C10 UNL     1      20.924  -0.903  53.877  1.00  0.00     0.029 A 
HETATM   25  C11 UNL     1      19.628  -0.639  53.508  1.00  0.00     0.004 A 
HETATM   26  C12 UNL     1      19.201  -0.058  52.341  1.00  0.00     0.024 A 
HETATM   27  C13 UNL     1      20.170   0.316  51.402  1.00  0.00     0.036 A 
HETATM   28 CL1  UNL     1      19.688   1.054  49.908  1.00  0.00    -0.084 Cl
HETATM   29  C14 UNL     1      21.500   0.063  51.738  1.00  0.00     0.053 A 
ENDBRANCH  21  23
ENDBRANCH   3  21
BRANCH   7  30
HETATM   30  C17 UNL     1      29.012   0.831  53.658  1.00  0.00     0.127 C 
HETATM   31  C18 UNL     1      29.998  -0.331  53.501  1.00  0.00     0.027 C 
ENDBRANCH   7  30
TORSDOF 10
ENDMDL
MODEL 2
REMARK VINA RESULT:      -7.8      2.709      5.891
REMARK  10 active torsions:
REMARK  status: ('A' for Active; 'I' for Inactive)
REMARK    1  A    between atoms: C2_2  and  C3_3 
REMARK    2  A    between atoms: C3_3  and  C4_4 
REMARK    3  A    between atoms: C4_4  and  N1_5 
REMARK    4  A    between atoms: C4_4  and  C5_6 
REMARK    5  A    between atoms: C5_6  and  C6_7 
REMARK    6  A    between atoms: C6_7  and  N2_8 
REMARK    7  A    between atoms: N2_8  and  C7_9 
REMARK    8  A    between atoms: C8_11  and  N4_12 
REMARK    9  A    between atoms: N4_12  and  C9_13 
REMARK   10  A    between atoms: N6_23  and  C17_24 
ROOT
HETATM    1  C7  UNL     1      23.463   1.348  51.630  1.00  0.00     0.726 A 
HETATM    2  N3  UNL     1      24.449   0.856  52.391  1.00  0.00    -0.043 NA
HETATM    3  C8  UNL     1      24.239   0.003  53.406  1.00  0.00     0.180 A 
HETATM    4  C15 UNL     1      22.959  -0.412  53.708  1.00  0.00     0.151 A 
HETATM    5  N5  UNL     1      22.443  -1.244  54.650  1.00  0.00    -0.236 NA
HETATM    6  C16 UNL     1      21.116  -1.266  54.465  1.00  0.00     0.212 A 
HETATM    7  N6  UNL     1      20.802  -0.466  53.431  1.00  0.00    -0.324 N 
HETATM    8  C19 UNL     1      21.941   0.094  52.924  1.00  0.00     0.182 A 
HETATM    9  N7  UNL     1      22.183   0.962  51.899  1.00  0.00    -0.042 NA
ENDROOT
BRANCH   1  10
HETATM   10  N2  UNL     1      23.760   2.255  50.576  1.00  0.00    -0.222 N 
HETATM   11  H15 UNL     1      23.792   1.919  49.606  1.00  0.00     0.177 HD
BRANCH  10  12
HETATM   12  C6  UNL     1      24.032   3.681  50.795  1.00  0.00     0.140 C 
BRANCH  12  13
HETATM   13  C5  UNL     1      24.551   4.340  49.562  1.00  0.00     0.055 C 
BRANCH  13  14
HETATM   14  C4  UNL     1      25.926   4.860  49.795  1.00  0.00     0.219 C 
BRANCH  14  15
HETATM   15  C3  UNL     1      26.609   5.507  48.652  1.00  0.00     0.035 C 
BRANCH  15  16
HETATM   16  C2  UNL     1      28.058   5.117  48.504  1.00  0.00    -0.002 C 
HETATM   17  C1  UNL     1      28.944   6.293  48.189  1.00  0.00     0.005 C 
ENDBRANCH  15  16
ENDBRANCH  14  15
BRANCH  14  18
HETATM   18  N1  UNL     1      26.769   3.865  50.456  1.00  0.00     0.083 N 
HETATM   19  H9  UNL     1      26.447   3.671  51.426  1.00  0.00     0.313 HD
HETATM   20  H10 UNL     1      27.772   4.095  50.383  1.00  0.00     0.313 HD
ENDBRANCH  14  18
ENDBRANCH  13  14
ENDBRANCH  12  13
ENDBRANCH  10  12
ENDBRANCH   1  10
BRANCH   3  21
HETATM   21  N4  UNL     1      25.277  -0.528  54.216  1.00  0.00    -0.338 N 
HETATM   22  H16 UNL     1      24.961  -0.966  55.134  1.00  0.00     0.167 HD
BRANCH  21  23
HETATM   23  C9  UNL     1      26.656  -0.527  53.923  1.00  0.00     0.035 A 
HETATM   24  C10 UNL     1      27.306  -1.525  53.215  1.00  0.00     0.029 A 
HETATM   25  C11 UNL     1      28.653  -1.319  53.041  1.00  0.00     0.004 A 
HETATM   26  C12 UNL     1      29.391  -0.252  53.486  1.00  0.00     0.024 A 
HETATM   27  C13 UNL     1      28.727   0.753  54.200  1.00  0.00     0.036 A 
HETATM   28 CL1  UNL     1      29.610   2.126  54.788  1.00  0.00    -0.084 Cl
HETATM   29  C14 UNL     1      27.357   0.581  54.399  1.00  0.00     0.053 A 
ENDBRANCH  21  23
ENDBRANCH   3  21
BRANCH   7  30
HETATM   30  C17 UNL     1      19.448  -0.250  52.947  1.00  0.00     0.127 C 
HETATM   31  C18 UNL     1      18.651  -1.467  53.430  1.00  0.00     0.027 C 
ENDBRANCH   7  30
TORSDOF 10
ENDMDL
MODEL 3
REMARK VINA RESULT:      -7.7      1.951      5.167
REMARK  10 active torsions:
REMARK  status: ('A' for Active; 'I' for Inactive)
REMARK    1  A    between atoms: C2_2  and  C3_3 
REMARK    2  A    between atoms: C3_3  and  C4_4 
REMARK    3  A    between atoms: C4_4  and  N1_5 
REMARK    4  A    between atoms: C4_4  and  C5_6 
REMARK    5  A    between atoms: C5_6  and  C6_7 
REMARK    6  A    between atoms: C6_7  and  N2_8 
REMARK    7  A    between atoms: N2_8  and  C7_9 
REMARK    8  A    between atoms: C8_11  and  N4_12 
REMARK    9  A    between atoms: N4_12  and  C9_13 
REMARK   10  A    between atoms: N6_23  and  C17_24 
ROOT
HETATM    1  C7  UNL     1      24.702  -0.073  53.486  1.00  0.00     0.726 A 
HETATM    2  N3  UNL     1      24.460   1.093  52.871  1.00  0.00    -0.043 NA
HETATM    3  C8  UNL     1      25.416   1.999  52.609  1.00  0.00     0.180 A 
HETATM    4  C15 UNL     1      26.723   1.751  52.973  1.00  0.00     0.151 A 
HETATM    5  N5  UNL     1      27.879   2.455  52.848  1.00  0.00    -0.236 NA
HETATM    6  C16 UNL     1      28.848   1.710  53.394  1.00  0.00     0.212 A 
HETATM    7  N6  UNL     1      28.319   0.563  53.852  1.00  0.00    -0.324 N 
HETATM    8  C19 UNL     1      26.974   0.550  53.606  1.00  0.00     0.182 A 
HETATM    9  N7  UNL     1      25.983  -0.353  53.862  1.00  0.00    -0.042 NA
ENDROOT
BRANCH   1  10
HETATM   10  N2  UNL     1      23.637  -0.980  53.738  1.00  0.00    -0.222 N 
HETATM   11  H15 UNL     1      23.593  -1.871  53.228  1.00  0.00     0.177 HD
BRANCH  10  12
HETATM   12  C6  UNL     1      22.568  -0.716  54.708  1.00  0.00     0.140 C 
BRANCH  12  13
HETATM   13  C5  UNL     1      21.333  -1.491  54.394  1.00  0.00     0.055 C 
BRANCH  13  14
HETATM   14  C4  UNL     1      20.408  -0.673  53.563  1.00  0.00     0.219 C 
BRANCH  14  15
HETATM   15  C3  UNL     1      20.582   0.797  53.601  1.00  0.00     0.035 C 
BRANCH  15  16
HETATM   16  C2  UNL     1      20.969   1.402  52.276  1.00  0.00    -0.002 C 
HETATM   17  C1  UNL     1      21.191   0.364  51.208  1.00  0.00     0.005 C 
ENDBRANCH  15  16
ENDBRANCH  14  15
BRANCH  14  18
HETATM   18  N1  UNL     1      19.016  -1.073  53.761  1.00  0.00     0.083 N 
HETATM   19  H9  UNL     1      18.929  -2.097  53.920  1.00  0.00     0.313 HD
HETATM   20  H10 UNL     1      18.397  -0.707  53.022  1.00  0.00     0.313 HD
ENDBRANCH  14  18
ENDBRANCH  13  14
ENDBRANCH  12  13
ENDBRANCH  10  12
ENDBRANCH   1  10
BRANCH   3  21
HETATM   21  N4  UNL     1      25.171   3.235  51.955  1.00  0.00    -0.338 N 
HETATM   22  H16 UNL     1      26.021   3.865  51.837  1.00  0.00     0.167 HD
BRANCH  21  23
HETATM   23  C9  UNL     1      23.933   3.693  51.461  1.00  0.00     0.035 A 
HETATM   24  C10 UNL     1      23.087   4.552  52.144  1.00  0.00     0.029 A 
HETATM   25  C11 UNL     1      21.933   4.873  51.472  1.00  0.00     0.004 A 
HETATM   26  C12 UNL     1      21.551   4.438  50.228  1.00  0.00     0.024 A 
HETATM   27  C13 UNL     1      22.411   3.571  49.544  1.00  0.00     0.036 A 
HETATM   28 CL1  UNL     1      21.981   2.989  47.968  1.00  0.00    -0.084 Cl
HETATM   29  C14 UNL     1      23.595   3.220  50.193  1.00  0.00     0.053 A 
ENDBRANCH  21  23
ENDBRANCH   3  21
BRANCH   7  30
HETATM   30  C17 UNL     1      29.084  -0.487  54.506  1.00  0.00     0.127 C 
HETATM   31  C18 UNL     1      29.751  -1.264  53.367  1.00  0.00     0.027 C 
ENDBRANCH   7  30
TORSDOF 10
ENDMDL
MODEL 4
REMARK VINA RESULT:      -7.6      1.844      2.500
REMARK  10 active torsions:
REMARK  status: ('A' for Active; 'I' for Inactive)
REMARK    1  A    between atoms: C2_2  and  C3_3 
REMARK    2  A    between atoms: C3_3  and  C4_4 
REMARK    3  A    between atoms: C4_4  and  N1_5 
REMARK    4  A    between atoms: C4_4  and  C5_6 
REMARK    5  A    between atoms: C5_6  and  C6_7 
REMARK    6  A    between atoms: C6_7  and  N2_8 
REMARK    7  A    between atoms: N2_8  and  C7_9 
REMARK    8  A    between atoms: C8_11  and  N4_12 
REMARK    9  A    between atoms: N4_12  and  C9_13 
REMARK   10  A    between atoms: N6_23  and  C17_24 
ROOT
HETATM    1  C7  UNL     1      26.486   3.028  51.165  1.00  0.00     0.726 A 
HETATM    2  N3  UNL     1      25.222   2.859  51.577  1.00  0.00    -0.043 NA
HETATM    3  C8  UNL     1      24.884   2.063  52.603  1.00  0.00     0.180 A 
HETATM    4  C15 UNL     1      25.857   1.372  53.293  1.00  0.00     0.151 A 
HETATM    5  N5  UNL     1      25.825   0.512  54.346  1.00  0.00    -0.236 NA
HETATM    6  C16 UNL     1      27.092   0.147  54.587  1.00  0.00     0.212 A 
HETATM    7  N6  UNL     1      27.903   0.760  53.708  1.00  0.00    -0.324 N 
HETATM    8  C19 UNL     1      27.159   1.545  52.871  1.00  0.00     0.182 A 
HETATM    9  N7  UNL     1      27.477   2.359  51.823  1.00  0.00    -0.042 NA
ENDROOT
BRANCH   1  10
HETATM   10  N2  UNL     1      26.769   3.881  50.064  1.00  0.00    -0.222 N 
HETATM   11  H15 UNL     1      27.730   3.956  49.708  1.00  0.00     0.177 HD
BRANCH  10  12
HETATM   12  C6  UNL     1      25.746   4.685  49.384  1.00  0.00     0.140 C 
BRANCH  12  13
HETATM   13  C5  UNL     1      25.542   6.001  50.054  1.00  0.00     0.055 C 
BRANCH  13  14
HETATM   14  C4  UNL     1      26.211   7.082  49.280  1.00  0.00     0.219 C 
BRANCH  14  15
HETATM   15  C3  UNL     1      26.990   6.681  48.088  1.00  0.00     0.035 C 
BRANCH  15  16
HETATM   16  C2  UNL     1      28.473   6.919  48.216  1.00  0.00    -0.002 C 
HETATM   17  C1  UNL     1      29.271   5.643  48.155  1.00  0.00     0.005 C 
ENDBRANCH  15  16
ENDBRANCH  14  15
BRANCH  14  18
HETATM   18  N1  UNL     1      26.960   7.981  50.157  1.00  0.00     0.083 N 
HETATM   19  H9  UNL     1      26.339   8.677  50.616  1.00  0.00     0.313 HD
HETATM   20  H10 UNL     1      27.778   8.394  49.683  1.00  0.00     0.313 HD
ENDBRANCH  14  18
ENDBRANCH  13  14
ENDBRANCH  12  13
ENDBRANCH  10  12
ENDBRANCH   1  10
BRANCH   3  21
HETATM   21  N4  UNL     1      23.549   1.881  53.050  1.00  0.00    -0.338 N 
HETATM   22  H16 UNL     1      23.361   2.172  54.057  1.00  0.00     0.167 HD
BRANCH  21  23
HETATM   23  C9  UNL     1      22.475   1.360  52.300  1.00  0.00     0.035 A 
HETATM   24  C10 UNL     1      22.354   1.472  50.924  1.00  0.00     0.029 A 
HETATM   25  C11 UNL     1      21.228   0.886  50.399  1.00  0.00     0.004 A 
HETATM   26  C12 UNL     1      20.244   0.222  51.086  1.00  0.00     0.024 A 
HETATM   27  C13 UNL     1      20.373   0.113  52.475  1.00  0.00     0.036 A 
HETATM   28 CL1  UNL     1      19.158  -0.717  53.395  1.00  0.00    -0.084 Cl
HETATM   29  C14 UNL     1      21.503   0.695  53.049  1.00  0.00     0.053 A 
ENDBRANCH  21  23
ENDBRANCH   3  21
BRANCH   7  30
HETATM   30  C17 UNL     1      29.347   0.596  53.677  1.00  0.00     0.127 C 
HETATM   31  C18 UNL     1      29.576  -0.916  53.582  1.00  0.00     0.027 C 
ENDBRANCH   7  30
TORSDOF 10
ENDMDL
MODEL 5
REMARK VINA RESULT:      -7.5      1.601      2.630
REMARK  10 active torsions:
REMARK  status: ('A' for Active; 'I' for Inactive)
REMARK    1  A    between atoms: C2_2  and  C3_3 
REMARK    2  A    between atoms: C3_3  and  C4_4 
REMARK    3  A    between atoms: C4_4  and  N1_5 
REMARK    4  A    between atoms: C4_4  and  C5_6 
REMARK    5  A    between atoms: C5_6  and  C6_7 
REMARK    6  A    between atoms: C6_7  and  N2_8 
REMARK    7  A    between atoms: N2_8  and  C7_9 
REMARK    8  A    between atoms: C8_11  and  N4_12 
REMARK    9  A    between atoms: N4_12  and  C9_13 
REMARK   10  A    between atoms: N6_23  and  C17_24 
ROOT
HETATM    1  C7  UNL     1      26.482   2.948  51.445  1.00  0.00     0.726 A 
HETATM    2  N3  UNL     1      25.226   2.587  51.741  1.00  0.00    -0.043 NA
HETATM    3  C8  UNL     1      24.924   1.681  52.685  1.00  0.00     0.180 A 
HETATM    4  C15 UNL     1      25.928   1.074  53.408  1.00  0.00     0.151 A 
HETATM    5  N5  UNL     1      25.937   0.144  54.399  1.00  0.00    -0.236 NA
HETATM    6  C16 UNL     1      27.220  -0.071  54.720  1.00  0.00     0.212 A 
HETATM    7  N6  UNL     1      28.002   0.704  53.950  1.00  0.00    -0.324 N 
HETATM    8  C19 UNL     1      27.223   1.444  53.106  1.00  0.00     0.182 A 
HETATM    9  N7  UNL     1      27.503   2.367  52.139  1.00  0.00    -0.042 NA
ENDROOT
BRANCH   1  10
HETATM   10  N2  UNL     1      26.726   3.907  50.426  1.00  0.00    -0.222 N 
HETATM   11  H15 UNL     1      27.569   4.494  50.467  1.00  0.00     0.177 HD
BRANCH  10  12
HETATM   12  C6  UNL     1      25.825   4.119  49.287  1.00  0.00     0.140 C 
BRANCH  12  13
HETATM   13  C5  UNL     1      25.459   5.556  49.131  1.00  0.00     0.055 C 
BRANCH  13  14
HETATM   14  C4  UNL     1      25.099   6.142  50.451  1.00  0.00     0.219 C 
BRANCH  14  15
HETATM   15  C3  UNL     1      23.669   6.440  50.693  1.00  0.00     0.035 C 
BRANCH  15  16
HETATM   16  C2  UNL     1      22.795   5.216  50.787  1.00  0.00    -0.002 C 
HETATM   17  C1  UNL     1      22.365   4.920  52.200  1.00  0.00     0.005 C 
ENDBRANCH  15  16
ENDBRANCH  14  15
BRANCH  14  18
HETATM   18  N1  UNL     1      25.967   7.269  50.790  1.00  0.00     0.083 N 
HETATM   19  H9  UNL     1      26.529   7.581  49.973  1.00  0.00     0.313 HD
HETATM   20  H10 UNL     1      26.523   7.089  51.640  1.00  0.00     0.313 HD
ENDBRANCH  14  18
ENDBRANCH  13  14
ENDBRANCH  12  13
ENDBRANCH  10  12
ENDBRANCH   1  10
BRANCH   3  21
HETATM   21  N4  UNL     1      23.597   1.295  53.009  1.00  0.00    -0.338 N 
HETATM   22  H16 UNL     1      23.410   1.127  54.044  1.00  0.00     0.167 HD
BRANCH  21  23
HETATM   23  C9  UNL     1      22.528   1.118  52.107  1.00  0.00     0.035 A 
HETATM   24  C10 UNL     1      22.576   1.450  50.762  1.00  0.00     0.029 A 
HETATM   25  C11 UNL     1      21.421   1.189  50.067  1.00  0.00     0.004 A 
HETATM   26  C12 UNL     1      20.262   0.646  50.561  1.00  0.00     0.024 A 
HETATM   27  C13 UNL     1      20.221   0.313  51.920  1.00  0.00     0.036 A 
HETATM   28 CL1  UNL     1      18.782  -0.375  52.600  1.00  0.00    -0.084 Cl
HETATM   29  C14 UNL     1      21.375   0.564  52.663  1.00  0.00     0.053 A 
ENDBRANCH  21  23
ENDBRANCH   3  21
BRANCH   7  30
HETATM   30  C17 UNL     1      29.454   0.732  54.027  1.00  0.00     0.127 C 
HETATM   31  C18 UNL     1      29.908  -0.644  53.527  1.00  0.00     0.027 C 
ENDBRANCH   7  30
TORSDOF 10
ENDMDL
MODEL 6
REMARK VINA RESULT:      -7.5      2.711      5.938
REMARK  10 active torsions:
REMARK  status: ('A' for Active; 'I' for Inactive)
REMARK    1  A    between atoms: C2_2  and  C3_3 
REMARK    2  A    between atoms: C3_3  and  C4_4 
REMARK    3  A    between atoms: C4_4  and  N1_5 
REMARK    4  A    between atoms: C4_4  and  C5_6 
REMARK    5  A    between atoms: C5_6  and  C6_7 
REMARK    6  A    between atoms: C6_7  and  N2_8 
REMARK    7  A    between atoms: N2_8  and  C7_9 
REMARK    8  A    between atoms: C8_11  and  N4_12 
REMARK    9  A    between atoms: N4_12  and  C9_13 
REMARK   10  A    between atoms: N6_23  and  C17_24 
ROOT
HETATM    1  C7  UNL     1      22.235   1.711  50.353  1.00  0.00     0.726 A 
HETATM    2  N3  UNL     1      23.176   1.676  51.306  1.00  0.00    -0.043 NA
HETATM    3  C8  UNL     1      22.978   1.128  52.516  1.00  0.00     0.180 A 
HETATM    4  C15 UNL     1      21.761   0.561  52.828  1.00  0.00     0.151 A 
HETATM    5  N5  UNL     1      21.271  -0.052  53.938  1.00  0.00    -0.236 NA
HETATM    6  C16 UNL     1      20.007  -0.401  53.663  1.00  0.00     0.212 A 
HETATM    7  N6  UNL     1      19.706  -0.018  52.411  1.00  0.00    -0.324 N 
HETATM    8  C19 UNL     1      20.790   0.596  51.848  1.00  0.00     0.182 A 
HETATM    9  N7  UNL     1      21.016   1.161  50.626  1.00  0.00    -0.042 NA
ENDROOT
BRANCH   1  10
HETATM   10  N2  UNL     1      22.513   2.317  49.098  1.00  0.00    -0.222 N 
HETATM   11  H15 UNL     1      21.789   2.341  48.370  1.00  0.00     0.177 HD
BRANCH  10  12
HETATM   12  C6  UNL     1      23.807   2.926  48.768  1.00  0.00     0.140 C 
BRANCH  12  13
HETATM   13  C5  UNL     1      23.883   4.344  49.223  1.00  0.00     0.055 C 
BRANCH  13  14
HETATM   14  C4  UNL     1      25.066   4.539  50.105  1.00  0.00     0.219 C 
BRANCH  14  15
HETATM   15  C3  UNL     1      26.283   3.757  49.791  1.00  0.00     0.035 C 
BRANCH  15  16
HETATM   16  C2  UNL     1      27.224   4.446  48.837  1.00  0.00    -0.002 C 
HETATM   17  C1  UNL     1      27.056   5.943  48.837  1.00  0.00     0.005 C 
ENDBRANCH  15  16
ENDBRANCH  14  15
BRANCH  14  18
HETATM   18  N1  UNL     1      24.698   4.453  51.518  1.00  0.00     0.083 N 
HETATM   19  H9  UNL     1      23.677   4.588  51.659  1.00  0.00     0.313 HD
HETATM   20  H10 UNL     1      25.290   5.056  52.111  1.00  0.00     0.313 HD
ENDBRANCH  14  18
ENDBRANCH  13  14
ENDBRANCH  12  13
ENDBRANCH  10  12
ENDBRANCH   1  10
BRANCH   3  21
HETATM   21  N4  UNL     1      23.970   1.081  53.530  1.00  0.00    -0.338 N 
HETATM   22  H16 UNL     1      23.660   1.430  54.487  1.00  0.00     0.167 HD
BRANCH  21  23
HETATM   23  C9  UNL     1      25.297   0.627  53.389  1.00  0.00     0.035 A 
HETATM   24  C10 UNL     1      25.649  -0.681  53.095  1.00  0.00     0.029 A 
HETATM   25  C11 UNL     1      27.001  -0.901  52.999  1.00  0.00     0.004 A 
HETATM   26  C12 UNL     1      28.004   0.021  53.160  1.00  0.00     0.024 A 
HETATM   27  C13 UNL     1      27.640   1.339  53.457  1.00  0.00     0.036 A 
HETATM   28 CL1  UNL     1      28.866   2.548  53.671  1.00  0.00    -0.084 Cl
HETATM   29  C14 UNL     1      26.275   1.606  53.564  1.00  0.00     0.053 A 
ENDBRANCH  21  23
ENDBRANCH   3  21
BRANCH   7  30
HETATM   30  C17 UNL     1      18.415  -0.237  51.777  1.00  0.00     0.127 C 
HETATM   31  C18 UNL     1      17.662  -1.181  52.721  1.00  0.00     0.027 C 
ENDBRANCH   7  30
TORSDOF 10
ENDMDL
MODEL 7
REMARK VINA RESULT:      -7.2      2.978      6.850
REMARK  10 active torsions:
REMARK  status: ('A' for Active; 'I' for Inactive)
REMARK    1  A    between atoms: C2_2  and  C3_3 
REMARK    2  A    between atoms: C3_3  and  C4_4 
REMARK    3  A    between atoms: C4_4  and  N1_5 
REMARK    4  A    between atoms: C4_4  and  C5_6 
REMARK    5  A    between atoms: C5_6  and  C6_7 
REMARK    6  A    between atoms: C6_7  and  N2_8 
REMARK    7  A    between atoms: N2_8  and  C7_9 
REMARK    8  A    between atoms: C8_11  and  N4_12 
REMARK    9  A    between atoms: N4_12  and  C9_13 
REMARK   10  A    between atoms: N6_23  and  C17_24 
ROOT
HETATM    1  C7  UNL     1      23.712   4.087  51.328  1.00  0.00     0.726 A 
HETATM    2  N3  UNL     1      24.503   3.014  51.460  1.00  0.00    -0.043 NA
HETATM    3  C8  UNL     1      25.686   2.891  50.839  1.00  0.00     0.180 A 
HETATM    4  C15 UNL     1      26.145   3.900  50.017  1.00  0.00     0.151 A 
HETATM    5  N5  UNL     1      27.270   4.060  49.272  1.00  0.00    -0.236 NA
HETATM    6  C16 UNL     1      27.170   5.253  48.671  1.00  0.00     0.212 A 
HETATM    7  N6  UNL     1      26.011   5.832  49.028  1.00  0.00    -0.324 N 
HETATM    8  C19 UNL     1      25.332   5.006  49.880  1.00  0.00     0.182 A 
HETATM    9  N7  UNL     1      24.132   5.106  50.523  1.00  0.00    -0.042 NA
ENDROOT
BRANCH   1  10
HETATM   10  N2  UNL     1      22.467   4.144  52.011  1.00  0.00    -0.222 N 
HETATM   11  H15 UNL     1      22.376   4.713  52.862  1.00  0.00     0.177 HD
BRANCH  10  12
HETATM   12  C6  UNL     1      21.270   3.421  51.564  1.00  0.00     0.140 C 
BRANCH  12  13
HETATM   13  C5  UNL     1      20.825   2.414  52.570  1.00  0.00     0.055 C 
BRANCH  13  14
HETATM   14  C4  UNL     1      21.395   1.078  52.248  1.00  0.00     0.219 C 
BRANCH  14  15
HETATM   15  C3  UNL     1      22.344   0.492  53.222  1.00  0.00     0.035 C 
BRANCH  15  16
HETATM   16  C2  UNL     1      21.681  -0.143  54.417  1.00  0.00    -0.002 C 
HETATM   17  C1  UNL     1      21.747  -1.648  54.384  1.00  0.00     0.005 C 
ENDBRANCH  15  16
ENDBRANCH  14  15
BRANCH  14  18
HETATM   18  N1  UNL     1      21.905   1.030  50.879  1.00  0.00     0.083 N 
HETATM   19  H9  UNL     1      22.852   0.604  50.835  1.00  0.00     0.313 HD
HETATM   20  H10 UNL     1      21.831   1.944  50.405  1.00  0.00     0.313 HD
ENDBRANCH  14  18
ENDBRANCH  13  14
ENDBRANCH  12  13
ENDBRANCH  10  12
ENDBRANCH   1  10
BRANCH   3  21
HETATM   21  N4  UNL     1      26.533   1.760  50.975  1.00  0.00    -0.338 N 
HETATM   22  H16 UNL     1      26.904   1.355  50.063  1.00  0.00     0.167 HD
BRANCH  21  23
HETATM   23  C9  UNL     1      26.919   1.140  52.181  1.00  0.00     0.035 A 
HETATM   24  C10 UNL     1      26.346  -0.017  52.685  1.00  0.00     0.029 A 
HETATM   25  C11 UNL     1      26.880  -0.449  53.874  1.00  0.00     0.004 A 
HETATM   26  C12 UNL     1      27.896   0.136  54.587  1.00  0.00     0.024 A 
HETATM   27  C13 UNL     1      28.470   1.304  54.072  1.00  0.00     0.036 A 
HETATM   28 CL1  UNL     1      29.758   2.088  54.930  1.00  0.00    -0.084 Cl
HETATM   29  C14 UNL     1      27.955   1.777  52.864  1.00  0.00     0.053 A 
ENDBRANCH  21  23
ENDBRANCH   3  21
BRANCH   7  30
HETATM   30  C17 UNL     1      25.573   7.139  48.564  1.00  0.00     0.127 C 
HETATM   31  C18 UNL     1      26.651   7.595  47.576  1.00  0.00     0.027 C 
ENDBRANCH   7  30
TORSDOF 10
ENDMDL
MODEL 8
REMARK VINA RESULT:      -7.2      2.452      5.963
REMARK  10 active torsions:
REMARK  status: ('A' for Active; 'I' for Inactive)
REMARK    1  A    between atoms: C2_2  and  C3_3 
REMARK    2  A    between atoms: C3_3  and  C4_4 
REMARK    3  A    between atoms: C4_4  and  N1_5 
REMARK    4  A    between atoms: C4_4  and  C5_6 
REMARK    5  A    between atoms: C5_6  and  C6_7 
REMARK    6  A    between atoms: C6_7  and  N2_8 
REMARK    7  A    between atoms: N2_8  and  C7_9 
REMARK    8  A    between atoms: C8_11  and  N4_12 
REMARK    9  A    between atoms: N4_12  and  C9_13 
REMARK   10  A    between atoms: N6_23  and  C17_24 
ROOT
HETATM    1  C7  UNL     1      25.102   3.327  50.878  1.00  0.00     0.726 A 
HETATM    2  N3  UNL     1      24.364   2.209  50.865  1.00  0.00    -0.043 NA
HETATM    3  C8  UNL     1      23.093   2.171  50.434  1.00  0.00     0.180 A 
HETATM    4  C15 UNL     1      22.485   3.320  49.972  1.00  0.00     0.151 A 
HETATM    5  N5  UNL     1      21.245   3.591  49.485  1.00  0.00    -0.236 NA
HETATM    6  C16 UNL     1      21.221   4.898  49.192  1.00  0.00     0.212 A 
HETATM    7  N6  UNL     1      22.415   5.439  49.487  1.00  0.00    -0.324 N 
HETATM    8  C19 UNL     1      23.244   4.472  49.983  1.00  0.00     0.182 A 
HETATM    9  N7  UNL     1      24.535   4.483  50.429  1.00  0.00    -0.042 NA
ENDROOT
BRANCH   1  10
HETATM   10  N2  UNL     1      26.440   3.293  51.358  1.00  0.00    -0.222 N 
HETATM   11  H15 UNL     1      27.029   4.132  51.291  1.00  0.00     0.177 HD
BRANCH  10  12
HETATM   12  C6  UNL     1      27.049   2.100  51.959  1.00  0.00     0.140 C 
BRANCH  12  13
HETATM   13  C5  UNL     1      27.029   2.160  53.449  1.00  0.00     0.055 C 
BRANCH  13  14
HETATM   14  C4  UNL     1      27.381   0.834  54.023  1.00  0.00     0.219 C 
BRANCH  14  15
HETATM   15  C3  UNL     1      26.271   0.001  54.538  1.00  0.00     0.035 C 
BRANCH  15  16
HETATM   16  C2  UNL     1      25.672  -0.925  53.511  1.00  0.00    -0.002 C 
HETATM   17  C1  UNL     1      26.711  -1.536  52.607  1.00  0.00     0.005 C 
ENDBRANCH  15  16
ENDBRANCH  14  15
BRANCH  14  18
HETATM   18  N1  UNL     1      28.485   0.941  54.977  1.00  0.00     0.083 N 
HETATM   19  H9  UNL     1      29.378   1.190  54.506  1.00  0.00     0.313 HD
HETATM   20  H10 UNL     1      28.549   0.114  55.591  1.00  0.00     0.313 HD
ENDBRANCH  14  18
ENDBRANCH  13  14
ENDBRANCH  12  13
ENDBRANCH  10  12
ENDBRANCH   1  10
BRANCH   3  21
HETATM   21  N4  UNL     1      22.304   0.992  50.412  1.00  0.00    -0.338 N 
HETATM   22  H16 UNL     1      22.353   0.426  49.511  1.00  0.00     0.167 HD
BRANCH  21  23
HETATM   23  C9  UNL     1      21.479   0.513  51.450  1.00  0.00     0.035 A 
HETATM   24  C10 UNL     1      20.094   0.500  51.408  1.00  0.00     0.029 A 
HETATM   25  C11 UNL     1      19.492  -0.015  52.529  1.00  0.00     0.004 A 
HETATM   26  C12 UNL     1      20.112  -0.504  53.651  1.00  0.00     0.024 A 
HETATM   27  C13 UNL     1      21.511  -0.488  53.687  1.00  0.00     0.036 A 
HETATM   28 CL1  UNL     1      22.349  -1.093  55.080  1.00  0.00    -0.084 Cl
HETATM   29  C14 UNL     1      22.162   0.029  52.567  1.00  0.00     0.053 A 
ENDBRANCH  21  23
ENDBRANCH   3  21
BRANCH   7  30
HETATM   30  C17 UNL     1      22.747   6.842  49.294  1.00  0.00     0.127 C 
HETATM   31  C18 UNL     1      22.336   7.532  50.599  1.00  0.00     0.027 C 
ENDBRANCH   7  30
TORSDOF 10
ENDMDL
MODEL 9
REMARK VINA RESULT:      -7.1      2.013      2.675
REMARK  10 active torsions:
REMARK  status: ('A' for Active; 'I' for Inactive)
REMARK    1  A    between atoms: C2_2  and  C3_3 
REMARK    2  A    between atoms: C3_3  and  C4_4 
REMARK    3  A    between atoms: C4_4  and  N1_5 
REMARK    4  A    between atoms: C4_4  and  C5_6 
REMARK    5  A    between atoms: C5_6  and  C6_7 
REMARK    6  A    between atoms: C6_7  and  N2_8 
REMARK    7  A    between atoms: N2_8  and  C7_9 
REMARK    8  A    between atoms: C8_11  and  N4_12 
REMARK    9  A    between atoms: N4_12  and  C9_13 
REMARK   10  A    between atoms: N6_23  and  C17_24 
ROOT
HETATM    1  C7  UNL     1      26.554   2.867  51.244  1.00  0.00     0.726 A 
HETATM    2  N3  UNL     1      25.291   2.711  51.665  1.00  0.00    -0.043 NA
HETATM    3  C8  UNL     1      24.958   1.960  52.727  1.00  0.00     0.180 A 
HETATM    4  C15 UNL     1      25.936   1.304  53.445  1.00  0.00     0.151 A 
HETATM    5  N5  UNL     1      25.910   0.492  54.535  1.00  0.00    -0.236 NA
HETATM    6  C16 UNL     1      27.178   0.144  54.790  1.00  0.00     0.212 A 
HETATM    7  N6  UNL     1      27.985   0.721  53.883  1.00  0.00    -0.324 N 
HETATM    8  C19 UNL     1      27.236   1.464  53.014  1.00  0.00     0.182 A 
HETATM    9  N7  UNL     1      27.548   2.233  51.929  1.00  0.00    -0.042 NA
ENDROOT
BRANCH   1  10
HETATM   10  N2  UNL     1      26.831   3.672  50.106  1.00  0.00    -0.222 N 
HETATM   11  H15 UNL     1      27.703   3.531  49.580  1.00  0.00     0.177 HD
BRANCH  10  12
HETATM   12  C6  UNL     1      25.925   4.720  49.621  1.00  0.00     0.140 C 
BRANCH  12  13
HETATM   13  C5  UNL     1      26.652   5.762  48.841  1.00  0.00     0.055 C 
BRANCH  13  14
HETATM   14  C4  UNL     1      26.111   7.112  49.154  1.00  0.00     0.219 C 
BRANCH  14  15
HETATM   15  C3  UNL     1      26.564   8.238  48.307  1.00  0.00     0.035 C 
BRANCH  15  16
HETATM   16  C2  UNL     1      25.488   8.806  47.417  1.00  0.00    -0.002 C 
HETATM   17  C1  UNL     1      24.241   7.962  47.404  1.00  0.00     0.005 C 
ENDBRANCH  15  16
ENDBRANCH  14  15
BRANCH  14  18
HETATM   18  N1  UNL     1      26.218   7.412  50.581  1.00  0.00     0.083 N 
HETATM   19  H9  UNL     1      27.098   7.919  50.803  1.00  0.00     0.313 HD
HETATM   20  H10 UNL     1      26.053   6.579  51.167  1.00  0.00     0.313 HD
ENDBRANCH  14  18
ENDBRANCH  13  14
ENDBRANCH  12  13
ENDBRANCH  10  12
ENDBRANCH   1  10
BRANCH   3  21
HETATM   21  N4  UNL     1      23.625   1.791  53.184  1.00  0.00    -0.338 N 
HETATM   22  H16 UNL     1      23.493   1.847  54.239  1.00  0.00     0.167 HD
BRANCH  21  23
HETATM   23  C9  UNL     1      22.485   1.561  52.386  1.00  0.00     0.035 A 
HETATM   24  C10 UNL     1      22.184   0.350  51.783  1.00  0.00     0.029 A 
HETATM   25  C11 UNL     1      21.020   0.349  51.053  1.00  0.00     0.004 A 
HETATM   26  C12 UNL     1      20.155   1.398  50.871  1.00  0.00     0.024 A 
HETATM   27  C13 UNL     1      20.467   2.618  51.484  1.00  0.00     0.036 A 
HETATM   28 CL1  UNL     1      19.411   3.980  51.289  1.00  0.00    -0.084 Cl
HETATM   29  C14 UNL     1      21.642   2.662  52.235  1.00  0.00     0.053 A 
ENDBRANCH  21  23
ENDBRANCH   3  21
BRANCH   7  30
HETATM   30  C17 UNL     1      29.430   0.562  53.857  1.00  0.00     0.127 C 
HETATM   31  C18 UNL     1      29.665  -0.915  53.526  1.00  0.00     0.027 C 
ENDBRANCH   7  30
TORSDOF 10
ENDMDL
