MODEL 1
REMARK VINA RESULT:      -6.9      0.000      0.000
REMARK  8 active torsions:
REMARK  status: ('A' for Active; 'I' for Inactive)
REMARK    1  A    between atoms: N1_1  and  C1_2 
REMARK    2  A    between atoms: C1_2  and  C2_3 
REMARK    3  A    between atoms: C2_3  and  O1_4 
REMARK    4  A    between atoms: O1_4  and  C3_5 
REMARK    5  A    between atoms: C4_6  and  C5_7 
REMARK    6  A    between atoms: C4_6  and  C6_9 
REMARK    7  A    between atoms: C10_15  and  C11_16 
REMARK    8  A    between atoms: C11_16  and  C12_17 
ROOT
HETATM    1  C1  UNL     1      23.199   3.742  52.343  1.00  0.00     0.054 C 
HETATM    2  C7  UNL     1      22.933   2.446  52.263  1.00  0.00     0.086 C 
HETATM    3  C8  UNL     1      21.957   1.729  51.376  1.00  0.00     0.331 C 
HETATM    4  N2  UNL     1      21.257   0.694  52.129  1.00  0.00     0.094 N 
HETATM    5  C9  UNL     1      22.250  -0.297  52.499  1.00  0.00     0.324 C 
HETATM    6  C10 UNL     1      23.332   0.376  53.218  1.00  0.00     0.045 C 
HETATM    7  N3  UNL     1      23.677   1.615  53.141  1.00  0.00    -0.256 NA
HETATM    8  H12 UNL     1      20.920   1.166  53.022  1.00  0.00     0.316 HD
ENDROOT
BRANCH   1   9
HETATM    9  N1  UNL     1      24.149   4.357  53.218  1.00  0.00    -0.399 N 
HETATM   10  H1  UNL     1      23.932   3.994  54.156  1.00  0.00     0.156 HD
HETATM   11  H2  UNL     1      24.870   5.027  52.841  1.00  0.00     0.156 HD
ENDBRANCH   1   9
BRANCH   1  12
HETATM   12  C2  UNL     1      22.591   4.844  51.564  1.00  0.00     0.233 C 
BRANCH  12  13
HETATM   13  O1  UNL     1      23.016   4.803  50.198  1.00  0.00    -0.357 OA
BRANCH  13  14
HETATM   14  C3  UNL     1      24.282   5.138  49.802  1.00  0.00     0.141 C 
HETATM   15  C4  UNL     1      25.426   4.552  49.511  1.00  0.00    -0.020 C 
BRANCH  15  16
HETATM   16  C5  UNL     1      26.667   5.256  49.094  1.00  0.00     0.259 C 
HETATM   17  F1  UNL     1      27.478   4.354  48.463  1.00  0.00    -0.251 F 
ENDBRANCH  15  16
BRANCH  15  18
HETATM   18  C6  UNL     1      25.755   3.115  49.521  1.00  0.00     0.123 C 
HETATM   19 BR1  UNL     1      26.617   2.577  51.157  1.00  0.00    -0.092 Br
ENDBRANCH  15  18
ENDBRANCH  13  14
ENDBRANCH  12  13
ENDBRANCH   1  12
BRANCH   6  20
HETATM   20  C11 UNL     1      24.085  -0.522  54.120  1.00  0.00     0.095 C 
BRANCH  20  21
HETATM   21  C12 UNL     1      25.540  -0.441  54.007  1.00  0.00    -0.053 A 
HETATM   22  C13 UNL     1      26.105  -1.041  52.878  1.00  0.00     0.007 A 
HETATM   23  C14 UNL     1      27.480  -0.983  52.738  1.00  0.00     0.001 A 
HETATM   24  C15 UNL     1      28.338  -0.377  53.630  1.00  0.00     0.000 A 
HETATM   25  C16 UNL     1      27.764   0.215  54.747  1.00  0.00     0.001 A 
HETATM   26  C17 UNL     1      26.378   0.164  54.902  1.00  0.00     0.007 A 
ENDBRANCH  20  21
ENDBRANCH   6  20
TORSDOF 8
ENDMDL
MODEL 2
REMARK VINA RESULT:      -6.5      2.080      2.398
REMARK  8 active torsions:
REMARK  status: ('A' for Active; 'I' for Inactive)
REMARK    1  A    between atoms: N1_1  and  C1_2 
REMARK    2  A    between atoms: C1_2  and  C2_3 
REMARK    3  A    between atoms: C2_3  and  O1_4 
REMARK    4  A    between atoms: O1_4  and  C3_5 
REMARK    5  A    between atoms: C4_6  and  C5_7 
REMARK    6  A    between atoms: C4_6  and  C6_9 
REMARK    7  A    between atoms: C10_15  and  C11_16 
REMARK    8  A    between atoms: C11_16  and  C12_17 
ROOT
HETATM    1  C1  UNL     1      25.290   3.045  50.795  1.00  0.00     0.054 C 
HETATM    2  C7  UNL     1      24.512   2.105  51.313  1.00  0.00     0.086 C 
HETATM    3  C8  UNL     1      23.058   1.831  51.061  1.00  0.00     0.331 C 
HETATM    4  N2  UNL     1      22.380   1.521  52.315  1.00  0.00     0.094 N 
HETATM    5  C9  UNL     1      22.936   0.270  52.793  1.00  0.00     0.324 C 
HETATM    6  C10 UNL     1      24.390   0.414  52.888  1.00  0.00     0.045 C 
HETATM    7  N3  UNL     1      25.143   1.231  52.236  1.00  0.00    -0.256 NA
HETATM    8  H12 UNL     1      22.669   2.287  52.996  1.00  0.00     0.316 HD
ENDROOT
BRANCH   1   9
HETATM    9  N1  UNL     1      26.677   3.247  51.083  1.00  0.00    -0.399 N 
HETATM   10  H1  UNL     1      26.763   4.242  51.332  1.00  0.00     0.156 HD
HETATM   11  H2  UNL     1      27.361   2.447  51.015  1.00  0.00     0.156 HD
ENDBRANCH   1   9
BRANCH   1  12
HETATM   12  C2  UNL     1      24.923   4.093  49.816  1.00  0.00     0.233 C 
BRANCH  12  13
HETATM   13  O1  UNL     1      25.467   5.361  50.193  1.00  0.00    -0.357 OA
BRANCH  13  14
HETATM   14  C3  UNL     1      26.112   6.185  49.312  1.00  0.00     0.141 C 
HETATM   15  C4  UNL     1      27.201   6.197  48.569  1.00  0.00    -0.020 C 
BRANCH  15  16
HETATM   16  C5  UNL     1      27.621   7.314  47.682  1.00  0.00     0.259 C 
HETATM   17  F1  UNL     1      26.756   8.356  47.869  1.00  0.00    -0.251 F 
ENDBRANCH  15  16
BRANCH  15  18
HETATM   18  C6  UNL     1      28.235   5.155  48.431  1.00  0.00     0.123 C 
HETATM   19 BR1  UNL     1      29.979   5.900  48.095  1.00  0.00    -0.092 Br
ENDBRANCH  15  18
ENDBRANCH  13  14
ENDBRANCH  12  13
ENDBRANCH   1  12
BRANCH   6  20
HETATM   20  C11 UNL     1      25.010  -0.514  53.857  1.00  0.00     0.095 C 
BRANCH  20  21
HETATM   21  C12 UNL     1      26.469  -0.462  53.922  1.00  0.00    -0.053 A 
HETATM   22  C13 UNL     1      27.157  -1.270  53.012  1.00  0.00     0.007 A 
HETATM   23  C14 UNL     1      28.539  -1.246  53.045  1.00  0.00     0.001 A 
HETATM   24  C15 UNL     1      29.293  -0.482  53.911  1.00  0.00     0.000 A 
HETATM   25  C16 UNL     1      28.598   0.316  54.809  1.00  0.00     0.001 A 
HETATM   26  C17 UNL     1      27.203   0.301  54.788  1.00  0.00     0.007 A 
ENDBRANCH  20  21
ENDBRANCH   6  20
TORSDOF 8
ENDMDL
MODEL 3
REMARK VINA RESULT:      -6.5      2.567      6.263
REMARK  8 active torsions:
REMARK  status: ('A' for Active; 'I' for Inactive)
REMARK    1  A    between atoms: N1_1  and  C1_2 
REMARK    2  A    between atoms: C1_2  and  C2_3 
REMARK    3  A    between atoms: C2_3  and  O1_4 
REMARK    4  A    between atoms: O1_4  and  C3_5 
REMARK    5  A    between atoms: C4_6  and  C5_7 
REMARK    6  A    between atoms: C4_6  and  C6_9 
REMARK    7  A    between atoms: C10_15  and  C11_16 
REMARK    8  A    between atoms: C11_16  and  C12_17 
ROOT
HETATM    1  C1  UNL     1      22.680   1.987  51.561  1.00  0.00     0.054 C 
HETATM    2  C7  UNL     1      23.226   3.195  51.592  1.00  0.00     0.086 C 
HETATM    3  C8  UNL     1      23.590   4.043  52.776  1.00  0.00     0.331 C 
HETATM    4  N2  UNL     1      23.218   5.432  52.534  1.00  0.00     0.094 N 
HETATM    5  C9  UNL     1      24.051   5.904  51.444  1.00  0.00     0.324 C 
HETATM    6  C10 UNL     1      23.879   5.003  50.303  1.00  0.00     0.045 C 
HETATM    7  N3  UNL     1      23.508   3.770  50.325  1.00  0.00    -0.256 NA
HETATM    8  H12 UNL     1      22.212   5.405  52.186  1.00  0.00     0.316 HD
ENDROOT
BRANCH   1   9
HETATM    9  N1  UNL     1      22.359   1.235  50.387  1.00  0.00    -0.399 N 
HETATM   10  H1  UNL     1      21.401   1.515  50.135  1.00  0.00     0.156 HD
HETATM   11  H2  UNL     1      23.059   0.565  49.971  1.00  0.00     0.156 HD
ENDBRANCH   1   9
BRANCH   1  12
HETATM   12  C2  UNL     1      22.277   1.142  52.707  1.00  0.00     0.233 C 
BRANCH  12  13
HETATM   13  O1  UNL     1      23.144   0.012  52.842  1.00  0.00    -0.357 OA
BRANCH  13  14
HETATM   14  C3  UNL     1      24.286   0.037  53.595  1.00  0.00     0.141 C 
HETATM   15  C4  UNL     1      25.593   0.068  53.428  1.00  0.00    -0.020 C 
BRANCH  15  16
HETATM   16  C5  UNL     1      26.597   0.089  54.525  1.00  0.00     0.259 C 
HETATM   17  F1  UNL     1      25.983  -0.329  55.673  1.00  0.00    -0.251 F 
ENDBRANCH  15  16
BRANCH  15  18
HETATM   18  C6  UNL     1      26.362   0.090  52.170  1.00  0.00     0.123 C 
HETATM   19 BR1  UNL     1      26.625   1.880  51.509  1.00  0.00    -0.092 Br
ENDBRANCH  15  18
ENDBRANCH  13  14
ENDBRANCH  12  13
ENDBRANCH   1  12
BRANCH   6  20
HETATM   20  C11 UNL     1      24.184   5.637  49.004  1.00  0.00     0.095 C 
BRANCH  20  21
HETATM   21  C12 UNL     1      25.606   5.817  48.718  1.00  0.00    -0.053 A 
HETATM   22  C13 UNL     1      26.428   4.711  48.955  1.00  0.00     0.007 A 
HETATM   23  C14 UNL     1      27.780   4.845  48.696  1.00  0.00     0.001 A 
HETATM   24  C15 UNL     1      28.380   5.991  48.218  1.00  0.00     0.000 A 
HETATM   25  C16 UNL     1      27.553   7.081  47.986  1.00  0.00     0.001 A 
HETATM   26  C17 UNL     1      26.187   6.960  48.244  1.00  0.00     0.007 A 
ENDBRANCH  20  21
ENDBRANCH   6  20
TORSDOF 8
ENDMDL
MODEL 4
REMARK VINA RESULT:      -6.1      2.570      3.318
REMARK  8 active torsions:
REMARK  status: ('A' for Active; 'I' for Inactive)
REMARK    1  A    between atoms: N1_1  and  C1_2 
REMARK    2  A    between atoms: C1_2  and  C2_3 
REMARK    3  A    between atoms: C2_3  and  O1_4 
REMARK    4  A    between atoms: O1_4  and  C3_5 
REMARK    5  A    between atoms: C4_6  and  C5_7 
REMARK    6  A    between atoms: C4_6  and  C6_9 
REMARK    7  A    between atoms: C10_15  and  C11_16 
REMARK    8  A    between atoms: C11_16  and  C12_17 
ROOT
HETATM    1  C1  UNL     1      25.429   3.036  50.788  1.00  0.00     0.054 C 
HETATM    2  C7  UNL     1      24.645   2.091  51.287  1.00  0.00     0.086 C 
HETATM    3  C8  UNL     1      23.202   1.800  50.991  1.00  0.00     0.331 C 
HETATM    4  N2  UNL     1      22.488   1.490  52.225  1.00  0.00     0.094 N 
HETATM    5  C9  UNL     1      23.042   0.247  52.728  1.00  0.00     0.324 C 
HETATM    6  C10 UNL     1      24.490   0.407  52.867  1.00  0.00     0.045 C 
HETATM    7  N3  UNL     1      25.255   1.229  52.234  1.00  0.00    -0.256 NA
HETATM    8  H12 UNL     1      22.748   2.263  52.910  1.00  0.00     0.316 HD
ENDROOT
BRANCH   1   9
HETATM    9  N1  UNL     1      26.804   3.255  51.118  1.00  0.00    -0.399 N 
HETATM   10  H1  UNL     1      27.333   2.999  50.273  1.00  0.00     0.156 HD
HETATM   11  H2  UNL     1      27.076   3.610  52.073  1.00  0.00     0.156 HD
ENDBRANCH   1   9
BRANCH   1  12
HETATM   12  C2  UNL     1      25.082   4.074  49.792  1.00  0.00     0.233 C 
BRANCH  12  13
HETATM   13  O1  UNL     1      24.761   5.313  50.432  1.00  0.00    -0.357 OA
BRANCH  13  14
HETATM   14  C3  UNL     1      23.571   5.961  50.244  1.00  0.00     0.141 C 
HETATM   15  C4  UNL     1      22.333   5.929  50.696  1.00  0.00    -0.020 C 
BRANCH  15  16
HETATM   16  C5  UNL     1      21.234   6.825  50.249  1.00  0.00     0.259 C 
HETATM   17  F1  UNL     1      21.186   7.896  51.098  1.00  0.00    -0.251 F 
ENDBRANCH  15  16
BRANCH  15  18
HETATM   18  C6  UNL     1      21.746   5.039  51.714  1.00  0.00     0.123 C 
HETATM   19 BR1  UNL     1      20.130   4.192  51.096  1.00  0.00    -0.092 Br
ENDBRANCH  15  18
ENDBRANCH  13  14
ENDBRANCH  12  13
ENDBRANCH   1  12
BRANCH   6  20
HETATM   20  C11 UNL     1      25.089  -0.509  53.861  1.00  0.00     0.095 C 
BRANCH  20  21
HETATM   21  C12 UNL     1      26.550  -0.555  53.863  1.00  0.00    -0.053 A 
HETATM   22  C13 UNL     1      27.192   0.272  54.790  1.00  0.00     0.007 A 
HETATM   23  C14 UNL     1      28.575   0.254  54.820  1.00  0.00     0.001 A 
HETATM   24  C15 UNL     1      29.370  -0.520  54.003  1.00  0.00     0.000 A 
HETATM   25  C16 UNL     1      28.721  -1.337  53.087  1.00  0.00     0.001 A 
HETATM   26  C17 UNL     1      27.326  -1.329  53.045  1.00  0.00     0.007 A 
ENDBRANCH  20  21
ENDBRANCH   6  20
TORSDOF 8
ENDMDL
MODEL 5
REMARK VINA RESULT:      -6.1      2.505      3.470
REMARK  8 active torsions:
REMARK  status: ('A' for Active; 'I' for Inactive)
REMARK    1  A    between atoms: N1_1  and  C1_2 
REMARK    2  A    between atoms: C1_2  and  C2_3 
REMARK    3  A    between atoms: C2_3  and  O1_4 
REMARK    4  A    between atoms: O1_4  and  C3_5 
REMARK    5  A    between atoms: C4_6  and  C5_7 
REMARK    6  A    between atoms: C4_6  and  C6_9 
REMARK    7  A    between atoms: C10_15  and  C11_16 
REMARK    8  A    between atoms: C11_16  and  C12_17 
ROOT
HETATM    1  C1  UNL     1      24.155   6.353  50.672  1.00  0.00     0.054 C 
HETATM    2  C7  UNL     1      23.891   5.073  50.452  1.00  0.00     0.086 C 
HETATM    3  C8  UNL     1      23.576   4.376  49.160  1.00  0.00     0.331 C 
HETATM    4  N2  UNL     1      22.493   3.420  49.354  1.00  0.00     0.094 N 
HETATM    5  C9  UNL     1      22.999   2.389  50.240  1.00  0.00     0.324 C 
HETATM    6  C10 UNL     1      23.495   3.027  51.460  1.00  0.00     0.045 C 
HETATM    7  N3  UNL     1      23.910   4.239  51.600  1.00  0.00    -0.256 NA
HETATM    8  H12 UNL     1      21.730   3.951  49.875  1.00  0.00     0.316 HD
ENDROOT
BRANCH   1   9
HETATM    9  N1  UNL     1      24.449   6.949  51.939  1.00  0.00    -0.399 N 
HETATM   10  H1  UNL     1      24.380   6.184  52.624  1.00  0.00     0.156 HD
HETATM   11  H2  UNL     1      24.674   7.977  52.009  1.00  0.00     0.156 HD
ENDBRANCH   1   9
BRANCH   1  12
HETATM   12  C2  UNL     1      24.208   7.454  49.684  1.00  0.00     0.233 C 
BRANCH  12  13
HETATM   13  O1  UNL     1      25.560   7.769  49.337  1.00  0.00    -0.357 OA
BRANCH  13  14
HETATM   14  C3  UNL     1      26.492   6.814  49.034  1.00  0.00     0.141 C 
HETATM   15  C4  UNL     1      27.688   6.723  48.488  1.00  0.00    -0.020 C 
BRANCH  15  16
HETATM   16  C5  UNL     1      28.453   5.461  48.307  1.00  0.00     0.259 C 
HETATM   17  F1  UNL     1      27.596   4.412  48.493  1.00  0.00    -0.251 F 
ENDBRANCH  15  16
BRANCH  15  18
HETATM   18  C6  UNL     1      28.537   7.797  47.943  1.00  0.00     0.123 C 
HETATM   19 BR1  UNL     1      28.930   9.152  49.256  1.00  0.00    -0.092 Br
ENDBRANCH  15  18
ENDBRANCH  13  14
ENDBRANCH  12  13
ENDBRANCH   1  12
BRANCH   6  20
HETATM   20  C11 UNL     1      23.502   2.128  52.633  1.00  0.00     0.095 C 
BRANCH  20  21
HETATM   21  C12 UNL     1      24.577   1.139  52.652  1.00  0.00    -0.053 A 
HETATM   22  C13 UNL     1      24.356   0.001  53.433  1.00  0.00     0.007 A 
HETATM   23  C14 UNL     1      25.352  -0.957  53.475  1.00  0.00     0.001 A 
HETATM   24  C15 UNL     1      26.552  -0.874  52.802  1.00  0.00     0.000 A 
HETATM   25  C16 UNL     1      26.761   0.260  52.029  1.00  0.00     0.001 A 
HETATM   26  C17 UNL     1      25.763   1.235  51.978  1.00  0.00     0.007 A 
ENDBRANCH  20  21
ENDBRANCH   6  20
TORSDOF 8
ENDMDL
MODEL 6
REMARK VINA RESULT:      -6.1      4.676      6.320
REMARK  8 active torsions:
REMARK  status: ('A' for Active; 'I' for Inactive)
REMARK    1  A    between atoms: N1_1  and  C1_2 
REMARK    2  A    between atoms: C1_2  and  C2_3 
REMARK    3  A    between atoms: C2_3  and  O1_4 
REMARK    4  A    between atoms: O1_4  and  C3_5 
REMARK    5  A    between atoms: C4_6  and  C5_7 
REMARK    6  A    between atoms: C4_6  and  C6_9 
REMARK    7  A    between atoms: C10_15  and  C11_16 
REMARK    8  A    between atoms: C11_16  and  C12_17 
ROOT
HETATM    1  C1  UNL     1      26.800   7.870  49.792  1.00  0.00     0.054 C 
HETATM    2  C7  UNL     1      25.708   7.221  50.170  1.00  0.00     0.086 C 
HETATM    3  C8  UNL     1      24.561   7.702  51.010  1.00  0.00     0.331 C 
HETATM    4  N2  UNL     1      24.159   6.666  51.955  1.00  0.00     0.094 N 
HETATM    5  C9  UNL     1      23.633   5.566  51.170  1.00  0.00     0.324 C 
HETATM    6  C10 UNL     1      24.648   5.163  50.195  1.00  0.00     0.045 C 
HETATM    7  N3  UNL     1      25.605   5.881  49.715  1.00  0.00    -0.256 NA
HETATM    8  H12 UNL     1      25.059   6.334  52.418  1.00  0.00     0.316 HD
ENDROOT
BRANCH   1   9
HETATM    9  N1  UNL     1      27.858   7.343  48.984  1.00  0.00    -0.399 N 
HETATM   10  H1  UNL     1      27.936   6.351  49.248  1.00  0.00     0.156 HD
HETATM   11  H2  UNL     1      28.368   7.961  48.299  1.00  0.00     0.156 HD
ENDBRANCH   1   9
BRANCH   1  12
HETATM   12  C2  UNL     1      27.185   9.263  50.106  1.00  0.00     0.233 C 
BRANCH  12  13
HETATM   13  O1  UNL     1      27.559   9.973  48.921  1.00  0.00    -0.357 OA
BRANCH  13  14
HETATM   14  C3  UNL     1      28.642  10.806  48.864  1.00  0.00     0.141 C 
HETATM   15  C4  UNL     1      29.953  10.752  48.994  1.00  0.00    -0.020 C 
BRANCH  15  16
HETATM   16  C5  UNL     1      30.876  11.910  48.860  1.00  0.00     0.259 C 
HETATM   17  F1  UNL     1      30.543  12.833  49.812  1.00  0.00    -0.251 F 
ENDBRANCH  15  16
BRANCH  15  18
HETATM   18  C6  UNL     1      30.803   9.584  49.291  1.00  0.00     0.123 C 
HETATM   19 BR1  UNL     1      31.217   8.564  47.711  1.00  0.00    -0.092 Br
ENDBRANCH  15  18
ENDBRANCH  13  14
ENDBRANCH  12  13
ENDBRANCH   1  12
BRANCH   6  20
HETATM   20  C11 UNL     1      24.507   3.763  49.744  1.00  0.00     0.095 C 
BRANCH  20  21
HETATM   21  C12 UNL     1      24.950   2.753  50.703  1.00  0.00    -0.053 A 
HETATM   22  C13 UNL     1      26.333   2.622  50.867  1.00  0.00     0.007 A 
HETATM   23  C14 UNL     1      26.788   1.675  51.766  1.00  0.00     0.001 A 
HETATM   24  C15 UNL     1      25.979   0.848  52.516  1.00  0.00     0.000 A 
HETATM   25  C16 UNL     1      24.609   0.988  52.344  1.00  0.00     0.001 A 
HETATM   26  C17 UNL     1      24.135   1.939  51.439  1.00  0.00     0.007 A 
ENDBRANCH  20  21
ENDBRANCH   6  20
TORSDOF 8
ENDMDL
MODEL 7
REMARK VINA RESULT:      -6.0      1.976      2.231
REMARK  8 active torsions:
REMARK  status: ('A' for Active; 'I' for Inactive)
REMARK    1  A    between atoms: N1_1  and  C1_2 
REMARK    2  A    between atoms: C1_2  and  C2_3 
REMARK    3  A    between atoms: C2_3  and  O1_4 
REMARK    4  A    between atoms: O1_4  and  C3_5 
REMARK    5  A    between atoms: C4_6  and  C5_7 
REMARK    6  A    between atoms: C4_6  and  C6_9 
REMARK    7  A    between atoms: C10_15  and  C11_16 
REMARK    8  A    between atoms: C11_16  and  C12_17 
ROOT
HETATM    1  C1  UNL     1      24.126   2.887  51.325  1.00  0.00     0.054 C 
HETATM    2  C7  UNL     1      23.624   1.742  51.765  1.00  0.00     0.086 C 
HETATM    3  C8  UNL     1      22.331   1.070  51.403  1.00  0.00     0.331 C 
HETATM    4  N2  UNL     1      21.695   0.527  52.598  1.00  0.00     0.094 N 
HETATM    5  C9  UNL     1      22.560  -0.529  53.089  1.00  0.00     0.324 C 
HETATM    6  C10 UNL     1      23.899   0.024  53.291  1.00  0.00     0.045 C 
HETATM    7  N3  UNL     1      24.422   1.050  52.713  1.00  0.00    -0.256 NA
HETATM    8  H12 UNL     1      21.705   1.315  53.314  1.00  0.00     0.316 HD
ENDROOT
BRANCH   1   9
HETATM    9  N1  UNL     1      25.373   3.469  51.717  1.00  0.00    -0.399 N 
HETATM   10  H1  UNL     1      25.858   3.695  50.838  1.00  0.00     0.156 HD
HETATM   11  H2  UNL     1      25.614   3.584  52.737  1.00  0.00     0.156 HD
ENDBRANCH   1   9
BRANCH   1  12
HETATM   12  C2  UNL     1      23.532   3.823  50.344  1.00  0.00     0.233 C 
BRANCH  12  13
HETATM   13  O1  UNL     1      22.989   4.975  50.997  1.00  0.00    -0.357 OA
BRANCH  13  14
HETATM   14  C3  UNL     1      23.071   6.235  50.472  1.00  0.00     0.141 C 
HETATM   15  C4  UNL     1      23.987   7.135  50.173  1.00  0.00    -0.020 C 
BRANCH  15  16
HETATM   16  C5  UNL     1      23.714   8.473  49.584  1.00  0.00     0.259 C 
HETATM   17  F1  UNL     1      24.888   9.171  49.548  1.00  0.00    -0.251 F 
ENDBRANCH  15  16
BRANCH  15  18
HETATM   18  C6  UNL     1      25.450   7.053  50.337  1.00  0.00     0.123 C 
HETATM   19 BR1  UNL     1      26.284   6.037  48.929  1.00  0.00    -0.092 Br
ENDBRANCH  15  18
ENDBRANCH  13  14
ENDBRANCH  12  13
ENDBRANCH   1  12
BRANCH   6  20
HETATM   20  C11 UNL     1      24.700  -0.724  54.283  1.00  0.00     0.095 C 
BRANCH  20  21
HETATM   21  C12 UNL     1      26.149  -0.579  54.150  1.00  0.00    -0.053 A 
HETATM   22  C13 UNL     1      26.752  -1.316  53.128  1.00  0.00     0.007 A 
HETATM   23  C14 UNL     1      28.121  -1.203  52.973  1.00  0.00     0.001 A 
HETATM   24  C15 UNL     1      28.940  -0.414  53.754  1.00  0.00     0.000 A 
HETATM   25  C16 UNL     1      28.329   0.313  54.766  1.00  0.00     0.001 A 
HETATM   26  C17 UNL     1      26.947   0.208  54.934  1.00  0.00     0.007 A 
ENDBRANCH  20  21
ENDBRANCH   6  20
TORSDOF 8
ENDMDL
MODEL 8
REMARK VINA RESULT:      -5.8      3.352      4.275
REMARK  8 active torsions:
REMARK  status: ('A' for Active; 'I' for Inactive)
REMARK    1  A    between atoms: N1_1  and  C1_2 
REMARK    2  A    between atoms: C1_2  and  C2_3 
REMARK    3  A    between atoms: C2_3  and  O1_4 
REMARK    4  A    between atoms: O1_4  and  C3_5 
REMARK    5  A    between atoms: C4_6  and  C5_7 
REMARK    6  A    between atoms: C4_6  and  C6_9 
REMARK    7  A    between atoms: C10_15  and  C11_16 
REMARK    8  A    between atoms: C11_16  and  C12_17 
ROOT
HETATM    1  C1  UNL     1      25.992   5.172  49.590  1.00  0.00     0.054 C 
HETATM    2  C7  UNL     1      25.275   4.420  50.413  1.00  0.00     0.086 C 
HETATM    3  C8  UNL     1      24.004   4.753  51.140  1.00  0.00     0.331 C 
HETATM    4  N2  UNL     1      24.058   4.246  52.506  1.00  0.00     0.094 N 
HETATM    5  C9  UNL     1      24.086   2.798  52.413  1.00  0.00     0.324 C 
HETATM    6  C10 UNL     1      25.209   2.410  51.558  1.00  0.00     0.045 C 
HETATM    7  N3  UNL     1      25.777   3.112  50.639  1.00  0.00    -0.256 NA
HETATM    8  H12 UNL     1      24.995   4.565  52.896  1.00  0.00     0.316 HD
ENDROOT
BRANCH   1   9
HETATM    9  N1  UNL     1      27.201   4.785  48.929  1.00  0.00    -0.399 N 
HETATM   10  H1  UNL     1      26.997   4.854  47.923  1.00  0.00     0.156 HD
HETATM   11  H2  UNL     1      28.052   4.509  49.487  1.00  0.00     0.156 HD
ENDBRANCH   1   9
BRANCH   1  12
HETATM   12  C2  UNL     1      25.726   6.564  49.165  1.00  0.00     0.233 C 
BRANCH  12  13
HETATM   13  O1  UNL     1      26.241   7.500  50.118  1.00  0.00    -0.357 OA
BRANCH  13  14
HETATM   14  C3  UNL     1      27.039   8.555  49.768  1.00  0.00     0.141 C 
HETATM   15  C4  UNL     1      28.167   8.785  49.126  1.00  0.00    -0.020 C 
BRANCH  15  16
HETATM   16  C5  UNL     1      28.777  10.125  48.920  1.00  0.00     0.259 C 
HETATM   17  F1  UNL     1      29.976  10.153  49.576  1.00  0.00    -0.251 F 
ENDBRANCH  15  16
BRANCH  15  18
HETATM   18  C6  UNL     1      29.072   7.819  48.477  1.00  0.00     0.123 C 
HETATM   19 BR1  UNL     1      28.942   7.877  46.556  1.00  0.00    -0.092 Br
ENDBRANCH  15  18
ENDBRANCH  13  14
ENDBRANCH  12  13
ENDBRANCH   1  12
BRANCH   6  20
HETATM   20  C11 UNL     1      25.702   1.042  51.822  1.00  0.00     0.095 C 
BRANCH  20  21
HETATM   21  C12 UNL     1      26.952   0.966  52.575  1.00  0.00    -0.053 A 
HETATM   22  C13 UNL     1      27.456   2.177  53.059  1.00  0.00     0.007 A 
HETATM   23  C14 UNL     1      28.638   2.143  53.776  1.00  0.00     0.001 A 
HETATM   24  C15 UNL     1      29.359   1.001  54.052  1.00  0.00     0.000 A 
HETATM   25  C16 UNL     1      28.849  -0.195  53.566  1.00  0.00     0.001 A 
HETATM   26  C17 UNL     1      27.657  -0.176  52.840  1.00  0.00     0.007 A 
ENDBRANCH  20  21
ENDBRANCH   6  20
TORSDOF 8
ENDMDL
MODEL 9
REMARK VINA RESULT:      -5.8      3.283      4.262
REMARK  8 active torsions:
REMARK  status: ('A' for Active; 'I' for Inactive)
REMARK    1  A    between atoms: N1_1  and  C1_2 
REMARK    2  A    between atoms: C1_2  and  C2_3 
REMARK    3  A    between atoms: C2_3  and  O1_4 
REMARK    4  A    between atoms: O1_4  and  C3_5 
REMARK    5  A    between atoms: C4_6  and  C5_7 
REMARK    6  A    between atoms: C4_6  and  C6_9 
REMARK    7  A    between atoms: C10_15  and  C11_16 
REMARK    8  A    between atoms: C11_16  and  C12_17 
ROOT
HETATM    1  C1  UNL     1      25.701   3.714  50.028  1.00  0.00     0.054 C 
HETATM    2  C7  UNL     1      25.685   3.098  51.201  1.00  0.00     0.086 C 
HETATM    3  C8  UNL     1      24.546   2.913  52.161  1.00  0.00     0.331 C 
HETATM    4  N2  UNL     1      25.000   3.127  53.530  1.00  0.00     0.094 N 
HETATM    5  C9  UNL     1      25.940   2.064  53.830  1.00  0.00     0.324 C 
HETATM    6  C10 UNL     1      26.993   2.074  52.813  1.00  0.00     0.045 C 
HETATM    7  N3  UNL     1      26.920   2.531  51.611  1.00  0.00    -0.256 NA
HETATM    8  H12 UNL     1      25.541   4.044  53.514  1.00  0.00     0.316 HD
ENDROOT
BRANCH   1   9
HETATM    9  N1  UNL     1      26.832   3.852  49.162  1.00  0.00    -0.399 N 
HETATM   10  H1  UNL     1      26.908   2.954  48.665  1.00  0.00     0.156 HD
HETATM   11  H2  UNL     1      27.384   4.750  49.140  1.00  0.00     0.156 HD
ENDBRANCH   1   9
BRANCH   1  12
HETATM   12  C2  UNL     1      24.581   4.395  49.342  1.00  0.00     0.233 C 
BRANCH  12  13
HETATM   13  O1  UNL     1      23.579   3.457  48.939  1.00  0.00    -0.357 OA
BRANCH  13  14
HETATM   14  C3  UNL     1      22.786   3.642  47.840  1.00  0.00     0.141 C 
HETATM   15  C4  UNL     1      21.591   3.300  47.400  1.00  0.00    -0.020 C 
BRANCH  15  16
HETATM   16  C5  UNL     1      21.014   3.698  46.088  1.00  0.00     0.259 C 
HETATM   17  F1  UNL     1      22.011   3.655  45.154  1.00  0.00    -0.251 F 
ENDBRANCH  15  16
BRANCH  15  18
HETATM   18  C6  UNL     1      20.566   2.475  48.064  1.00  0.00     0.123 C 
HETATM   19 BR1  UNL     1      19.114   3.534  48.756  1.00  0.00    -0.092 Br
ENDBRANCH  15  18
ENDBRANCH  13  14
ENDBRANCH  12  13
ENDBRANCH   1  12
BRANCH   6  20
HETATM   20  C11 UNL     1      28.262   1.473  53.275  1.00  0.00     0.095 C 
BRANCH  20  21
HETATM   21  C12 UNL     1      28.332   0.017  53.179  1.00  0.00    -0.053 A 
HETATM   22  C13 UNL     1      29.546  -0.569  53.552  1.00  0.00     0.007 A 
HETATM   23  C14 UNL     1      29.648  -1.945  53.473  1.00  0.00     0.001 A 
HETATM   24  C15 UNL     1      28.641  -2.788  53.053  1.00  0.00     0.000 A 
HETATM   25  C16 UNL     1      27.441  -2.195  52.685  1.00  0.00     0.001 A 
HETATM   26  C17 UNL     1      27.323  -0.806  52.759  1.00  0.00     0.007 A 
ENDBRANCH  20  21
ENDBRANCH   6  20
TORSDOF 8
ENDMDL
