MODEL 1
REMARK VINA RESULT:     -10.1      0.000      0.000
REMARK  4 active torsions:
REMARK  status: ('A' for Active; 'I' for Inactive)
REMARK    1  A    between atoms: O1_2  and  C2_3 
REMARK    2  A    between atoms: C6_9  and  O2_10 
REMARK    3  A    between atoms: O2_10  and  C7_11 
REMARK    4  A    between atoms: C24_30  and  O4_31 
ROOT
HETATM    1  C7  UNL     1      25.089   3.250  49.994  1.00  0.00     0.078 A 
HETATM    2  C8  UNL     1      23.973   2.678  50.643  1.00  0.00     0.045 A 
HETATM    3  C9  UNL     1      24.448   1.750  51.511  1.00  0.00    -0.040 A 
HETATM    4  C10 UNL     1      25.634   1.233  51.924  1.00  0.00     0.036 A 
HETATM    5  C11 UNL     1      26.497   1.971  51.141  1.00  0.00    -0.055 A 
HETATM    6  C12 UNL     1      26.420   2.949  50.192  1.00  0.00     0.042 A 
HETATM    7  C13 UNL     1      26.983   0.951  52.101  1.00  0.00     0.052 A 
HETATM    8  C14 UNL     1      27.621   1.460  53.371  1.00  0.00     0.129 C 
HETATM    9  N3  UNL     1      26.754   1.230  54.512  1.00  0.00    -0.398 N 
HETATM   10  C15 UNL     1      26.289   0.103  55.208  1.00  0.00     0.083 C 
HETATM   11  C16 UNL     1      25.306  -0.652  55.360  1.00  0.00     0.018 C 
HETATM   12  C17 UNL     1      23.992  -1.277  55.251  1.00  0.00     0.014 C 
HETATM   13  C18 UNL     1      23.189  -0.734  54.399  1.00  0.00    -0.012 C 
HETATM   14  C19 UNL     1      21.900  -0.802  53.840  1.00  0.00     0.389 C 
HETATM   15  O3  UNL     1      20.795  -0.731  53.255  1.00  0.00    -0.405 OA
HETATM   16  C20 UNL     1      23.422   0.176  53.304  1.00  0.00     0.014 C 
HETATM   17  C21 UNL     1      23.476   0.996  52.290  1.00  0.00     0.009 C 
HETATM   18  H11 UNL     1      26.354   2.110  54.942  1.00  0.00     0.158 HD
ENDROOT
BRANCH   1  19
HETATM   19  O2  UNL     1      24.640   4.221  49.050  1.00  0.00    -0.291 OA
BRANCH  19  20
HETATM   20  C6  UNL     1      24.704   5.523  49.645  1.00  0.00     0.183 A 
HETATM   21  N2  UNL     1      23.728   5.894  50.461  1.00  0.00    -0.217 NA
HETATM   22  C5  UNL     1      23.667   7.101  51.096  1.00  0.00     0.236 A 
HETATM   23  N1  UNL     1      24.675   7.968  50.875  1.00  0.00    -0.241 NA
HETATM   24  C4  UNL     1      25.677   7.620  50.054  1.00  0.00     0.075 A 
HETATM   25  C3  UNL     1      26.793   8.442  49.795  1.00  0.00     0.072 A 
HETATM   26  C22 UNL     1      25.785   6.395  49.373  1.00  0.00     0.049 A 
HETATM   27  C2  UNL     1      27.860   8.062  48.965  1.00  0.00     0.103 A 
HETATM   28  C24 UNL     1      27.847   6.834  48.356  1.00  0.00     0.102 A 
HETATM   29  C23 UNL     1      26.792   5.978  48.556  1.00  0.00     0.057 A 
BRANCH  27  30
HETATM   30  O1  UNL     1      28.829   9.035  48.872  1.00  0.00    -0.353 OA
HETATM   31  C1  UNL     1      28.539  10.390  49.007  1.00  0.00     0.210 C 
ENDBRANCH  27  30
BRANCH  28  32
HETATM   32  O4  UNL     1      28.956   6.580  47.569  1.00  0.00    -0.353 OA
HETATM   33  C25 UNL     1      29.967   5.729  48.103  1.00  0.00     0.210 C 
ENDBRANCH  28  32
ENDBRANCH  19  20
ENDBRANCH   1  19
TORSDOF 4
ENDMDL
MODEL 2
REMARK VINA RESULT:      -9.6      2.525      8.797
REMARK  4 active torsions:
REMARK  status: ('A' for Active; 'I' for Inactive)
REMARK    1  A    between atoms: O1_2  and  C2_3 
REMARK    2  A    between atoms: C6_9  and  O2_10 
REMARK    3  A    between atoms: O2_10  and  C7_11 
REMARK    4  A    between atoms: C24_30  and  O4_31 
ROOT
HETATM    1  C7  UNL     1      26.554   4.809  48.991  1.00  0.00     0.078 A 
HETATM    2  C8  UNL     1      27.890   4.710  48.546  1.00  0.00     0.045 A 
HETATM    3  C9  UNL     1      28.344   5.976  48.363  1.00  0.00    -0.040 A 
HETATM    4  C10 UNL     1      27.909   7.257  48.480  1.00  0.00     0.036 A 
HETATM    5  C11 UNL     1      26.622   7.028  48.922  1.00  0.00    -0.055 A 
HETATM    6  C12 UNL     1      25.826   5.959  49.215  1.00  0.00     0.042 A 
HETATM    7  C13 UNL     1      27.150   8.397  48.714  1.00  0.00     0.052 A 
HETATM    8  C14 UNL     1      27.487   9.193  49.953  1.00  0.00     0.129 C 
HETATM    9  N3  UNL     1      28.924   9.326  50.106  1.00  0.00    -0.398 N 
HETATM   10  C15 UNL     1      29.950   9.987  49.412  1.00  0.00     0.083 C 
HETATM   11  C16 UNL     1      30.886   9.824  48.602  1.00  0.00     0.018 C 
HETATM   12  C17 UNL     1      31.845   9.235  47.673  1.00  0.00     0.014 C 
HETATM   13  C18 UNL     1      31.706   7.970  47.459  1.00  0.00    -0.012 C 
HETATM   14  C19 UNL     1      32.227   6.864  46.763  1.00  0.00     0.389 C 
HETATM   15  O3  UNL     1      32.575   5.793  46.216  1.00  0.00    -0.405 OA
HETATM   16  C20 UNL     1      30.607   7.069  47.708  1.00  0.00     0.014 C 
HETATM   17  C21 UNL     1      29.706   6.139  47.876  1.00  0.00     0.009 C 
HETATM   18  H11 UNL     1      29.326   8.800  50.930  1.00  0.00     0.158 HD
ENDROOT
BRANCH   1  19
HETATM   19  O2  UNL     1      26.021   3.498  49.178  1.00  0.00    -0.291 OA
BRANCH  19  20
HETATM   20  C6  UNL     1      25.174   3.493  50.333  1.00  0.00     0.183 A 
HETATM   21  N2  UNL     1      23.992   4.088  50.252  1.00  0.00    -0.217 NA
HETATM   22  C5  UNL     1      23.088   4.152  51.273  1.00  0.00     0.236 A 
HETATM   23  N1  UNL     1      23.427   3.567  52.439  1.00  0.00    -0.241 NA
HETATM   24  C4  UNL     1      24.616   2.957  52.550  1.00  0.00     0.075 A 
HETATM   25  C3  UNL     1      25.040   2.281  53.712  1.00  0.00     0.072 A 
HETATM   26  C22 UNL     1      25.584   2.866  51.533  1.00  0.00     0.049 A 
HETATM   27  C2  UNL     1      26.270   1.611  53.815  1.00  0.00     0.103 A 
HETATM   28  C24 UNL     1      27.130   1.595  52.747  1.00  0.00     0.102 A 
HETATM   29  C23 UNL     1      26.789   2.234  51.580  1.00  0.00     0.057 A 
BRANCH  27  30
HETATM   30  O1  UNL     1      26.453   1.029  55.049  1.00  0.00    -0.353 OA
HETATM   31  C1  UNL     1      25.924  -0.218  55.369  1.00  0.00     0.210 C 
ENDBRANCH  27  30
BRANCH  28  32
HETATM   32  O4  UNL     1      28.304   0.899  52.975  1.00  0.00    -0.353 OA
HETATM   33  C25 UNL     1      29.323   1.549  53.729  1.00  0.00     0.210 C 
ENDBRANCH  28  32
ENDBRANCH  19  20
ENDBRANCH   1  19
TORSDOF 4
ENDMDL
MODEL 3
REMARK VINA RESULT:      -9.5      2.764      5.057
REMARK  4 active torsions:
REMARK  status: ('A' for Active; 'I' for Inactive)
REMARK    1  A    between atoms: O1_2  and  C2_3 
REMARK    2  A    between atoms: C6_9  and  O2_10 
REMARK    3  A    between atoms: O2_10  and  C7_11 
REMARK    4  A    between atoms: C24_30  and  O4_31 
ROOT
HETATM    1  C7  UNL     1      26.948   5.778  48.618  1.00  0.00     0.078 A 
HETATM    2  C8  UNL     1      27.138   4.451  49.060  1.00  0.00     0.045 A 
HETATM    3  C9  UNL     1      26.175   4.196  49.981  1.00  0.00    -0.040 A 
HETATM    4  C10 UNL     1      25.123   4.816  50.576  1.00  0.00     0.036 A 
HETATM    5  C11 UNL     1      25.193   6.045  49.953  1.00  0.00    -0.055 A 
HETATM    6  C12 UNL     1      25.973   6.665  49.020  1.00  0.00     0.042 A 
HETATM    7  C13 UNL     1      24.153   5.733  50.961  1.00  0.00     0.052 A 
HETATM    8  C14 UNL     1      22.753   5.496  50.445  1.00  0.00     0.129 C 
HETATM    9  N3  UNL     1      22.397   4.093  50.544  1.00  0.00    -0.398 N 
HETATM   10  C15 UNL     1      22.154   3.191  51.593  1.00  0.00     0.083 C 
HETATM   11  C16 UNL     1      22.653   2.257  52.254  1.00  0.00     0.018 C 
HETATM   12  C17 UNL     1      23.561   1.238  52.770  1.00  0.00     0.014 C 
HETATM   13  C18 UNL     1      24.720   1.189  52.205  1.00  0.00    -0.012 C 
HETATM   14  C19 UNL     1      25.958   0.521  52.191  1.00  0.00     0.389 C 
HETATM   15  O3  UNL     1      27.100   0.027  52.057  1.00  0.00    -0.405 OA
HETATM   16  C20 UNL     1      25.423   2.135  51.373  1.00  0.00     0.014 C 
HETATM   17  C21 UNL     1      26.175   2.883  50.611  1.00  0.00     0.009 C 
HETATM   18  H11 UNL     1      22.296   3.601  49.615  1.00  0.00     0.158 HD
ENDROOT
BRANCH   1  19
HETATM   19  O2  UNL     1      27.955   6.104  47.660  1.00  0.00    -0.291 OA
BRANCH  19  20
HETATM   20  C6  UNL     1      28.914   6.981  48.262  1.00  0.00     0.183 A 
HETATM   21  N2  UNL     1      28.501   8.159  48.707  1.00  0.00    -0.217 NA
HETATM   22  C5  UNL     1      29.307   9.086  49.303  1.00  0.00     0.236 A 
HETATM   23  N1  UNL     1      30.610   8.772  49.448  1.00  0.00    -0.241 NA
HETATM   24  C4  UNL     1      31.056   7.587  49.009  1.00  0.00     0.075 A 
HETATM   25  C3  UNL     1      32.390   7.153  49.154  1.00  0.00     0.072 A 
HETATM   26  C22 UNL     1      30.272   6.600  48.385  1.00  0.00     0.049 A 
HETATM   27  C2  UNL     1      32.848   5.896  48.727  1.00  0.00     0.103 A 
HETATM   28  C24 UNL     1      31.979   5.020  48.130  1.00  0.00     0.102 A 
HETATM   29  C23 UNL     1      30.664   5.372  47.949  1.00  0.00     0.057 A 
BRANCH  27  30
HETATM   30  O1  UNL     1      34.187   5.708  48.982  1.00  0.00    -0.353 OA
HETATM   31  C1  UNL     1      35.165   6.577  48.504  1.00  0.00     0.210 C 
ENDBRANCH  27  30
BRANCH  28  32
HETATM   32  O4  UNL     1      32.553   3.817  47.759  1.00  0.00    -0.353 OA
HETATM   33  C25 UNL     1      32.362   3.378  46.416  1.00  0.00     0.210 C 
ENDBRANCH  28  32
ENDBRANCH  19  20
ENDBRANCH   1  19
TORSDOF 4
ENDMDL
MODEL 4
REMARK VINA RESULT:      -9.4      1.999      9.044
REMARK  4 active torsions:
REMARK  status: ('A' for Active; 'I' for Inactive)
REMARK    1  A    between atoms: O1_2  and  C2_3 
REMARK    2  A    between atoms: C6_9  and  O2_10 
REMARK    3  A    between atoms: O2_10  and  C7_11 
REMARK    4  A    between atoms: C24_30  and  O4_31 
ROOT
HETATM    1  C7  UNL     1      25.717   4.306  49.218  1.00  0.00     0.078 A 
HETATM    2  C8  UNL     1      27.079   4.152  48.881  1.00  0.00     0.045 A 
HETATM    3  C9  UNL     1      27.577   5.394  48.655  1.00  0.00    -0.040 A 
HETATM    4  C10 UNL     1      27.166   6.689  48.661  1.00  0.00     0.036 A 
HETATM    5  C11 UNL     1      25.845   6.515  49.019  1.00  0.00    -0.055 A 
HETATM    6  C12 UNL     1      25.004   5.482  49.317  1.00  0.00     0.042 A 
HETATM    7  C13 UNL     1      26.421   7.857  48.767  1.00  0.00     0.052 A 
HETATM    8  C14 UNL     1      26.686   8.722  49.976  1.00  0.00     0.129 C 
HETATM    9  N3  UNL     1      28.111   8.835  50.227  1.00  0.00    -0.398 N 
HETATM   10  C15 UNL     1      29.202   9.430  49.573  1.00  0.00     0.083 C 
HETATM   11  C16 UNL     1      30.190   9.197  48.846  1.00  0.00     0.018 C 
HETATM   12  C17 UNL     1      31.199   8.532  48.029  1.00  0.00     0.014 C 
HETATM   13  C18 UNL     1      31.045   7.258  47.883  1.00  0.00    -0.012 C 
HETATM   14  C19 UNL     1      31.587   6.100  47.297  1.00  0.00     0.389 C 
HETATM   15  O3  UNL     1      31.947   4.990  46.844  1.00  0.00    -0.405 OA
HETATM   16  C20 UNL     1      29.908   6.397  48.105  1.00  0.00     0.014 C 
HETATM   17  C21 UNL     1      28.975   5.499  48.261  1.00  0.00     0.009 C 
HETATM   18  H11 UNL     1      28.439   8.354  51.110  1.00  0.00     0.158 HD
ENDROOT
BRANCH   1  19
HETATM   19  O2  UNL     1      25.139   3.021  49.445  1.00  0.00    -0.291 OA
BRANCH  19  20
HETATM   20  C6  UNL     1      25.542   2.543  50.734  1.00  0.00     0.183 A 
HETATM   21  N2  UNL     1      26.787   2.769  51.131  1.00  0.00    -0.217 NA
HETATM   22  C5  UNL     1      27.298   2.374  52.333  1.00  0.00     0.236 A 
HETATM   23  N1  UNL     1      26.475   1.709  53.169  1.00  0.00    -0.241 NA
HETATM   24  C4  UNL     1      25.211   1.467  52.794  1.00  0.00     0.075 A 
HETATM   25  C3  UNL     1      24.266   0.819  53.616  1.00  0.00     0.072 A 
HETATM   26  C22 UNL     1      24.636   1.847  51.569  1.00  0.00     0.049 A 
HETATM   27  C2  UNL     1      22.931   0.597  53.237  1.00  0.00     0.103 A 
HETATM   28  C24 UNL     1      22.491   1.019  52.009  1.00  0.00     0.102 A 
HETATM   29  C23 UNL     1      23.354   1.655  51.151  1.00  0.00     0.057 A 
BRANCH  27  30
HETATM   30  O1  UNL     1      22.207  -0.053  54.211  1.00  0.00    -0.353 OA
HETATM   31  C1  UNL     1      22.709  -1.151  54.903  1.00  0.00     0.210 C 
ENDBRANCH  27  30
BRANCH  28  32
HETATM   32  O4  UNL     1      21.158   0.744  51.760  1.00  0.00    -0.353 OA
HETATM   33  C25 UNL     1      20.231   1.822  51.857  1.00  0.00     0.210 C 
ENDBRANCH  28  32
ENDBRANCH  19  20
ENDBRANCH   1  19
TORSDOF 4
ENDMDL
MODEL 5
REMARK VINA RESULT:      -9.2      2.415      4.277
REMARK  4 active torsions:
REMARK  status: ('A' for Active; 'I' for Inactive)
REMARK    1  A    between atoms: O1_2  and  C2_3 
REMARK    2  A    between atoms: C6_9  and  O2_10 
REMARK    3  A    between atoms: O2_10  and  C7_11 
REMARK    4  A    between atoms: C24_30  and  O4_31 
ROOT
HETATM    1  C7  UNL     1      24.835   3.313  49.870  1.00  0.00     0.078 A 
HETATM    2  C8  UNL     1      23.813   2.664  50.595  1.00  0.00     0.045 A 
HETATM    3  C9  UNL     1      24.417   1.796  51.446  1.00  0.00    -0.040 A 
HETATM    4  C10 UNL     1      25.666   1.388  51.793  1.00  0.00     0.036 A 
HETATM    5  C11 UNL     1      26.414   2.180  50.946  1.00  0.00    -0.055 A 
HETATM    6  C12 UNL     1      26.197   3.129  49.989  1.00  0.00     0.042 A 
HETATM    7  C13 UNL     1      27.042   1.225  51.889  1.00  0.00     0.052 A 
HETATM    8  C14 UNL     1      27.711   1.811  53.109  1.00  0.00     0.129 C 
HETATM    9  N3  UNL     1      26.938   1.533  54.305  1.00  0.00    -0.398 N 
HETATM   10  C15 UNL     1      26.613   0.384  55.046  1.00  0.00     0.083 C 
HETATM   11  C16 UNL     1      25.709  -0.447  55.271  1.00  0.00     0.018 C 
HETATM   12  C17 UNL     1      24.449  -1.182  55.253  1.00  0.00     0.014 C 
HETATM   13  C18 UNL     1      23.551  -0.726  54.445  1.00  0.00    -0.012 C 
HETATM   14  C19 UNL     1      22.241  -0.912  53.968  1.00  0.00     0.389 C 
HETATM   15  O3  UNL     1      21.101  -0.946  53.452  1.00  0.00    -0.405 OA
HETATM   16  C20 UNL     1      23.639   0.179  53.323  1.00  0.00     0.014 C 
HETATM   17  C21 UNL     1      23.562   0.980  52.296  1.00  0.00     0.009 C 
HETATM   18  H11 UNL     1      26.492   2.384  54.746  1.00  0.00     0.158 HD
ENDROOT
BRANCH   1  19
HETATM   19  O2  UNL     1      24.248   4.224  48.942  1.00  0.00    -0.291 OA
BRANCH  19  20
HETATM   20  C6  UNL     1      24.103   5.506  49.565  1.00  0.00     0.183 A 
HETATM   21  N2  UNL     1      25.179   6.084  50.081  1.00  0.00    -0.217 NA
HETATM   22  C5  UNL     1      25.182   7.301  50.698  1.00  0.00     0.236 A 
HETATM   23  N1  UNL     1      24.006   7.956  50.782  1.00  0.00    -0.241 NA
HETATM   24  C4  UNL     1      22.901   7.397  50.269  1.00  0.00     0.075 A 
HETATM   25  C3  UNL     1      21.638   8.022  50.271  1.00  0.00     0.072 A 
HETATM   26  C22 UNL     1      22.842   6.146  49.629  1.00  0.00     0.049 A 
HETATM   27  C2  UNL     1      20.488   7.451  49.700  1.00  0.00     0.103 A 
HETATM   28  C24 UNL     1      20.563   6.220  49.103  1.00  0.00     0.102 A 
HETATM   29  C23 UNL     1      21.758   5.546  49.064  1.00  0.00     0.057 A 
BRANCH  27  30
HETATM   30  O1  UNL     1      19.380   8.257  49.829  1.00  0.00    -0.353 OA
HETATM   31  C1  UNL     1      19.473   9.643  49.921  1.00  0.00     0.210 C 
ENDBRANCH  27  30
BRANCH  28  32
HETATM   32  O4  UNL     1      19.364   5.772  48.577  1.00  0.00    -0.353 OA
HETATM   33  C25 UNL     1      18.630   4.809  49.328  1.00  0.00     0.210 C 
ENDBRANCH  28  32
ENDBRANCH  19  20
ENDBRANCH   1  19
TORSDOF 4
ENDMDL
MODEL 6
REMARK VINA RESULT:      -9.1      2.198      3.326
REMARK  4 active torsions:
REMARK  status: ('A' for Active; 'I' for Inactive)
REMARK    1  A    between atoms: O1_2  and  C2_3 
REMARK    2  A    between atoms: C6_9  and  O2_10 
REMARK    3  A    between atoms: O2_10  and  C7_11 
REMARK    4  A    between atoms: C24_30  and  O4_31 
ROOT
HETATM    1  C7  UNL     1      25.510   4.474  49.507  1.00  0.00     0.078 A 
HETATM    2  C8  UNL     1      26.461   3.563  50.015  1.00  0.00     0.045 A 
HETATM    3  C9  UNL     1      25.875   2.912  51.052  1.00  0.00    -0.040 A 
HETATM    4  C10 UNL     1      24.690   2.879  51.715  1.00  0.00     0.036 A 
HETATM    5  C11 UNL     1      23.998   3.839  51.005  1.00  0.00    -0.055 A 
HETATM    6  C12 UNL     1      24.221   4.678  49.952  1.00  0.00     0.042 A 
HETATM    7  C13 UNL     1      23.387   3.109  52.140  1.00  0.00     0.052 A 
HETATM    8  C14 UNL     1      22.366   2.050  51.799  1.00  0.00     0.129 C 
HETATM    9  N3  UNL     1      22.902   0.722  52.033  1.00  0.00    -0.398 N 
HETATM   10  C15 UNL     1      23.284  -0.023  53.161  1.00  0.00     0.083 C 
HETATM   11  C16 UNL     1      24.267  -0.412  53.825  1.00  0.00     0.018 C 
HETATM   12  C17 UNL     1      25.623  -0.651  54.307  1.00  0.00     0.014 C 
HETATM   13  C18 UNL     1      26.563  -0.091  53.622  1.00  0.00    -0.012 C 
HETATM   14  C19 UNL     1      27.955   0.080  53.518  1.00  0.00     0.389 C 
HETATM   15  O3  UNL     1      29.162   0.322  53.293  1.00  0.00    -0.405 OA
HETATM   16  C20 UNL     1      26.539   0.979  52.655  1.00  0.00     0.014 C 
HETATM   17  C21 UNL     1      26.673   1.926  51.766  1.00  0.00     0.009 C 
HETATM   18  H11 UNL     1      23.061   0.154  51.155  1.00  0.00     0.158 HD
ENDROOT
BRANCH   1  19
HETATM   19  O2  UNL     1      26.088   5.202  48.424  1.00  0.00    -0.291 OA
BRANCH  19  20
HETATM   20  C6  UNL     1      26.463   6.508  48.879  1.00  0.00     0.183 A 
HETATM   21  N2  UNL     1      25.569   7.225  49.546  1.00  0.00    -0.217 NA
HETATM   22  C5  UNL     1      25.795   8.478  50.038  1.00  0.00     0.236 A 
HETATM   23  N1  UNL     1      27.015   9.015  49.830  1.00  0.00    -0.241 NA
HETATM   24  C4  UNL     1      27.939   8.312  49.158  1.00  0.00     0.075 A 
HETATM   25  C3  UNL     1      29.252   8.771  48.929  1.00  0.00     0.072 A 
HETATM   26  C22 UNL     1      27.756   7.023  48.627  1.00  0.00     0.049 A 
HETATM   27  C2  UNL     1      30.230   8.020  48.258  1.00  0.00     0.103 A 
HETATM   28  C24 UNL     1      29.926   6.770  47.786  1.00  0.00     0.102 A 
HETATM   29  C23 UNL     1      28.666   6.254  47.968  1.00  0.00     0.057 A 
BRANCH  27  30
HETATM   30  O1  UNL     1      31.432   8.684  48.161  1.00  0.00    -0.353 OA
HETATM   31  C1  UNL     1      31.513  10.074  48.131  1.00  0.00     0.210 C 
ENDBRANCH  27  30
BRANCH  28  32
HETATM   32  O4  UNL     1      30.976   6.133  47.148  1.00  0.00    -0.353 OA
HETATM   33  C25 UNL     1      31.417   4.887  47.681  1.00  0.00     0.210 C 
ENDBRANCH  28  32
ENDBRANCH  19  20
ENDBRANCH   1  19
TORSDOF 4
ENDMDL
MODEL 7
REMARK VINA RESULT:      -8.7      2.179      3.247
REMARK  4 active torsions:
REMARK  status: ('A' for Active; 'I' for Inactive)
REMARK    1  A    between atoms: O1_2  and  C2_3 
REMARK    2  A    between atoms: C6_9  and  O2_10 
REMARK    3  A    between atoms: O2_10  and  C7_11 
REMARK    4  A    between atoms: C24_30  and  O4_31 
ROOT
HETATM    1  C7  UNL     1      26.118   5.499  48.658  1.00  0.00     0.078 A 
HETATM    2  C8  UNL     1      24.752   5.304  48.957  1.00  0.00     0.045 A 
HETATM    3  C9  UNL     1      24.661   4.157  49.676  1.00  0.00    -0.040 A 
HETATM    4  C10 UNL     1      25.465   3.182  50.174  1.00  0.00     0.036 A 
HETATM    5  C11 UNL     1      26.690   3.643  49.736  1.00  0.00    -0.055 A 
HETATM    6  C12 UNL     1      27.180   4.698  49.022  1.00  0.00     0.042 A 
HETATM    7  C13 UNL     1      26.556   2.396  50.525  1.00  0.00     0.052 A 
HETATM    8  C14 UNL     1      26.996   2.452  51.968  1.00  0.00     0.129 C 
HETATM    9  N3  UNL     1      25.850   2.410  52.859  1.00  0.00    -0.398 N 
HETATM   10  C15 UNL     1      24.879   1.455  53.201  1.00  0.00     0.083 C 
HETATM   11  C16 UNL     1      23.695   1.109  53.008  1.00  0.00     0.018 C 
HETATM   12  C17 UNL     1      22.317   1.042  52.533  1.00  0.00     0.014 C 
HETATM   13  C18 UNL     1      21.976   1.956  51.688  1.00  0.00    -0.012 C 
HETATM   14  C19 UNL     1      20.918   2.452  50.905  1.00  0.00     0.389 C 
HETATM   15  O3  UNL     1      20.080   3.009  50.161  1.00  0.00    -0.405 OA
HETATM   16  C20 UNL     1      22.761   2.853  50.874  1.00  0.00     0.014 C 
HETATM   17  C21 UNL     1      23.333   3.723  50.087  1.00  0.00     0.009 C 
HETATM   18  H11 UNL     1      25.676   3.308  53.388  1.00  0.00     0.158 HD
ENDROOT
BRANCH   1  19
HETATM   19  O2  UNL     1      26.265   6.686  47.880  1.00  0.00    -0.291 OA
BRANCH  19  20
HETATM   20  C6  UNL     1      26.868   7.707  48.685  1.00  0.00     0.183 A 
HETATM   21  N2  UNL     1      26.163   8.224  49.682  1.00  0.00    -0.217 NA
HETATM   22  C5  UNL     1      26.617   9.196  50.526  1.00  0.00     0.236 A 
HETATM   23  N1  UNL     1      27.869   9.654  50.328  1.00  0.00    -0.241 NA
HETATM   24  C4  UNL     1      28.606   9.149  49.328  1.00  0.00     0.075 A 
HETATM   25  C3  UNL     1      29.937   9.533  49.069  1.00  0.00     0.072 A 
HETATM   26  C22 UNL     1      28.186   8.153  48.428  1.00  0.00     0.049 A 
HETATM   27  C2  UNL     1      30.721   8.977  48.045  1.00  0.00     0.103 A 
HETATM   28  C24 UNL     1      30.193   8.008  47.232  1.00  0.00     0.102 A 
HETATM   29  C23 UNL     1      28.901   7.583  47.419  1.00  0.00     0.057 A 
BRANCH  27  30
HETATM   30  O1  UNL     1      31.986   9.517  47.996  1.00  0.00    -0.353 OA
HETATM   31  C1  UNL     1      32.256  10.725  47.359  1.00  0.00     0.210 C 
ENDBRANCH  27  30
BRANCH  28  32
HETATM   32  O4  UNL     1      31.067   7.540  46.266  1.00  0.00    -0.353 OA
HETATM   33  C25 UNL     1      31.865   6.405  46.589  1.00  0.00     0.210 C 
ENDBRANCH  28  32
ENDBRANCH  19  20
ENDBRANCH   1  19
TORSDOF 4
ENDMDL
MODEL 8
REMARK VINA RESULT:      -8.7      6.109     10.433
REMARK  4 active torsions:
REMARK  status: ('A' for Active; 'I' for Inactive)
REMARK    1  A    between atoms: O1_2  and  C2_3 
REMARK    2  A    between atoms: C6_9  and  O2_10 
REMARK    3  A    between atoms: O2_10  and  C7_11 
REMARK    4  A    between atoms: C24_30  and  O4_31 
ROOT
HETATM    1  C7  UNL     1      18.265   0.786  50.627  1.00  0.00     0.078 A 
HETATM    2  C8  UNL     1      18.813   0.297  51.833  1.00  0.00     0.045 A 
HETATM    3  C9  UNL     1      20.163   0.309  51.692  1.00  0.00    -0.040 A 
HETATM    4  C10 UNL     1      21.103   0.642  50.769  1.00  0.00     0.036 A 
HETATM    5  C11 UNL     1      20.283   1.074  49.746  1.00  0.00    -0.055 A 
HETATM    6  C12 UNL     1      18.947   1.211  49.507  1.00  0.00     0.042 A 
HETATM    7  C13 UNL     1      21.761   1.076  49.625  1.00  0.00     0.052 A 
HETATM    8  C14 UNL     1      22.450   2.417  49.706  1.00  0.00     0.129 C 
HETATM    9  N3  UNL     1      23.167   2.553  50.960  1.00  0.00    -0.398 N 
HETATM   10  C15 UNL     1      24.293   1.949  51.543  1.00  0.00     0.083 C 
HETATM   11  C16 UNL     1      24.660   1.100  52.381  1.00  0.00     0.018 C 
HETATM   12  C17 UNL     1      24.674   0.064  53.409  1.00  0.00     0.014 C 
HETATM   13  C18 UNL     1      23.514  -0.347  53.799  1.00  0.00    -0.012 C 
HETATM   14  C19 UNL     1      22.846  -1.225  54.671  1.00  0.00     0.389 C 
HETATM   15  O3  UNL     1      22.114  -1.946  55.386  1.00  0.00    -0.405 OA
HETATM   16  C20 UNL     1      22.202  -0.218  53.211  1.00  0.00     0.014 C 
HETATM   17  C21 UNL     1      20.962  -0.180  52.806  1.00  0.00     0.009 C 
HETATM   18  H11 UNL     1      22.761   3.272  51.621  1.00  0.00     0.158 HD
ENDROOT
BRANCH   1  19
HETATM   19  O2  UNL     1      16.841   0.773  50.718  1.00  0.00    -0.291 OA
BRANCH  19  20
HETATM   20  C6  UNL     1      16.400   1.952  51.401  1.00  0.00     0.183 A 
HETATM   21  N2  UNL     1      17.140   3.049  51.310  1.00  0.00    -0.217 NA
HETATM   22  C5  UNL     1      16.835   4.239  51.905  1.00  0.00     0.236 A 
HETATM   23  N1  UNL     1      15.700   4.295  52.633  1.00  0.00    -0.241 NA
HETATM   24  C4  UNL     1      14.933   3.201  52.743  1.00  0.00     0.075 A 
HETATM   25  C3  UNL     1      13.710   3.175  53.445  1.00  0.00     0.072 A 
HETATM   26  C22 UNL     1      15.202   1.953  52.155  1.00  0.00     0.049 A 
HETATM   27  C2  UNL     1      12.888   2.039  53.528  1.00  0.00     0.103 A 
HETATM   28  C24 UNL     1      13.265   0.877  52.907  1.00  0.00     0.102 A 
HETATM   29  C23 UNL     1      14.445   0.822  52.207  1.00  0.00     0.057 A 
BRANCH  27  30
HETATM   30  O1  UNL     1      11.749   2.265  54.267  1.00  0.00    -0.353 OA
HETATM   31  C1  UNL     1      11.676   1.979  55.628  1.00  0.00     0.210 C 
ENDBRANCH  27  30
BRANCH  28  32
HETATM   32  O4  UNL     1      12.367  -0.165  53.062  1.00  0.00    -0.353 OA
HETATM   33  C25 UNL     1      12.308  -1.147  52.031  1.00  0.00     0.210 C 
ENDBRANCH  28  32
ENDBRANCH  19  20
ENDBRANCH   1  19
TORSDOF 4
ENDMDL
MODEL 9
REMARK VINA RESULT:      -8.7      3.928      8.451
REMARK  4 active torsions:
REMARK  status: ('A' for Active; 'I' for Inactive)
REMARK    1  A    between atoms: O1_2  and  C2_3 
REMARK    2  A    between atoms: C6_9  and  O2_10 
REMARK    3  A    between atoms: O2_10  and  C7_11 
REMARK    4  A    between atoms: C24_30  and  O4_31 
ROOT
HETATM    1  C7  UNL     1      25.881   4.724  49.211  1.00  0.00     0.078 A 
HETATM    2  C8  UNL     1      27.201   4.322  48.911  1.00  0.00     0.045 A 
HETATM    3  C9  UNL     1      27.886   5.437  48.552  1.00  0.00    -0.040 A 
HETATM    4  C10 UNL     1      27.683   6.772  48.405  1.00  0.00     0.036 A 
HETATM    5  C11 UNL     1      26.353   6.848  48.763  1.00  0.00    -0.055 A 
HETATM    6  C12 UNL     1      25.361   6.000  49.165  1.00  0.00     0.042 A 
HETATM    7  C13 UNL     1      27.131   8.046  48.368  1.00  0.00     0.052 A 
HETATM    8  C14 UNL     1      27.533   8.992  49.474  1.00  0.00     0.129 C 
HETATM    9  N3  UNL     1      28.959   8.909  49.730  1.00  0.00    -0.398 N 
HETATM   10  C15 UNL     1      30.127   9.248  49.026  1.00  0.00     0.083 C 
HETATM   11  C16 UNL     1      31.063   8.782  48.344  1.00  0.00     0.018 C 
HETATM   12  C17 UNL     1      31.952   7.878  47.622  1.00  0.00     0.014 C 
HETATM   13  C18 UNL     1      31.600   6.637  47.620  1.00  0.00    -0.012 C 
HETATM   14  C19 UNL     1      31.952   5.349  47.177  1.00  0.00     0.389 C 
HETATM   15  O3  UNL     1      32.131   4.152  46.859  1.00  0.00    -0.405 OA
HETATM   16  C20 UNL     1      30.343   5.994  47.923  1.00  0.00     0.014 C 
HETATM   17  C21 UNL     1      29.281   5.276  48.168  1.00  0.00     0.009 C 
HETATM   18  H11 UNL     1      29.211   8.488  50.666  1.00  0.00     0.158 HD
ENDROOT
BRANCH   1  19
HETATM   19  O2  UNL     1      25.111   3.579  49.574  1.00  0.00    -0.291 OA
BRANCH  19  20
HETATM   20  C6  UNL     1      23.943   4.003  50.287  1.00  0.00     0.183 A 
HETATM   21  N2  UNL     1      24.076   4.383  51.550  1.00  0.00    -0.217 NA
HETATM   22  C5  UNL     1      23.050   4.812  52.341  1.00  0.00     0.236 A 
HETATM   23  N1  UNL     1      21.819   4.851  51.792  1.00  0.00    -0.241 NA
HETATM   24  C4  UNL     1      21.654   4.473  50.516  1.00  0.00     0.075 A 
HETATM   25  C3  UNL     1      20.416   4.520  49.844  1.00  0.00     0.072 A 
HETATM   26  C22 UNL     1      22.674   4.020  49.661  1.00  0.00     0.049 A 
HETATM   27  C2  UNL     1      20.250   4.159  48.497  1.00  0.00     0.103 A 
HETATM   28  C24 UNL     1      21.329   3.731  47.768  1.00  0.00     0.102 A 
HETATM   29  C23 UNL     1      22.568   3.654  48.354  1.00  0.00     0.057 A 
BRANCH  27  30
HETATM   30  O1  UNL     1      18.948   4.292  48.071  1.00  0.00    -0.353 OA
HETATM   31  C1  UNL     1      18.406   5.522  47.707  1.00  0.00     0.210 C 
ENDBRANCH  27  30
BRANCH  28  32
HETATM   32  O4  UNL     1      21.033   3.410  46.454  1.00  0.00    -0.353 OA
HETATM   33  C25 UNL     1      21.814   4.022  45.431  1.00  0.00     0.210 C 
ENDBRANCH  28  32
ENDBRANCH  19  20
ENDBRANCH   1  19
TORSDOF 4
ENDMDL
