MODEL 1
REMARK VINA RESULT:      -7.9      0.000      0.000
REMARK  6 active torsions:
REMARK  status: ('A' for Active; 'I' for Inactive)
REMARK    1  A    between atoms: C3_3  and  C4_4 
REMARK       I    between atoms: C4_4  and  N1_6 
REMARK    2  A    between atoms: N1_6  and  C5_7 
REMARK    3  A    between atoms: C8_10  and  N2_11 
REMARK    4  A    between atoms: C11_15  and  C12_16 
REMARK    5  A    between atoms: C12_16  and  N4_17 
REMARK    6  A    between atoms: N4_17  and  C13_18 
ROOT
HETATM    1  N2  UNL     1      21.279   2.540  52.537  1.00  0.00    -0.250 NA
HETATM    2  C9  UNL     1      20.214   2.112  51.949  1.00  0.00     0.210 C 
HETATM    3  C10 UNL     1      19.072   2.986  51.892  1.00  0.00     0.107 C 
HETATM    4  N3  UNL     1      18.129   3.687  51.834  1.00  0.00    -0.191 NA
ENDROOT
BRANCH   1   5
HETATM    5  C8  UNL     1      22.450   1.740  52.637  1.00  0.00     0.065 A 
HETATM    6  C7  UNL     1      22.423   0.579  53.415  1.00  0.00     0.034 A 
HETATM    7  C6  UNL     1      23.546  -0.211  53.528  1.00  0.00     0.032 A 
HETATM    8  C5  UNL     1      24.685   0.159  52.868  1.00  0.00     0.035 A 
HETATM    9  C19 UNL     1      24.718   1.311  52.094  1.00  0.00     0.040 A 
HETATM   10  C11 UNL     1      23.591   2.130  51.964  1.00  0.00    -0.010 A 
BRANCH   8  11
HETATM   11  N1  UNL     1      25.972  -0.492  52.830  1.00  0.00    -0.324 N 
HETATM   12  C4  UNL     1      26.763   0.129  53.856  1.00  0.00     0.245 C 
HETATM   13  O1  UNL     1      26.110   1.024  54.458  1.00  0.00    -0.268 OA
HETATM   14  H6  UNL     1      26.435  -1.263  52.265  1.00  0.00     0.169 HD
BRANCH  12  15
HETATM   15  C3  UNL     1      28.162  -0.239  54.158  1.00  0.00     0.070 C 
HETATM   16  C2  UNL     1      29.069  -0.830  53.409  1.00  0.00    -0.026 C 
HETATM   17  C1  UNL     1      30.443  -1.124  53.890  1.00  0.00     0.036 C 
ENDBRANCH  12  15
ENDBRANCH   8  11
BRANCH  10  18
HETATM   18  C12 UNL     1      23.609   3.368  51.136  1.00  0.00     0.161 C 
BRANCH  18  19
HETATM   19  N4  UNL     1      24.106   3.098  49.801  1.00  0.00    -0.386 N 
HETATM   20  H12 UNL     1      23.830   2.357  49.117  1.00  0.00     0.160 HD
BRANCH  19  21
HETATM   21  C13 UNL     1      25.124   4.004  49.394  1.00  0.00     0.029 A 
HETATM   22  C14 UNL     1      26.460   3.647  49.350  1.00  0.00     0.029 A 
HETATM   23  C15 UNL     1      27.456   4.542  48.944  1.00  0.00     0.004 A 
HETATM   24  C16 UNL     1      27.083   5.834  48.573  1.00  0.00     0.019 A 
HETATM   25  C17 UNL     1      25.751   6.257  48.595  1.00  0.00     0.013 A 
HETATM   26 BR1  UNL     1      25.225   8.009  48.094  1.00  0.00    -0.051 Br
HETATM   27  C18 UNL     1      24.852   5.299  49.010  1.00  0.00     0.048 A 
ENDBRANCH  19  21
ENDBRANCH  18  19
ENDBRANCH  10  18
ENDBRANCH   1   5
TORSDOF 6
ENDMDL
MODEL 2
REMARK VINA RESULT:      -7.9      3.697      7.004
REMARK  6 active torsions:
REMARK  status: ('A' for Active; 'I' for Inactive)
REMARK    1  A    between atoms: C3_3  and  C4_4 
REMARK       I    between atoms: C4_4  and  N1_6 
REMARK    2  A    between atoms: N1_6  and  C5_7 
REMARK    3  A    between atoms: C8_10  and  N2_11 
REMARK    4  A    between atoms: C11_15  and  C12_16 
REMARK    5  A    between atoms: C12_16  and  N4_17 
REMARK    6  A    between atoms: N4_17  and  C13_18 
ROOT
HETATM    1  N2  UNL     1      23.084  -0.020  52.769  1.00  0.00    -0.250 NA
HETATM    2  C9  UNL     1      22.645  -0.035  53.981  1.00  0.00     0.210 C 
HETATM    3  C10 UNL     1      21.928  -1.199  54.430  1.00  0.00     0.107 C 
HETATM    4  N3  UNL     1      21.341  -2.143  54.814  1.00  0.00    -0.191 NA
ENDROOT
BRANCH   1   5
HETATM    5  C8  UNL     1      23.803   1.091  52.246  1.00  0.00     0.065 A 
HETATM    6  C7  UNL     1      25.050   1.413  52.785  1.00  0.00     0.034 A 
HETATM    7  C6  UNL     1      25.765   2.486  52.297  1.00  0.00     0.032 A 
HETATM    8  C5  UNL     1      25.233   3.226  51.278  1.00  0.00     0.035 A 
HETATM    9  C19 UNL     1      23.993   2.911  50.739  1.00  0.00     0.040 A 
HETATM   10  C11 UNL     1      23.249   1.827  51.218  1.00  0.00    -0.010 A 
BRANCH   8  11
HETATM   11  N1  UNL     1      25.778   4.380  50.606  1.00  0.00    -0.324 N 
HETATM   12  C4  UNL     1      26.735   3.875  49.660  1.00  0.00     0.245 C 
HETATM   13  O1  UNL     1      26.801   2.617  49.704  1.00  0.00    -0.268 OA
HETATM   14  H6  UNL     1      25.648   5.434  50.643  1.00  0.00     0.169 HD
BRANCH  12  15
HETATM   15  C3  UNL     1      27.535   4.730  48.757  1.00  0.00     0.070 C 
HETATM   16  C2  UNL     1      27.471   6.024  48.529  1.00  0.00    -0.026 C 
HETATM   17  C1  UNL     1      28.370   6.718  47.572  1.00  0.00     0.036 C 
ENDBRANCH  12  15
ENDBRANCH   8  11
BRANCH  10  18
HETATM   18  C12 UNL     1      21.919   1.473  50.648  1.00  0.00     0.161 C 
BRANCH  18  19
HETATM   19  N4  UNL     1      20.846   1.837  51.552  1.00  0.00    -0.386 N 
HETATM   20  H12 UNL     1      20.821   2.558  52.310  1.00  0.00     0.160 HD
BRANCH  19  21
HETATM   21  C13 UNL     1      19.664   1.076  51.347  1.00  0.00     0.029 A 
HETATM   22  C14 UNL     1      18.846   1.258  50.246  1.00  0.00     0.029 A 
HETATM   23  C15 UNL     1      17.685   0.502  50.047  1.00  0.00     0.004 A 
HETATM   24  C16 UNL     1      17.348  -0.464  50.994  1.00  0.00     0.019 A 
HETATM   25  C17 UNL     1      18.131  -0.698  52.128  1.00  0.00     0.013 A 
HETATM   26 BR1  UNL     1      17.688  -2.009  53.425  1.00  0.00    -0.051 Br
HETATM   27  C18 UNL     1      19.250   0.099  52.227  1.00  0.00     0.048 A 
ENDBRANCH  19  21
ENDBRANCH  18  19
ENDBRANCH  10  18
ENDBRANCH   1   5
TORSDOF 6
ENDMDL
MODEL 3
REMARK VINA RESULT:      -7.8      2.184      6.076
REMARK  6 active torsions:
REMARK  status: ('A' for Active; 'I' for Inactive)
REMARK    1  A    between atoms: C3_3  and  C4_4 
REMARK       I    between atoms: C4_4  and  N1_6 
REMARK    2  A    between atoms: N1_6  and  C5_7 
REMARK    3  A    between atoms: C8_10  and  N2_11 
REMARK    4  A    between atoms: C11_15  and  C12_16 
REMARK    5  A    between atoms: C12_16  and  N4_17 
REMARK    6  A    between atoms: N4_17  and  C13_18 
ROOT
HETATM    1  N2  UNL     1      25.827   0.504  53.456  1.00  0.00    -0.250 NA
HETATM    2  C9  UNL     1      26.368   0.246  54.597  1.00  0.00     0.210 C 
HETATM    3  C10 UNL     1      27.804   0.236  54.683  1.00  0.00     0.107 C 
HETATM    4  N3  UNL     1      28.976   0.225  54.772  1.00  0.00    -0.191 NA
ENDROOT
BRANCH   1   5
HETATM    5  C8  UNL     1      24.416   0.534  53.285  1.00  0.00     0.065 A 
HETATM    6  C7  UNL     1      23.652  -0.557  53.708  1.00  0.00     0.034 A 
HETATM    7  C6  UNL     1      22.283  -0.551  53.552  1.00  0.00     0.032 A 
HETATM    8  C5  UNL     1      21.686   0.538  52.979  1.00  0.00     0.035 A 
HETATM    9  C19 UNL     1      22.440   1.624  52.558  1.00  0.00     0.040 A 
HETATM   10  C11 UNL     1      23.832   1.642  52.704  1.00  0.00    -0.010 A 
BRANCH   8  11
HETATM   11  N1  UNL     1      20.289   0.779  52.710  1.00  0.00    -0.324 N 
HETATM   12  C4  UNL     1      20.083   0.432  51.331  1.00  0.00     0.245 C 
HETATM   13  O1  UNL     1      21.153   0.033  50.796  1.00  0.00    -0.268 OA
HETATM   14  H6  UNL     1      19.443   1.126  53.251  1.00  0.00     0.169 HD
BRANCH  12  15
HETATM   15  C3  UNL     1      18.782   0.534  50.639  1.00  0.00     0.070 C 
HETATM   16  C2  UNL     1      17.638  -0.071  50.878  1.00  0.00    -0.026 C 
HETATM   17  C1  UNL     1      16.418   0.161  50.064  1.00  0.00     0.036 C 
ENDBRANCH  12  15
ENDBRANCH   8  11
BRANCH  10  18
HETATM   18  C12 UNL     1      24.654   2.801  52.260  1.00  0.00     0.161 C 
BRANCH  18  19
HETATM   19  N4  UNL     1      25.264   2.549  50.969  1.00  0.00    -0.386 N 
HETATM   20  H12 UNL     1      25.433   1.645  50.471  1.00  0.00     0.160 HD
BRANCH  19  21
HETATM   21  C13 UNL     1      25.682   3.737  50.311  1.00  0.00     0.029 A 
HETATM   22  C14 UNL     1      26.748   3.761  49.429  1.00  0.00     0.029 A 
HETATM   23  C15 UNL     1      27.152   4.933  48.780  1.00  0.00     0.004 A 
HETATM   24  C16 UNL     1      26.453   6.112  49.036  1.00  0.00     0.019 A 
HETATM   25  C17 UNL     1      25.367   6.156  49.915  1.00  0.00     0.013 A 
HETATM   26 BR1  UNL     1      24.404   7.750  50.274  1.00  0.00    -0.051 Br
HETATM   27  C18 UNL     1      25.053   4.948  50.499  1.00  0.00     0.048 A 
ENDBRANCH  19  21
ENDBRANCH  18  19
ENDBRANCH  10  18
ENDBRANCH   1   5
TORSDOF 6
ENDMDL
MODEL 4
REMARK VINA RESULT:      -7.8      2.237      6.137
REMARK  6 active torsions:
REMARK  status: ('A' for Active; 'I' for Inactive)
REMARK    1  A    between atoms: C3_3  and  C4_4 
REMARK       I    between atoms: C4_4  and  N1_6 
REMARK    2  A    between atoms: N1_6  and  C5_7 
REMARK    3  A    between atoms: C8_10  and  N2_11 
REMARK    4  A    between atoms: C11_15  and  C12_16 
REMARK    5  A    between atoms: C12_16  and  N4_17 
REMARK    6  A    between atoms: N4_17  and  C13_18 
ROOT
HETATM    1  N2  UNL     1      26.175   0.555  53.286  1.00  0.00    -0.250 NA
HETATM    2  C9  UNL     1      26.834   0.426  54.386  1.00  0.00     0.210 C 
HETATM    3  C10 UNL     1      28.272   0.421  54.321  1.00  0.00     0.107 C 
HETATM    4  N3  UNL     1      29.447   0.417  54.287  1.00  0.00    -0.191 NA
ENDROOT
BRANCH   1   5
HETATM    5  C8  UNL     1      24.753   0.570  53.263  1.00  0.00     0.065 A 
HETATM    6  C7  UNL     1      24.048  -0.507  53.807  1.00  0.00     0.034 A 
HETATM    7  C6  UNL     1      22.670  -0.516  53.796  1.00  0.00     0.032 A 
HETATM    8  C5  UNL     1      22.006   0.545  53.244  1.00  0.00     0.035 A 
HETATM    9  C19 UNL     1      22.701   1.617  52.701  1.00  0.00     0.040 A 
HETATM   10  C11 UNL     1      24.100   1.649  52.701  1.00  0.00    -0.010 A 
BRANCH   8  11
HETATM   11  N1  UNL     1      20.587   0.766  53.113  1.00  0.00    -0.324 N 
HETATM   12  C4  UNL     1      20.233   0.316  51.794  1.00  0.00     0.245 C 
HETATM   13  O1  UNL     1      21.240  -0.124  51.176  1.00  0.00    -0.268 OA
HETATM   14  H6  UNL     1      19.803   1.154  53.716  1.00  0.00     0.169 HD
BRANCH  12  15
HETATM   15  C3  UNL     1      18.863   0.367  51.243  1.00  0.00     0.070 C 
HETATM   16  C2  UNL     1      17.801  -0.356  51.529  1.00  0.00    -0.026 C 
HETATM   17  C1  UNL     1      16.489  -0.159  50.862  1.00  0.00     0.036 C 
ENDBRANCH  12  15
ENDBRANCH   8  11
BRANCH  10  18
HETATM   18  C12 UNL     1      24.861   2.793  52.126  1.00  0.00     0.161 C 
BRANCH  18  19
HETATM   19  N4  UNL     1      25.219   2.544  50.744  1.00  0.00    -0.386 N 
HETATM   20  H12 UNL     1      25.310   1.641  50.226  1.00  0.00     0.160 HD
BRANCH  19  21
HETATM   21  C13 UNL     1      25.478   3.735  50.014  1.00  0.00     0.029 A 
HETATM   22  C14 UNL     1      24.491   4.664  49.733  1.00  0.00     0.029 A 
HETATM   23  C15 UNL     1      24.754   5.837  49.018  1.00  0.00     0.004 A 
HETATM   24  C16 UNL     1      26.056   6.072  48.575  1.00  0.00     0.019 A 
HETATM   25  C17 UNL     1      27.098   5.175  48.826  1.00  0.00     0.013 A 
HETATM   26 BR1  UNL     1      28.874   5.478  48.233  1.00  0.00    -0.051 Br
HETATM   27  C18 UNL     1      26.732   4.053  49.538  1.00  0.00     0.048 A 
ENDBRANCH  19  21
ENDBRANCH  18  19
ENDBRANCH  10  18
ENDBRANCH   1   5
TORSDOF 6
ENDMDL
MODEL 5
REMARK VINA RESULT:      -7.7      3.876      6.945
REMARK  6 active torsions:
REMARK  status: ('A' for Active; 'I' for Inactive)
REMARK    1  A    between atoms: C3_3  and  C4_4 
REMARK       I    between atoms: C4_4  and  N1_6 
REMARK    2  A    between atoms: N1_6  and  C5_7 
REMARK    3  A    between atoms: C8_10  and  N2_11 
REMARK    4  A    between atoms: C11_15  and  C12_16 
REMARK    5  A    between atoms: C12_16  and  N4_17 
REMARK    6  A    between atoms: N4_17  and  C13_18 
ROOT
HETATM    1  N2  UNL     1      23.475   3.121  51.794  1.00  0.00    -0.250 NA
HETATM    2  C9  UNL     1      23.199   3.996  50.889  1.00  0.00     0.210 C 
HETATM    3  C10 UNL     1      24.267   4.823  50.394  1.00  0.00     0.107 C 
HETATM    4  N3  UNL     1      25.129   5.506  49.976  1.00  0.00    -0.191 NA
ENDROOT
BRANCH   1   5
HETATM    5  C8  UNL     1      22.478   2.264  52.337  1.00  0.00     0.065 A 
HETATM    6  C7  UNL     1      21.174   2.743  52.489  1.00  0.00     0.034 A 
HETATM    7  C6  UNL     1      20.190   1.932  53.013  1.00  0.00     0.032 A 
HETATM    8  C5  UNL     1      20.512   0.654  53.380  1.00  0.00     0.035 A 
HETATM    9  C19 UNL     1      21.806   0.174  53.231  1.00  0.00     0.040 A 
HETATM   10  C11 UNL     1      22.822   0.978  52.702  1.00  0.00    -0.010 A 
BRANCH   8  11
HETATM   11  N1  UNL     1      19.672  -0.373  53.946  1.00  0.00    -0.324 N 
HETATM   12  C4  UNL     1      18.795  -0.797  52.889  1.00  0.00     0.245 C 
HETATM   13  O1  UNL     1      19.023  -0.164  51.823  1.00  0.00    -0.268 OA
HETATM   14  H6  UNL     1      19.558  -0.851  54.888  1.00  0.00     0.169 HD
BRANCH  12  15
HETATM   15  C3  UNL     1      17.761  -1.843  53.043  1.00  0.00     0.070 C 
HETATM   16  C2  UNL     1      17.817  -3.016  53.635  1.00  0.00    -0.026 C 
HETATM   17  C1  UNL     1      16.660  -3.946  53.689  1.00  0.00     0.036 C 
ENDBRANCH  12  15
ENDBRANCH   8  11
BRANCH  10  18
HETATM   18  C12 UNL     1      24.214   0.476  52.532  1.00  0.00     0.161 C 
BRANCH  18  19
HETATM   19  N4  UNL     1      24.902   0.399  53.805  1.00  0.00    -0.386 N 
HETATM   20  H12 UNL     1      24.536   0.157  54.754  1.00  0.00     0.160 HD
BRANCH  19  21
HETATM   21  C13 UNL     1      26.287   0.706  53.707  1.00  0.00     0.029 A 
HETATM   22  C14 UNL     1      26.756   2.006  53.644  1.00  0.00     0.029 A 
HETATM   23  C15 UNL     1      28.121   2.301  53.552  1.00  0.00     0.004 A 
HETATM   24  C16 UNL     1      29.032   1.246  53.524  1.00  0.00     0.019 A 
HETATM   25  C17 UNL     1      28.623  -0.090  53.585  1.00  0.00     0.013 A 
HETATM   26 BR1  UNL     1      29.848  -1.538  53.548  1.00  0.00    -0.051 Br
HETATM   27  C18 UNL     1      27.260  -0.269  53.674  1.00  0.00     0.048 A 
ENDBRANCH  19  21
ENDBRANCH  18  19
ENDBRANCH  10  18
ENDBRANCH   1   5
TORSDOF 6
ENDMDL
MODEL 6
REMARK VINA RESULT:      -7.6      3.627      7.288
REMARK  6 active torsions:
REMARK  status: ('A' for Active; 'I' for Inactive)
REMARK    1  A    between atoms: C3_3  and  C4_4 
REMARK       I    between atoms: C4_4  and  N1_6 
REMARK    2  A    between atoms: N1_6  and  C5_7 
REMARK    3  A    between atoms: C8_10  and  N2_11 
REMARK    4  A    between atoms: C11_15  and  C12_16 
REMARK    5  A    between atoms: C12_16  and  N4_17 
REMARK    6  A    between atoms: N4_17  and  C13_18 
ROOT
HETATM    1  N2  UNL     1      23.707   3.411  49.530  1.00  0.00    -0.250 NA
HETATM    2  C9  UNL     1      22.987   2.816  48.643  1.00  0.00     0.210 C 
HETATM    3  C10 UNL     1      22.102   1.767  49.077  1.00  0.00     0.107 C 
HETATM    4  N3  UNL     1      21.373   0.908  49.414  1.00  0.00    -0.191 NA
ENDROOT
BRANCH   1   5
HETATM    5  C8  UNL     1      24.606   4.458  49.185  1.00  0.00     0.065 A 
HETATM    6  C7  UNL     1      24.105   5.628  48.610  1.00  0.00     0.034 A 
HETATM    7  C6  UNL     1      24.956   6.656  48.265  1.00  0.00     0.032 A 
HETATM    8  C5  UNL     1      26.297   6.511  48.496  1.00  0.00     0.035 A 
HETATM    9  C19 UNL     1      26.800   5.350  49.067  1.00  0.00     0.040 A 
HETATM   10  C11 UNL     1      25.956   4.293  49.425  1.00  0.00    -0.010 A 
BRANCH   8  11
HETATM   11  N1  UNL     1      27.375   7.430  48.227  1.00  0.00    -0.324 N 
HETATM   12  C4  UNL     1      27.429   8.323  49.352  1.00  0.00     0.245 C 
HETATM   13  O1  UNL     1      26.545   8.037  50.204  1.00  0.00    -0.268 OA
HETATM   14  H6  UNL     1      28.084   7.589  47.451  1.00  0.00     0.169 HD
BRANCH  12  15
HETATM   15  C3  UNL     1      28.398   9.431  49.481  1.00  0.00     0.070 C 
HETATM   16  C2  UNL     1      29.538   9.644  48.861  1.00  0.00    -0.026 C 
HETATM   17  C1  UNL     1      30.390  10.831  49.127  1.00  0.00     0.036 C 
ENDBRANCH  12  15
ENDBRANCH   8  11
BRANCH  10  18
HETATM   18  C12 UNL     1      26.480   3.042  50.041  1.00  0.00     0.161 C 
BRANCH  18  19
HETATM   19  N4  UNL     1      26.309   3.055  51.481  1.00  0.00    -0.386 N 
HETATM   20  H12 UNL     1      26.405   3.842  52.162  1.00  0.00     0.160 HD
BRANCH  19  21
HETATM   21  C13 UNL     1      25.958   1.783  52.010  1.00  0.00     0.029 A 
HETATM   22  C14 UNL     1      26.868   0.748  52.120  1.00  0.00     0.029 A 
HETATM   23  C15 UNL     1      26.517  -0.501  52.645  1.00  0.00     0.004 A 
HETATM   24  C16 UNL     1      25.204  -0.701  53.070  1.00  0.00     0.019 A 
HETATM   25  C17 UNL     1      24.235   0.305  52.987  1.00  0.00     0.013 A 
HETATM   26 BR1  UNL     1      22.445   0.051  53.560  1.00  0.00    -0.051 Br
HETATM   27  C18 UNL     1      24.686   1.493  52.455  1.00  0.00     0.048 A 
ENDBRANCH  19  21
ENDBRANCH  18  19
ENDBRANCH  10  18
ENDBRANCH   1   5
TORSDOF 6
ENDMDL
MODEL 7
REMARK VINA RESULT:      -7.5      3.831      7.544
REMARK  6 active torsions:
REMARK  status: ('A' for Active; 'I' for Inactive)
REMARK    1  A    between atoms: C3_3  and  C4_4 
REMARK       I    between atoms: C4_4  and  N1_6 
REMARK    2  A    between atoms: N1_6  and  C5_7 
REMARK    3  A    between atoms: C8_10  and  N2_11 
REMARK    4  A    between atoms: C11_15  and  C12_16 
REMARK    5  A    between atoms: C12_16  and  N4_17 
REMARK    6  A    between atoms: N4_17  and  C13_18 
ROOT
HETATM    1  N2  UNL     1      23.852   4.160  49.661  1.00  0.00    -0.250 NA
HETATM    2  C9  UNL     1      22.851   4.635  50.319  1.00  0.00     0.210 C 
HETATM    3  C10 UNL     1      21.843   3.718  50.781  1.00  0.00     0.107 C 
HETATM    4  N3  UNL     1      21.011   2.983  51.167  1.00  0.00    -0.191 NA
ENDROOT
BRANCH   1   5
HETATM    5  C8  UNL     1      24.892   4.998  49.170  1.00  0.00     0.065 A 
HETATM    6  C7  UNL     1      24.566   6.235  48.609  1.00  0.00     0.034 A 
HETATM    7  C6  UNL     1      25.555   7.064  48.125  1.00  0.00     0.032 A 
HETATM    8  C5  UNL     1      26.858   6.655  48.205  1.00  0.00     0.035 A 
HETATM    9  C19 UNL     1      27.187   5.427  48.761  1.00  0.00     0.040 A 
HETATM   10  C11 UNL     1      26.201   4.568  49.259  1.00  0.00    -0.010 A 
BRANCH   8  11
HETATM   11  N1  UNL     1      28.056   7.333  47.774  1.00  0.00    -0.324 N 
HETATM   12  C4  UNL     1      28.306   8.359  48.749  1.00  0.00     0.245 C 
HETATM   13  O1  UNL     1      27.431   8.350  49.656  1.00  0.00    -0.268 OA
HETATM   14  H6  UNL     1      28.742   7.258  46.966  1.00  0.00     0.169 HD
BRANCH  12  15
HETATM   15  C3  UNL     1      29.446   9.298  48.687  1.00  0.00     0.070 C 
HETATM   16  C2  UNL     1      29.504  10.587  48.944  1.00  0.00    -0.026 C 
HETATM   17  C1  UNL     1      30.756  11.376  48.824  1.00  0.00     0.036 C 
ENDBRANCH  12  15
ENDBRANCH   8  11
BRANCH  10  18
HETATM   18  C12 UNL     1      26.538   3.248  49.861  1.00  0.00     0.161 C 
BRANCH  18  19
HETATM   19  N4  UNL     1      26.554   3.321  51.309  1.00  0.00    -0.386 N 
HETATM   20  H12 UNL     1      26.936   4.061  51.941  1.00  0.00     0.160 HD
BRANCH  19  21
HETATM   21  C13 UNL     1      25.948   2.194  51.928  1.00  0.00     0.029 A 
HETATM   22  C14 UNL     1      24.713   2.262  52.546  1.00  0.00     0.029 A 
HETATM   23  C15 UNL     1      24.119   1.148  53.150  1.00  0.00     0.004 A 
HETATM   24  C16 UNL     1      24.802  -0.068  53.125  1.00  0.00     0.019 A 
HETATM   25  C17 UNL     1      26.054  -0.204  52.516  1.00  0.00     0.013 A 
HETATM   26 BR1  UNL     1      26.996  -1.849  52.471  1.00  0.00    -0.051 Br
HETATM   27  C18 UNL     1      26.546   0.953  51.952  1.00  0.00     0.048 A 
ENDBRANCH  19  21
ENDBRANCH  18  19
ENDBRANCH  10  18
ENDBRANCH   1   5
TORSDOF 6
ENDMDL
MODEL 8
REMARK VINA RESULT:      -7.5      2.392      2.889
REMARK  6 active torsions:
REMARK  status: ('A' for Active; 'I' for Inactive)
REMARK    1  A    between atoms: C3_3  and  C4_4 
REMARK       I    between atoms: C4_4  and  N1_6 
REMARK    2  A    between atoms: N1_6  and  C5_7 
REMARK    3  A    between atoms: C8_10  and  N2_11 
REMARK    4  A    between atoms: C11_15  and  C12_16 
REMARK    5  A    between atoms: C12_16  and  N4_17 
REMARK    6  A    between atoms: N4_17  and  C13_18 
ROOT
HETATM    1  N2  UNL     1      23.398   5.410  51.063  1.00  0.00    -0.250 NA
HETATM    2  C9  UNL     1      22.158   5.592  51.362  1.00  0.00     0.210 C 
HETATM    3  C10 UNL     1      21.518   6.798  50.906  1.00  0.00     0.107 C 
HETATM    4  N3  UNL     1      20.979   7.777  50.540  1.00  0.00    -0.191 NA
ENDROOT
BRANCH   1   5
HETATM    5  C8  UNL     1      24.104   4.246  51.474  1.00  0.00     0.065 A 
HETATM    6  C7  UNL     1      23.844   3.697  52.733  1.00  0.00     0.034 A 
HETATM    7  C6  UNL     1      24.516   2.570  53.154  1.00  0.00     0.032 A 
HETATM    8  C5  UNL     1      25.439   1.999  52.321  1.00  0.00     0.035 A 
HETATM    9  C19 UNL     1      25.701   2.540  51.070  1.00  0.00     0.040 A 
HETATM   10  C11 UNL     1      25.031   3.684  50.619  1.00  0.00    -0.010 A 
BRANCH   8  11
HETATM   11  N1  UNL     1      26.261   0.833  52.531  1.00  0.00    -0.324 N 
HETATM   12  C4  UNL     1      27.301   1.236  53.438  1.00  0.00     0.245 C 
HETATM   13  O1  UNL     1      27.178   2.447  53.764  1.00  0.00    -0.268 OA
HETATM   14  H6  UNL     1      26.277  -0.176  52.197  1.00  0.00     0.169 HD
BRANCH  12  15
HETATM   15  C3  UNL     1      28.372   0.338  53.918  1.00  0.00     0.070 C 
HETATM   16  C2  UNL     1      29.009  -0.635  53.303  1.00  0.00    -0.026 C 
HETATM   17  C1  UNL     1      30.071  -1.441  53.957  1.00  0.00     0.036 C 
ENDBRANCH  12  15
ENDBRANCH   8  11
BRANCH  10  18
HETATM   18  C12 UNL     1      25.299   4.275  49.279  1.00  0.00     0.161 C 
BRANCH  18  19
HETATM   19  N4  UNL     1      25.626   5.683  49.381  1.00  0.00    -0.386 N 
HETATM   20  H12 UNL     1      25.061   6.479  49.756  1.00  0.00     0.160 HD
BRANCH  19  21
HETATM   21  C13 UNL     1      26.922   5.989  48.886  1.00  0.00     0.029 A 
HETATM   22  C14 UNL     1      27.852   5.010  48.582  1.00  0.00     0.029 A 
HETATM   23  C15 UNL     1      29.125   5.318  48.090  1.00  0.00     0.004 A 
HETATM   24  C16 UNL     1      29.462   6.659  47.902  1.00  0.00     0.019 A 
HETATM   25  C17 UNL     1      28.569   7.696  48.189  1.00  0.00     0.013 A 
HETATM   26 BR1  UNL     1      29.009   9.524  47.939  1.00  0.00    -0.051 Br
HETATM   27  C18 UNL     1      27.344   7.283  48.667  1.00  0.00     0.048 A 
ENDBRANCH  19  21
ENDBRANCH  18  19
ENDBRANCH  10  18
ENDBRANCH   1   5
TORSDOF 6
ENDMDL
MODEL 9
REMARK VINA RESULT:      -7.5      3.202      6.152
REMARK  6 active torsions:
REMARK  status: ('A' for Active; 'I' for Inactive)
REMARK    1  A    between atoms: C3_3  and  C4_4 
REMARK       I    between atoms: C4_4  and  N1_6 
REMARK    2  A    between atoms: N1_6  and  C5_7 
REMARK    3  A    between atoms: C8_10  and  N2_11 
REMARK    4  A    between atoms: C11_15  and  C12_16 
REMARK    5  A    between atoms: C12_16  and  N4_17 
REMARK    6  A    between atoms: N4_17  and  C13_18 
ROOT
HETATM    1  N2  UNL     1      22.018   3.528  51.472  1.00  0.00    -0.250 NA
HETATM    2  C9  UNL     1      20.901   3.736  50.862  1.00  0.00     0.210 C 
HETATM    3  C10 UNL     1      19.679   3.536  51.595  1.00  0.00     0.107 C 
HETATM    4  N3  UNL     1      18.670   3.379  52.178  1.00  0.00    -0.191 NA
ENDROOT
BRANCH   1   5
HETATM    5  C8  UNL     1      23.270   3.704  50.820  1.00  0.00     0.065 A 
HETATM    6  C7  UNL     1      23.298   4.176  49.506  1.00  0.00     0.034 A 
HETATM    7  C6  UNL     1      24.498   4.353  48.853  1.00  0.00     0.032 A 
HETATM    8  C5  UNL     1      25.660   4.059  49.513  1.00  0.00     0.035 A 
HETATM    9  C19 UNL     1      25.639   3.589  50.819  1.00  0.00     0.040 A 
HETATM   10  C11 UNL     1      24.432   3.401  51.503  1.00  0.00    -0.010 A 
BRANCH   8  11
HETATM   11  N1  UNL     1      27.023   4.158  49.052  1.00  0.00    -0.324 N 
HETATM   12  C4  UNL     1      27.242   5.546  48.749  1.00  0.00     0.245 C 
HETATM   13  O1  UNL     1      26.208   6.231  48.974  1.00  0.00    -0.268 OA
HETATM   14  H6  UNL     1      27.839   3.496  48.896  1.00  0.00     0.169 HD
BRANCH  12  15
HETATM   15  C3  UNL     1      28.518   6.089  48.238  1.00  0.00     0.070 C 
HETATM   16  C2  UNL     1      29.678   5.500  48.043  1.00  0.00    -0.026 C 
HETATM   17  C1  UNL     1      30.867   6.217  47.515  1.00  0.00     0.036 C 
ENDBRANCH  12  15
ENDBRANCH   8  11
BRANCH  10  18
HETATM   18  C12 UNL     1      24.392   2.901  52.905  1.00  0.00     0.161 C 
BRANCH  18  19
HETATM   19  N4  UNL     1      25.728   2.705  53.431  1.00  0.00    -0.386 N 
HETATM   20  H12 UNL     1      26.387   3.390  53.867  1.00  0.00     0.160 HD
BRANCH  19  21
HETATM   21  C13 UNL     1      26.178   1.361  53.318  1.00  0.00     0.029 A 
HETATM   22  C14 UNL     1      25.315   0.308  53.076  1.00  0.00     0.029 A 
HETATM   23  C15 UNL     1      25.764  -1.013  52.962  1.00  0.00     0.004 A 
HETATM   24  C16 UNL     1      27.129  -1.267  53.098  1.00  0.00     0.019 A 
HETATM   25  C17 UNL     1      28.053  -0.248  53.343  1.00  0.00     0.013 A 
HETATM   26 BR1  UNL     1      29.912  -0.576  53.530  1.00  0.00    -0.051 Br
HETATM   27  C18 UNL     1      27.506   1.013  53.437  1.00  0.00     0.048 A 
ENDBRANCH  19  21
ENDBRANCH  18  19
ENDBRANCH  10  18
ENDBRANCH   1   5
TORSDOF 6
ENDMDL
