MODEL 1
REMARK VINA RESULT:      -9.1      0.000      0.000
REMARK  4 active torsions:
REMARK  status: ('A' for Active; 'I' for Inactive)
REMARK    1  A    between atoms: C3_4  and  N2_5 
REMARK    2  A    between atoms: N2_5  and  C4_6 
REMARK    3  A    between atoms: C6_9  and  N4_10 
REMARK       I    between atoms: N4_10  and  C7_11 
REMARK       I    between atoms: C7_11  and  N5_13 
REMARK    4  A    between atoms: N5_13  and  C8_14 
ROOT
HETATM    1  C4  UNL     1      24.123   3.672  51.919  1.00  0.00     0.170 A 
HETATM    2  N3  UNL     1      23.653   4.685  52.172  1.00  0.00    -0.234 NA
HETATM    3  C5  UNL     1      22.421   5.103  51.841  1.00  0.00     0.157 A 
HETATM    4  C6  UNL     1      21.635   4.227  51.125  1.00  0.00     0.099 A 
HETATM    5  S1  UNL     1      22.716   2.835  50.960  1.00  0.00    -0.033 SA
ENDROOT
BRANCH   1   6
HETATM    6  N2  UNL     1      25.394   2.958  52.133  1.00  0.00    -0.345 N 
HETATM    7  H5  UNL     1      26.097   3.062  51.357  1.00  0.00     0.163 HD
BRANCH   6   8
HETATM    8  C3  UNL     1      25.261   2.288  53.437  1.00  0.00     0.222 A 
HETATM    9  N1  UNL     1      24.262   1.290  53.353  1.00  0.00    -0.249 NA
HETATM   10  C2  UNL     1      24.295   0.052  53.513  1.00  0.00     0.121 A 
HETATM   11  C1  UNL     1      23.131  -0.896  53.385  1.00  0.00     0.093 C 
HETATM   12  N8  UNL     1      25.543  -0.521  53.881  1.00  0.00    -0.221 NA
HETATM   13  C18 UNL     1      26.548   0.301  54.026  1.00  0.00     0.111 A 
HETATM   14  C14 UNL     1      26.580   1.761  53.895  1.00  0.00     0.127 A 
HETATM   15  N7  UNL     1      27.673  -0.528  54.389  1.00  0.00    -0.376 N 
HETATM   16  C15 UNL     1      27.651   2.238  52.942  1.00  0.00     0.285 C 
HETATM   17  N6  UNL     1      28.986   2.124  53.405  1.00  0.00     0.085 N 
HETATM   18  C16 UNL     1      29.266   1.221  54.454  1.00  0.00     0.289 C 
HETATM   19  H16 UNL     1      29.609   1.924  52.593  1.00  0.00     0.315 HD
HETATM   20  C17 UNL     1      29.081  -0.229  54.108  1.00  0.00     0.151 C 
HETATM   21  H21 UNL     1      27.505  -1.434  54.903  1.00  0.00     0.160 HD
ENDBRANCH   6   8
ENDBRANCH   1   6
BRANCH   4  22
HETATM   22  N4  UNL     1      20.336   4.357  50.639  1.00  0.00    -0.301 N 
HETATM   23  C7  UNL     1      19.219   3.880  51.357  1.00  0.00     0.325 C 
HETATM   24  O1  UNL     1      19.497   3.337  52.455  1.00  0.00    -0.247 OA
HETATM   25  N5  UNL     1      17.868   3.961  50.956  1.00  0.00    -0.307 N 
HETATM   26  H8  UNL     1      17.799   4.437  50.028  1.00  0.00     0.170 HD
HETATM   27  H7  UNL     1      20.158   4.816  49.718  1.00  0.00     0.171 HD
BRANCH  25  28
HETATM   28  C8  UNL     1      16.706   3.515  51.603  1.00  0.00     0.058 A 
HETATM   29  C9  UNL     1      15.893   4.249  52.433  1.00  0.00     0.031 A 
HETATM   30  C10 UNL     1      14.767   3.754  53.038  1.00  0.00     0.002 A 
HETATM   31  C11 UNL     1      14.384   2.449  52.832  1.00  0.00     0.002 A 
HETATM   32  C12 UNL     1      15.188   1.699  52.001  1.00  0.00     0.026 A 
HETATM   33  C13 UNL     1      16.304   2.219  51.412  1.00  0.00     0.060 A 
HETATM   34 CL1  UNL     1      17.245   1.166  50.375  1.00  0.00    -0.082 Cl
ENDBRANCH  25  28
ENDBRANCH   4  22
TORSDOF 4
ENDMDL
MODEL 2
REMARK VINA RESULT:      -8.3      4.178      5.548
REMARK  4 active torsions:
REMARK  status: ('A' for Active; 'I' for Inactive)
REMARK    1  A    between atoms: C3_4  and  N2_5 
REMARK    2  A    between atoms: N2_5  and  C4_6 
REMARK    3  A    between atoms: C6_9  and  N4_10 
REMARK       I    between atoms: N4_10  and  C7_11 
REMARK       I    between atoms: C7_11  and  N5_13 
REMARK    4  A    between atoms: N5_13  and  C8_14 
ROOT
HETATM    1  C4  UNL     1      24.375   3.781  51.704  1.00  0.00     0.170 A 
HETATM    2  N3  UNL     1      23.582   4.342  52.311  1.00  0.00    -0.234 NA
HETATM    3  C5  UNL     1      22.632   5.158  51.829  1.00  0.00     0.157 A 
HETATM    4  C6  UNL     1      22.602   5.344  50.464  1.00  0.00     0.099 A 
HETATM    5  S1  UNL     1      23.952   4.329  49.938  1.00  0.00    -0.033 SA
ENDROOT
BRANCH   1   6
HETATM    6  N2  UNL     1      25.499   2.857  51.940  1.00  0.00    -0.345 N 
HETATM    7  H5  UNL     1      26.190   2.791  51.149  1.00  0.00     0.163 HD
BRANCH   6   8
HETATM    8  C3  UNL     1      25.276   2.290  53.279  1.00  0.00     0.222 A 
HETATM    9  N1  UNL     1      24.266   1.304  53.211  1.00  0.00    -0.249 NA
HETATM   10  C2  UNL     1      24.265   0.082  53.465  1.00  0.00     0.121 A 
HETATM   11  C1  UNL     1      23.093  -0.856  53.339  1.00  0.00     0.093 C 
HETATM   12  N8  UNL     1      25.478  -0.480  53.950  1.00  0.00    -0.221 NA
HETATM   13  C18 UNL     1      26.488   0.335  54.092  1.00  0.00     0.111 A 
HETATM   14  C14 UNL     1      26.556   1.781  53.855  1.00  0.00     0.127 A 
HETATM   15  N7  UNL     1      27.573  -0.479  54.584  1.00  0.00    -0.376 N 
HETATM   16  C15 UNL     1      27.690   2.169  52.934  1.00  0.00     0.285 C 
HETATM   17  N6  UNL     1      28.993   2.070  53.484  1.00  0.00     0.085 N 
HETATM   18  C16 UNL     1      29.193   1.246  54.614  1.00  0.00     0.289 C 
HETATM   19  H16 UNL     1      29.659   1.800  52.729  1.00  0.00     0.315 HD
HETATM   20  C17 UNL     1      29.002  -0.223  54.367  1.00  0.00     0.151 C 
HETATM   21  H21 UNL     1      27.359  -1.341  55.154  1.00  0.00     0.160 HD
ENDBRANCH   6   8
ENDBRANCH   1   6
BRANCH   4  22
HETATM   22  N4  UNL     1      21.756   6.113  49.668  1.00  0.00    -0.301 N 
HETATM   23  C7  UNL     1      21.887   7.514  49.575  1.00  0.00     0.325 C 
HETATM   24  O1  UNL     1      22.820   7.998  50.264  1.00  0.00    -0.247 OA
HETATM   25  N5  UNL     1      21.087   8.381  48.800  1.00  0.00    -0.307 N 
HETATM   26  H8  UNL     1      20.360   7.833  48.287  1.00  0.00     0.170 HD
HETATM   27  H7  UNL     1      20.994   5.661  49.115  1.00  0.00     0.171 HD
BRANCH  25  28
HETATM   28  C8  UNL     1      21.147   9.775  48.653  1.00  0.00     0.058 A 
HETATM   29  C9  UNL     1      22.023  10.482  47.864  1.00  0.00     0.031 A 
HETATM   30  C10 UNL     1      22.033  11.848  47.763  1.00  0.00     0.002 A 
HETATM   31  C11 UNL     1      21.129  12.604  48.473  1.00  0.00     0.002 A 
HETATM   32  C12 UNL     1      20.242  11.911  49.269  1.00  0.00     0.026 A 
HETATM   33  C13 UNL     1      20.257  10.549  49.350  1.00  0.00     0.060 A 
HETATM   34 CL1  UNL     1      19.078   9.781  50.395  1.00  0.00    -0.082 Cl
ENDBRANCH  25  28
ENDBRANCH   4  22
TORSDOF 4
ENDMDL
MODEL 3
REMARK VINA RESULT:      -8.3      6.470      9.698
REMARK  4 active torsions:
REMARK  status: ('A' for Active; 'I' for Inactive)
REMARK    1  A    between atoms: C3_4  and  N2_5 
REMARK    2  A    between atoms: N2_5  and  C4_6 
REMARK    3  A    between atoms: C6_9  and  N4_10 
REMARK       I    between atoms: N4_10  and  C7_11 
REMARK       I    between atoms: C7_11  and  N5_13 
REMARK    4  A    between atoms: N5_13  and  C8_14 
ROOT
HETATM    1  C4  UNL     1      26.135   4.072  50.173  1.00  0.00     0.170 A 
HETATM    2  N3  UNL     1      27.037   3.932  49.480  1.00  0.00    -0.234 NA
HETATM    3  C5  UNL     1      27.537   4.837  48.624  1.00  0.00     0.157 A 
HETATM    4  C6  UNL     1      26.907   6.060  48.568  1.00  0.00     0.099 A 
HETATM    5  S1  UNL     1      25.614   5.848  49.758  1.00  0.00    -0.033 SA
ENDROOT
BRANCH   1   6
HETATM    6  N2  UNL     1      25.383   3.300  51.177  1.00  0.00    -0.345 N 
HETATM    7  H5  UNL     1      24.508   3.766  51.531  1.00  0.00     0.163 HD
BRANCH   6   8
HETATM    8  C3  UNL     1      26.142   2.055  51.376  1.00  0.00     0.222 A 
HETATM    9  N1  UNL     1      27.316   2.333  52.112  1.00  0.00    -0.249 NA
HETATM   10  C2  UNL     1      27.728   1.931  53.220  1.00  0.00     0.121 A 
HETATM   11  C1  UNL     1      29.020   2.325  53.889  1.00  0.00     0.093 C 
HETATM   12  N8  UNL     1      26.920   0.986  53.910  1.00  0.00    -0.221 NA
HETATM   13  C18 UNL     1      25.815   0.617  53.319  1.00  0.00     0.111 A 
HETATM   14  C14 UNL     1      25.284   1.010  52.010  1.00  0.00     0.127 A 
HETATM   15  N7  UNL     1      25.194  -0.325  54.220  1.00  0.00    -0.376 N 
HETATM   16  C15 UNL     1      23.867   1.527  52.086  1.00  0.00     0.285 C 
HETATM   17  N6  UNL     1      22.867   0.554  52.339  1.00  0.00     0.085 N 
HETATM   18  C16 UNL     1      23.248  -0.676  52.920  1.00  0.00     0.289 C 
HETATM   19  H16 UNL     1      22.107   0.990  52.905  1.00  0.00     0.315 HD
HETATM   20  C17 UNL     1      23.753  -0.580  54.331  1.00  0.00     0.151 C 
HETATM   21  H21 UNL     1      25.798  -0.897  54.869  1.00  0.00     0.160 HD
ENDBRANCH   6   8
ENDBRANCH   1   6
BRANCH   4  22
HETATM   22  N4  UNL     1      27.177   7.190  47.798  1.00  0.00    -0.301 N 
HETATM   23  C7  UNL     1      27.889   8.293  48.314  1.00  0.00     0.325 C 
HETATM   24  O1  UNL     1      28.251   8.167  49.511  1.00  0.00    -0.247 OA
HETATM   25  N5  UNL     1      28.213   9.479  47.621  1.00  0.00    -0.307 N 
HETATM   26  H8  UNL     1      27.847   9.433  46.643  1.00  0.00     0.170 HD
HETATM   27  H7  UNL     1      26.851   7.245  46.807  1.00  0.00     0.171 HD
BRANCH  25  28
HETATM   28  C8  UNL     1      28.911  10.616  48.056  1.00  0.00     0.058 A 
HETATM   29  C9  UNL     1      30.274  10.757  48.156  1.00  0.00     0.031 A 
HETATM   30  C10 UNL     1      30.898  11.897  48.589  1.00  0.00     0.002 A 
HETATM   31  C11 UNL     1      30.157  12.997  48.958  1.00  0.00     0.002 A 
HETATM   32  C12 UNL     1      28.788  12.873  48.863  1.00  0.00     0.026 A 
HETATM   33  C13 UNL     1      28.195  11.723  48.427  1.00  0.00     0.060 A 
HETATM   34 CL1  UNL     1      26.444  11.688  48.349  1.00  0.00    -0.082 Cl
ENDBRANCH  25  28
ENDBRANCH   4  22
TORSDOF 4
ENDMDL
MODEL 4
REMARK VINA RESULT:      -8.1      5.783      8.496
REMARK  4 active torsions:
REMARK  status: ('A' for Active; 'I' for Inactive)
REMARK    1  A    between atoms: C3_4  and  N2_5 
REMARK    2  A    between atoms: N2_5  and  C4_6 
REMARK    3  A    between atoms: C6_9  and  N4_10 
REMARK       I    between atoms: N4_10  and  C7_11 
REMARK       I    between atoms: C7_11  and  N5_13 
REMARK    4  A    between atoms: N5_13  and  C8_14 
ROOT
HETATM    1  C4  UNL     1      25.571   3.687  50.532  1.00  0.00     0.170 A 
HETATM    2  N3  UNL     1      24.759   4.476  50.705  1.00  0.00    -0.234 NA
HETATM    3  C5  UNL     1      24.632   5.649  50.065  1.00  0.00     0.157 A 
HETATM    4  C6  UNL     1      25.571   5.939  49.100  1.00  0.00     0.099 A 
HETATM    5  S1  UNL     1      26.600   4.501  49.161  1.00  0.00    -0.033 SA
ENDROOT
BRANCH   1   6
HETATM    6  N2  UNL     1      25.956   2.364  51.054  1.00  0.00    -0.345 N 
HETATM    7  H5  UNL     1      26.456   1.744  50.366  1.00  0.00     0.163 HD
BRANCH   6   8
HETATM    8  C3  UNL     1      25.486   2.332  52.448  1.00  0.00     0.222 A 
HETATM    9  N1  UNL     1      24.347   1.500  52.542  1.00  0.00    -0.249 NA
HETATM   10  C2  UNL     1      24.122   0.453  53.184  1.00  0.00     0.121 A 
HETATM   11  C1  UNL     1      22.838  -0.337  53.180  1.00  0.00     0.093 C 
HETATM   12  N8  UNL     1      25.162  -0.030  54.024  1.00  0.00    -0.221 NA
HETATM   13  C18 UNL     1      26.264   0.670  54.056  1.00  0.00     0.111 A 
HETATM   14  C14 UNL     1      26.590   1.923  53.367  1.00  0.00     0.127 A 
HETATM   15  N7  UNL     1      27.139  -0.031  54.965  1.00  0.00    -0.376 N 
HETATM   16  C15 UNL     1      27.873   1.837  52.574  1.00  0.00     0.285 C 
HETATM   17  N6  UNL     1      29.068   1.799  53.337  1.00  0.00     0.085 N 
HETATM   18  C16 UNL     1      28.997   1.408  54.693  1.00  0.00     0.289 C 
HETATM   19  H16 UNL     1      29.769   1.210  52.837  1.00  0.00     0.315 HD
HETATM   20  C17 UNL     1      28.605  -0.024  54.919  1.00  0.00     0.151 C 
HETATM   21  H21 UNL     1      26.722  -0.609  55.744  1.00  0.00     0.160 HD
ENDBRANCH   6   8
ENDBRANCH   1   6
BRANCH   4  22
HETATM   22  N4  UNL     1      25.714   7.052  48.274  1.00  0.00    -0.301 N 
HETATM   23  C7  UNL     1      26.480   8.173  48.656  1.00  0.00     0.325 C 
HETATM   24  O1  UNL     1      27.012   8.079  49.791  1.00  0.00    -0.247 OA
HETATM   25  N5  UNL     1      26.688   9.344  47.897  1.00  0.00    -0.307 N 
HETATM   26  H8  UNL     1      26.185   9.272  46.983  1.00  0.00     0.170 HD
HETATM   27  H7  UNL     1      25.249   7.080  47.339  1.00  0.00     0.171 HD
BRANCH  25  28
HETATM   28  C8  UNL     1      27.427  10.497  48.200  1.00  0.00     0.058 A 
HETATM   29  C9  UNL     1      28.764  10.560  48.513  1.00  0.00     0.031 A 
HETATM   30  C10 UNL     1      29.431  11.721  48.801  1.00  0.00     0.002 A 
HETATM   31  C11 UNL     1      28.767  12.926  48.788  1.00  0.00     0.002 A 
HETATM   32  C12 UNL     1      27.426  12.882  48.475  1.00  0.00     0.026 A 
HETATM   33  C13 UNL     1      26.787  11.709  48.192  1.00  0.00     0.060 A 
HETATM   34 CL1  UNL     1      25.079  11.782  47.807  1.00  0.00    -0.082 Cl
ENDBRANCH  25  28
ENDBRANCH   4  22
TORSDOF 4
ENDMDL
MODEL 5
REMARK VINA RESULT:      -8.1      1.829      2.130
REMARK  4 active torsions:
REMARK  status: ('A' for Active; 'I' for Inactive)
REMARK    1  A    between atoms: C3_4  and  N2_5 
REMARK    2  A    between atoms: N2_5  and  C4_6 
REMARK    3  A    between atoms: C6_9  and  N4_10 
REMARK       I    between atoms: N4_10  and  C7_11 
REMARK       I    between atoms: C7_11  and  N5_13 
REMARK    4  A    between atoms: N5_13  and  C8_14 
ROOT
HETATM    1  C4  UNL     1      22.329   2.626  51.145  1.00  0.00     0.170 A 
HETATM    2  N3  UNL     1      22.171   3.758  51.223  1.00  0.00    -0.234 NA
HETATM    3  C5  UNL     1      21.045   4.432  50.945  1.00  0.00     0.157 A 
HETATM    4  C6  UNL     1      19.962   3.693  50.522  1.00  0.00     0.099 A 
HETATM    5  S1  UNL     1      20.623   2.051  50.543  1.00  0.00    -0.033 SA
ENDROOT
BRANCH   1   6
HETATM    6  N2  UNL     1      23.400   1.640  51.369  1.00  0.00    -0.345 N 
HETATM    7  H5  UNL     1      23.806   1.220  50.494  1.00  0.00     0.163 HD
BRANCH   6   8
HETATM    8  C3  UNL     1      23.564   1.553  52.829  1.00  0.00     0.222 A 
HETATM    9  N1  UNL     1      22.689   0.569  53.343  1.00  0.00    -0.249 NA
HETATM   10  C2  UNL     1      22.892  -0.494  53.965  1.00  0.00     0.121 A 
HETATM   11  C1  UNL     1      21.842  -1.458  54.453  1.00  0.00     0.093 C 
HETATM   12  N8  UNL     1      24.242  -0.818  54.273  1.00  0.00    -0.221 NA
HETATM   13  C18 UNL     1      25.154   0.031  53.881  1.00  0.00     0.111 A 
HETATM   14  C14 UNL     1      24.994   1.312  53.185  1.00  0.00     0.127 A 
HETATM   15  N7  UNL     1      26.413  -0.532  54.308  1.00  0.00    -0.376 N 
HETATM   16  C15 UNL     1      25.828   1.402  51.929  1.00  0.00     0.285 C 
HETATM   17  N6  UNL     1      27.226   1.540  52.124  1.00  0.00     0.085 N 
HETATM   18  C16 UNL     1      27.780   1.154  53.365  1.00  0.00     0.289 C 
HETATM   19  H16 UNL     1      27.725   1.052  51.349  1.00  0.00     0.315 HD
HETATM   20  C17 UNL     1      27.711  -0.317  53.659  1.00  0.00     0.151 C 
HETATM   21  H21 UNL     1      26.440  -1.157  55.159  1.00  0.00     0.160 HD
ENDBRANCH   6   8
ENDBRANCH   1   6
BRANCH   4  22
HETATM   22  N4  UNL     1      18.675   4.086  50.162  1.00  0.00    -0.301 N 
HETATM   23  C7  UNL     1      17.593   4.015  51.064  1.00  0.00     0.325 C 
HETATM   24  O1  UNL     1      17.890   3.573  52.201  1.00  0.00    -0.247 OA
HETATM   25  N5  UNL     1      16.257   4.387  50.800  1.00  0.00    -0.307 N 
HETATM   26  H8  UNL     1      16.169   4.734  49.818  1.00  0.00     0.170 HD
HETATM   27  H7  UNL     1      18.481   4.446  49.201  1.00  0.00     0.171 HD
BRANCH  25  28
HETATM   28  C8  UNL     1      15.128   4.348  51.632  1.00  0.00     0.058 A 
HETATM   29  C9  UNL     1      15.115   4.397  53.005  1.00  0.00     0.031 A 
HETATM   30  C10 UNL     1      13.976   4.354  53.764  1.00  0.00     0.002 A 
HETATM   31  C11 UNL     1      12.742   4.256  53.162  1.00  0.00     0.002 A 
HETATM   32  C12 UNL     1      12.736   4.206  51.785  1.00  0.00     0.026 A 
HETATM   33  C13 UNL     1      13.889   4.251  51.054  1.00  0.00     0.060 A 
HETATM   34 CL1  UNL     1      13.752   4.181  49.309  1.00  0.00    -0.082 Cl
ENDBRANCH  25  28
ENDBRANCH   4  22
TORSDOF 4
ENDMDL
MODEL 6
REMARK VINA RESULT:      -8.1      5.635      8.047
REMARK  4 active torsions:
REMARK  status: ('A' for Active; 'I' for Inactive)
REMARK    1  A    between atoms: C3_4  and  N2_5 
REMARK    2  A    between atoms: N2_5  and  C4_6 
REMARK    3  A    between atoms: C6_9  and  N4_10 
REMARK       I    between atoms: N4_10  and  C7_11 
REMARK       I    between atoms: C7_11  and  N5_13 
REMARK    4  A    between atoms: N5_13  and  C8_14 
ROOT
HETATM    1  C4  UNL     1      25.530   7.048  50.246  1.00  0.00     0.170 A 
HETATM    2  N3  UNL     1      24.425   7.119  50.539  1.00  0.00    -0.234 NA
HETATM    3  C5  UNL     1      23.551   6.104  50.624  1.00  0.00     0.157 A 
HETATM    4  C6  UNL     1      24.025   4.845  50.328  1.00  0.00     0.099 A 
HETATM    5  S1  UNL     1      25.718   5.185  49.940  1.00  0.00    -0.033 SA
ENDROOT
BRANCH   1   6
HETATM    6  N2  UNL     1      26.688   7.942  50.072  1.00  0.00    -0.345 N 
HETATM    7  H5  UNL     1      26.832   8.637  50.849  1.00  0.00     0.163 HD
BRANCH   6   8
HETATM    8  C3  UNL     1      27.302   7.557  48.791  1.00  0.00     0.222 A 
HETATM    9  N1  UNL     1      26.334   7.634  47.764  1.00  0.00    -0.249 NA
HETATM   10  C2  UNL     1      26.269   8.316  46.720  1.00  0.00     0.121 A 
HETATM   11  C1  UNL     1      25.154   8.292  45.706  1.00  0.00     0.093 C 
HETATM   12  N8  UNL     1      27.364   9.179  46.439  1.00  0.00    -0.221 NA
HETATM   13  C18 UNL     1      28.347   9.178  47.298  1.00  0.00     0.111 A 
HETATM   14  C14 UNL     1      28.515   8.383  48.519  1.00  0.00     0.127 A 
HETATM   15  N7  UNL     1      29.306  10.127  46.785  1.00  0.00    -0.376 N 
HETATM   16  C15 UNL     1      28.806   9.232  49.734  1.00  0.00     0.285 C 
HETATM   17  N6  UNL     1      30.098   9.814  49.785  1.00  0.00     0.085 N 
HETATM   18  C16 UNL     1      30.832   9.946  48.585  1.00  0.00     0.289 C 
HETATM   19  H16 UNL     1      30.033  10.740  50.261  1.00  0.00     0.315 HD
HETATM   20  C17 UNL     1      30.250  10.910  47.591  1.00  0.00     0.151 C 
HETATM   21  H21 UNL     1      29.362  10.298  45.745  1.00  0.00     0.160 HD
ENDBRANCH   6   8
ENDBRANCH   1   6
BRANCH   4  22
HETATM   22  N4  UNL     1      23.384   3.608  50.322  1.00  0.00    -0.301 N 
HETATM   23  C7  UNL     1      23.289   2.810  51.482  1.00  0.00     0.325 C 
HETATM   24  O1  UNL     1      23.827   3.307  52.503  1.00  0.00    -0.247 OA
HETATM   25  N5  UNL     1      22.663   1.549  51.582  1.00  0.00    -0.307 N 
HETATM   26  H8  UNL     1      22.265   1.272  50.656  1.00  0.00     0.170 HD
HETATM   27  H7  UNL     1      22.953   3.239  49.445  1.00  0.00     0.171 HD
BRANCH  25  28
HETATM   28  C8  UNL     1      22.526   0.694  52.686  1.00  0.00     0.058 A 
HETATM   29  C9  UNL     1      23.512  -0.070  53.263  1.00  0.00     0.031 A 
HETATM   30  C10 UNL     1      23.314  -0.888  54.344  1.00  0.00     0.002 A 
HETATM   31  C11 UNL     1      22.071  -0.985  54.925  1.00  0.00     0.002 A 
HETATM   32  C12 UNL     1      21.070  -0.225  54.359  1.00  0.00     0.026 A 
HETATM   33  C13 UNL     1      21.297   0.582  53.281  1.00  0.00     0.060 A 
HETATM   34 CL1  UNL     1      19.944   1.501  52.651  1.00  0.00    -0.082 Cl
ENDBRANCH  25  28
ENDBRANCH   4  22
TORSDOF 4
ENDMDL
MODEL 7
REMARK VINA RESULT:      -8.0      5.304      9.274
REMARK  4 active torsions:
REMARK  status: ('A' for Active; 'I' for Inactive)
REMARK    1  A    between atoms: C3_4  and  N2_5 
REMARK    2  A    between atoms: N2_5  and  C4_6 
REMARK    3  A    between atoms: C6_9  and  N4_10 
REMARK       I    between atoms: N4_10  and  C7_11 
REMARK       I    between atoms: C7_11  and  N5_13 
REMARK    4  A    between atoms: N5_13  and  C8_14 
ROOT
HETATM    1  C4  UNL     1      23.461   2.592  50.479  1.00  0.00     0.170 A 
HETATM    2  N3  UNL     1      23.124   3.416  49.759  1.00  0.00    -0.234 NA
HETATM    3  C5  UNL     1      23.785   4.547  49.469  1.00  0.00     0.157 A 
HETATM    4  C6  UNL     1      24.995   4.743  50.097  1.00  0.00     0.099 A 
HETATM    5  S1  UNL     1      25.123   3.279  51.083  1.00  0.00    -0.033 SA
ENDROOT
BRANCH   1   6
HETATM    6  N2  UNL     1      22.975   1.295  50.981  1.00  0.00    -0.345 N 
HETATM    7  H5  UNL     1      23.437   0.452  50.553  1.00  0.00     0.163 HD
BRANCH   6   8
HETATM    8  C3  UNL     1      21.938   1.615  51.975  1.00  0.00     0.222 A 
HETATM    9  N1  UNL     1      20.669   1.596  51.353  1.00  0.00    -0.249 NA
HETATM   10  C2  UNL     1      19.647   0.906  51.549  1.00  0.00     0.121 A 
HETATM   11  C1  UNL     1      18.348   0.999  50.791  1.00  0.00     0.093 C 
HETATM   12  N8  UNL     1      19.697  -0.041  52.609  1.00  0.00    -0.221 NA
HETATM   13  C18 UNL     1      20.809  -0.102  53.290  1.00  0.00     0.111 A 
HETATM   14  C14 UNL     1      22.031   0.696  53.148  1.00  0.00     0.127 A 
HETATM   15  N7  UNL     1      20.596  -1.128  54.283  1.00  0.00    -0.376 N 
HETATM   16  C15 UNL     1      23.271  -0.155  53.000  1.00  0.00     0.285 C 
HETATM   17  N6  UNL     1      23.698  -0.832  54.170  1.00  0.00     0.085 N 
HETATM   18  C16 UNL     1      22.769  -1.037  55.215  1.00  0.00     0.289 C 
HETATM   19  H16 UNL     1      24.126  -1.743  53.896  1.00  0.00     0.315 HD
HETATM   20  C17 UNL     1      21.639  -1.968  54.883  1.00  0.00     0.151 C 
HETATM   21  H21 UNL     1      19.618  -1.318  54.632  1.00  0.00     0.160 HD
ENDBRANCH   6   8
ENDBRANCH   1   6
BRANCH   4  22
HETATM   22  N4  UNL     1      25.907   5.793  50.012  1.00  0.00    -0.301 N 
HETATM   23  C7  UNL     1      27.038   5.733  49.171  1.00  0.00     0.325 C 
HETATM   24  O1  UNL     1      27.148   4.665  48.519  1.00  0.00    -0.247 OA
HETATM   25  N5  UNL     1      28.018   6.737  49.012  1.00  0.00    -0.307 N 
HETATM   26  H8  UNL     1      27.789   7.559  49.617  1.00  0.00     0.170 HD
HETATM   27  H7  UNL     1      25.770   6.660  50.578  1.00  0.00     0.171 HD
BRANCH  25  28
HETATM   28  C8  UNL     1      29.166   6.759  48.207  1.00  0.00     0.058 A 
HETATM   29  C9  UNL     1      30.337   6.072  48.423  1.00  0.00     0.031 A 
HETATM   30  C10 UNL     1      31.427   6.135  47.596  1.00  0.00     0.002 A 
HETATM   31  C11 UNL     1      31.398   6.919  46.466  1.00  0.00     0.002 A 
HETATM   32  C12 UNL     1      30.231   7.615  46.233  1.00  0.00     0.026 A 
HETATM   33  C13 UNL     1      29.160   7.532  47.075  1.00  0.00     0.060 A 
HETATM   34 CL1  UNL     1      27.731   8.463  46.672  1.00  0.00    -0.082 Cl
ENDBRANCH  25  28
ENDBRANCH   4  22
TORSDOF 4
ENDMDL
MODEL 8
REMARK VINA RESULT:      -7.9     10.483     14.638
REMARK  4 active torsions:
REMARK  status: ('A' for Active; 'I' for Inactive)
REMARK    1  A    between atoms: C3_4  and  N2_5 
REMARK    2  A    between atoms: N2_5  and  C4_6 
REMARK    3  A    between atoms: C6_9  and  N4_10 
REMARK       I    between atoms: N4_10  and  C7_11 
REMARK       I    between atoms: C7_11  and  N5_13 
REMARK    4  A    between atoms: N5_13  and  C8_14 
ROOT
HETATM    1  C4  UNL     1      30.940   5.733  48.281  1.00  0.00     0.170 A 
HETATM    2  N3  UNL     1      31.490   4.737  48.145  1.00  0.00    -0.234 NA
HETATM    3  C5  UNL     1      32.587   4.522  47.403  1.00  0.00     0.157 A 
HETATM    4  C6  UNL     1      33.112   5.605  46.734  1.00  0.00     0.099 A 
HETATM    5  S1  UNL     1      31.992   6.891  47.207  1.00  0.00    -0.033 SA
ENDROOT
BRANCH   1   6
HETATM    6  N2  UNL     1      29.764   6.258  48.996  1.00  0.00    -0.345 N 
HETATM    7  H5  UNL     1      29.980   6.753  49.900  1.00  0.00     0.163 HD
BRANCH   6   8
HETATM    8  C3  UNL     1      28.600   5.898  48.171  1.00  0.00     0.222 A 
HETATM    9  N1  UNL     1      28.020   4.709  48.670  1.00  0.00    -0.249 NA
HETATM   10  C2  UNL     1      26.886   4.455  49.128  1.00  0.00     0.121 A 
HETATM   11  C1  UNL     1      26.406   3.119  49.633  1.00  0.00     0.093 C 
HETATM   12  N8  UNL     1      25.942   5.518  49.149  1.00  0.00    -0.221 NA
HETATM   13  C18 UNL     1      26.343   6.670  48.681  1.00  0.00     0.111 A 
HETATM   14  C14 UNL     1      27.637   7.035  48.095  1.00  0.00     0.127 A 
HETATM   15  N7  UNL     1      25.213   7.557  48.823  1.00  0.00    -0.376 N 
HETATM   16  C15 UNL     1      28.258   8.243  48.757  1.00  0.00     0.285 C 
HETATM   17  N6  UNL     1      27.638   9.487  48.479  1.00  0.00     0.085 N 
HETATM   18  C16 UNL     1      26.305   9.493  48.010  1.00  0.00     0.289 C 
HETATM   19  H16 UNL     1      27.718  10.100  49.320  1.00  0.00     0.315 HD
HETATM   20  C17 UNL     1      25.284   9.011  49.001  1.00  0.00     0.151 C 
HETATM   21  H21 UNL     1      24.235   7.160  48.800  1.00  0.00     0.160 HD
ENDBRANCH   6   8
ENDBRANCH   1   6
BRANCH   4  22
HETATM   22  N4  UNL     1      34.222   5.710  45.898  1.00  0.00    -0.301 N 
HETATM   23  C7  UNL     1      34.105   5.674  44.493  1.00  0.00     0.325 C 
HETATM   24  O1  UNL     1      32.929   5.541  44.070  1.00  0.00    -0.247 OA
HETATM   25  N5  UNL     1      35.161   5.772  43.562  1.00  0.00    -0.307 N 
HETATM   26  H8  UNL     1      36.072   5.879  44.064  1.00  0.00     0.170 HD
HETATM   27  H7  UNL     1      35.179   5.818  46.301  1.00  0.00     0.171 HD
BRANCH  25  28
HETATM   28  C8  UNL     1      35.134   5.745  42.159  1.00  0.00     0.058 A 
HETATM   29  C9  UNL     1      34.369   4.923  41.367  1.00  0.00     0.031 A 
HETATM   30  C10 UNL     1      34.387   4.943  39.997  1.00  0.00     0.002 A 
HETATM   31  C11 UNL     1      35.204   5.824  39.326  1.00  0.00     0.002 A 
HETATM   32  C12 UNL     1      35.978   6.657  40.105  1.00  0.00     0.026 A 
HETATM   33  C13 UNL     1      35.938   6.613  41.469  1.00  0.00     0.060 A 
HETATM   34 CL1  UNL     1      36.968   7.724  42.351  1.00  0.00    -0.082 Cl
ENDBRANCH  25  28
ENDBRANCH   4  22
TORSDOF 4
ENDMDL
MODEL 9
REMARK VINA RESULT:      -7.9      5.707      7.935
REMARK  4 active torsions:
REMARK  status: ('A' for Active; 'I' for Inactive)
REMARK    1  A    between atoms: C3_4  and  N2_5 
REMARK    2  A    between atoms: N2_5  and  C4_6 
REMARK    3  A    between atoms: C6_9  and  N4_10 
REMARK       I    between atoms: N4_10  and  C7_11 
REMARK       I    between atoms: C7_11  and  N5_13 
REMARK    4  A    between atoms: N5_13  and  C8_14 
ROOT
HETATM    1  C4  UNL     1      26.280   6.364  49.562  1.00  0.00     0.170 A 
HETATM    2  N3  UNL     1      25.211   6.592  49.904  1.00  0.00    -0.234 NA
HETATM    3  C5  UNL     1      24.219   5.705  50.079  1.00  0.00     0.157 A 
HETATM    4  C6  UNL     1      24.509   4.384  49.823  1.00  0.00     0.099 A 
HETATM    5  S1  UNL     1      26.208   4.481  49.338  1.00  0.00    -0.033 SA
ENDROOT
BRANCH   1   6
HETATM    6  N2  UNL     1      27.533   7.090  49.289  1.00  0.00    -0.345 N 
HETATM    7  H5  UNL     1      28.057   7.406  50.145  1.00  0.00     0.163 HD
BRANCH   6   8
HETATM    8  C3  UNL     1      27.651   7.147  47.823  1.00  0.00     0.222 A 
HETATM    9  N1  UNL     1      27.187   8.400  47.362  1.00  0.00    -0.249 NA
HETATM   10  C2  UNL     1      27.747   9.326  46.738  1.00  0.00     0.121 A 
HETATM   11  C1  UNL     1      27.114  10.625  46.312  1.00  0.00     0.093 C 
HETATM   12  N8  UNL     1      29.104   9.127  46.363  1.00  0.00    -0.221 NA
HETATM   13  C18 UNL     1      29.647   7.989  46.701  1.00  0.00     0.111 A 
HETATM   14  C14 UNL     1      29.049   6.844  47.396  1.00  0.00     0.127 A 
HETATM   15  N7  UNL     1      31.004   8.050  46.213  1.00  0.00    -0.376 N 
HETATM   16  C15 UNL     1      29.844   6.415  48.606  1.00  0.00     0.285 C 
HETATM   17  N6  UNL     1      31.077   5.768  48.338  1.00  0.00     0.085 N 
HETATM   18  C16 UNL     1      31.678   5.951  47.072  1.00  0.00     0.289 C 
HETATM   19  H16 UNL     1      31.758   6.014  49.089  1.00  0.00     0.315 HD
HETATM   20  C17 UNL     1      32.154   7.347  46.793  1.00  0.00     0.151 C 
HETATM   21  H21 UNL     1      31.225   8.640  45.367  1.00  0.00     0.160 HD
ENDBRANCH   6   8
ENDBRANCH   1   6
BRANCH   4  22
HETATM   22  N4  UNL     1      23.714   3.243  49.908  1.00  0.00    -0.301 N 
HETATM   23  C7  UNL     1      23.481   2.584  51.133  1.00  0.00     0.325 C 
HETATM   24  O1  UNL     1      24.047   3.110  52.124  1.00  0.00    -0.247 OA
HETATM   25  N5  UNL     1      22.695   1.428  51.327  1.00  0.00    -0.307 N 
HETATM   26  H8  UNL     1      22.293   1.112  50.415  1.00  0.00     0.170 HD
HETATM   27  H7  UNL     1      23.267   2.844  49.052  1.00  0.00     0.171 HD
BRANCH  25  28
HETATM   28  C8  UNL     1      22.414   0.713  52.501  1.00  0.00     0.058 A 
HETATM   29  C9  UNL     1      23.212  -0.232  53.100  1.00  0.00     0.031 A 
HETATM   30  C10 UNL     1      22.881  -0.898  54.250  1.00  0.00     0.002 A 
HETATM   31  C11 UNL     1      21.687  -0.641  54.883  1.00  0.00     0.002 A 
HETATM   32  C12 UNL     1      20.874   0.304  54.296  1.00  0.00     0.026 A 
HETATM   33  C13 UNL     1      21.231   0.953  53.149  1.00  0.00     0.060 A 
HETATM   34 CL1  UNL     1      20.113   2.135  52.498  1.00  0.00    -0.082 Cl
ENDBRANCH  25  28
ENDBRANCH   4  22
TORSDOF 4
ENDMDL
