MODEL 1
REMARK VINA RESULT:      -8.1      0.000      0.000
REMARK  8 active torsions:
REMARK  status: ('A' for Active; 'I' for Inactive)
REMARK    1  A    between atoms: C2_2  and  O1_3 
REMARK    2  A    between atoms: O1_3  and  C3_4 
REMARK    3  A    between atoms: C3_4  and  C4_6 
REMARK    4  A    between atoms: N1_9  and  C7_10 
REMARK    5  A    between atoms: C7_10  and  C8_11 
REMARK    6  A    between atoms: C8_11  and  C9_12 
REMARK    7  A    between atoms: C9_12  and  C10_14 
REMARK    8  A    between atoms: C20_24  and  O4_25 
ROOT
HETATM    1  C10 UNL     1      21.251   0.851  51.111  1.00  0.00     0.006 C 
HETATM    2  C11 UNL     1      19.983   1.187  51.275  1.00  0.00    -0.007 C 
HETATM    3  C12 UNL     1      19.534   0.967  52.670  1.00  0.00     0.067 C 
HETATM    4  C13 UNL     1      18.678  -0.209  52.758  1.00  0.00    -0.048 A 
HETATM    5  C14 UNL     1      17.475  -0.176  52.114  1.00  0.00     0.008 A 
HETATM    6  C15 UNL     1      16.659  -1.277  52.194  1.00  0.00     0.001 A 
HETATM    7  C16 UNL     1      17.066  -2.376  52.915  1.00  0.00     0.001 A 
HETATM    8  C17 UNL     1      18.306  -2.318  53.537  1.00  0.00     0.007 A 
HETATM    9  C18 UNL     1      19.194  -1.223  53.495  1.00  0.00    -0.049 A 
HETATM   10  C19 UNL     1      20.344  -1.596  54.265  1.00  0.00     0.075 C 
HETATM   11  C20 UNL     1      21.507  -0.697  54.424  1.00  0.00     0.145 C 
HETATM   12  C21 UNL     1      22.254  -0.374  53.195  1.00  0.00     0.006 C 
HETATM   13  C22 UNL     1      22.220   0.177  51.974  1.00  0.00     0.013 C 
ENDROOT
BRANCH   1  14
HETATM   14  C9  UNL     1      21.710   1.084  49.725  1.00  0.00     0.160 C 
HETATM   15  O3  UNL     1      21.487   0.687  48.548  1.00  0.00    -0.292 OA
BRANCH  14  16
HETATM   16  C8  UNL     1      22.761   2.050  49.345  1.00  0.00     0.103 C 
BRANCH  16  17
HETATM   17  C7  UNL     1      22.360   3.383  49.943  1.00  0.00     0.124 C 
BRANCH  17  18
HETATM   18  N1  UNL     1      23.262   3.882  50.895  1.00  0.00    -0.412 N 
HETATM   19  C6  UNL     1      24.597   4.136  50.549  1.00  0.00     0.117 C 
HETATM   20  C5  UNL     1      25.490   2.935  50.815  1.00  0.00     0.034 C 
HETATM   21  C4  UNL     1      25.178   2.394  52.175  1.00  0.00     0.088 C 
HETATM   22  C24 UNL     1      24.335   3.372  52.988  1.00  0.00     0.034 C 
HETATM   23  C23 UNL     1      23.045   3.650  52.263  1.00  0.00     0.117 C 
BRANCH  21  24
HETATM   24  C3  UNL     1      26.423   2.099  52.889  1.00  0.00     0.263 C 
HETATM   25  O2  UNL     1      27.527   2.084  52.270  1.00  0.00    -0.265 OA
BRANCH  24  26
HETATM   26  O1  UNL     1      26.525   1.822  54.225  1.00  0.00    -0.322 OA
BRANCH  26  27
HETATM   27  C2  UNL     1      26.914   0.491  54.588  1.00  0.00     0.174 C 
HETATM   28  C1  UNL     1      25.792  -0.448  54.275  1.00  0.00     0.034 C 
ENDBRANCH  26  27
ENDBRANCH  24  26
ENDBRANCH  21  24
ENDBRANCH  17  18
ENDBRANCH  16  17
ENDBRANCH  14  16
ENDBRANCH   1  14
BRANCH  11  29
HETATM   29  O4  UNL     1      22.402  -1.490  55.236  1.00  0.00    -0.391 OA
HETATM   30  H25 UNL     1      22.331  -1.193  56.172  1.00  0.00     0.210 HD
ENDBRANCH  11  29
TORSDOF 8
ENDMDL
MODEL 2
REMARK VINA RESULT:      -8.1      2.561      4.931
REMARK  8 active torsions:
REMARK  status: ('A' for Active; 'I' for Inactive)
REMARK    1  A    between atoms: C2_2  and  O1_3 
REMARK    2  A    between atoms: O1_3  and  C3_4 
REMARK    3  A    between atoms: C3_4  and  C4_6 
REMARK    4  A    between atoms: N1_9  and  C7_10 
REMARK    5  A    between atoms: C7_10  and  C8_11 
REMARK    6  A    between atoms: C8_11  and  C9_12 
REMARK    7  A    between atoms: C9_12  and  C10_14 
REMARK    8  A    between atoms: C20_24  and  O4_25 
ROOT
HETATM    1  C10 UNL     1      22.089   2.504  52.299  1.00  0.00     0.006 C 
HETATM    2  C11 UNL     1      23.203   1.823  52.092  1.00  0.00    -0.007 C 
HETATM    3  C12 UNL     1      22.970   0.361  52.150  1.00  0.00     0.067 C 
HETATM    4  C13 UNL     1      23.492  -0.196  53.391  1.00  0.00    -0.048 A 
HETATM    5  C14 UNL     1      24.842  -0.152  53.595  1.00  0.00     0.008 A 
HETATM    6  C15 UNL     1      25.344  -0.679  54.759  1.00  0.00     0.001 A 
HETATM    7  C16 UNL     1      24.488  -1.234  55.683  1.00  0.00     0.001 A 
HETATM    8  C17 UNL     1      23.132  -1.234  55.388  1.00  0.00     0.007 A 
HETATM    9  C18 UNL     1      22.548  -0.710  54.215  1.00  0.00    -0.049 A 
HETATM   10  C19 UNL     1      21.134  -0.919  54.332  1.00  0.00     0.075 C 
HETATM   11  C20 UNL     1      20.186  -0.469  53.290  1.00  0.00     0.145 C 
HETATM   12  C21 UNL     1      20.101   0.986  53.071  1.00  0.00     0.006 C 
HETATM   13  C22 UNL     1      20.745   2.107  52.718  1.00  0.00     0.013 C 
ENDROOT
BRANCH   1  14
HETATM   14  C9  UNL     1      22.310   3.964  52.225  1.00  0.00     0.160 C 
HETATM   15  O3  UNL     1      23.095   4.851  52.662  1.00  0.00    -0.292 OA
BRANCH  14  16
HETATM   16  C8  UNL     1      21.471   4.898  51.448  1.00  0.00     0.103 C 
BRANCH  16  17
HETATM   17  C7  UNL     1      21.257   4.260  50.090  1.00  0.00     0.124 C 
BRANCH  17  18
HETATM   18  N1  UNL     1      22.217   4.615  49.130  1.00  0.00    -0.412 N 
HETATM   19  C6  UNL     1      22.986   3.631  48.492  1.00  0.00     0.117 C 
HETATM   20  C5  UNL     1      24.293   3.371  49.223  1.00  0.00     0.034 C 
HETATM   21  C4  UNL     1      24.924   4.684  49.565  1.00  0.00     0.088 C 
HETATM   22  C24 UNL     1      24.266   5.835  48.811  1.00  0.00     0.034 C 
HETATM   23  C23 UNL     1      22.801   5.891  49.154  1.00  0.00     0.117 C 
BRANCH  21  24
HETATM   24  C3  UNL     1      26.355   4.641  49.255  1.00  0.00     0.263 C 
HETATM   25  O2  UNL     1      26.996   3.552  49.337  1.00  0.00    -0.265 OA
BRANCH  24  26
HETATM   26  O1  UNL     1      27.116   5.710  48.867  1.00  0.00    -0.322 OA
BRANCH  26  27
HETATM   27  C2  UNL     1      28.434   5.432  48.380  1.00  0.00     0.174 C 
HETATM   28  C1  UNL     1      28.947   6.632  47.648  1.00  0.00     0.034 C 
ENDBRANCH  26  27
ENDBRANCH  24  26
ENDBRANCH  21  24
ENDBRANCH  17  18
ENDBRANCH  16  17
ENDBRANCH  14  16
ENDBRANCH   1  14
BRANCH  11  29
HETATM   29  O4  UNL     1      18.909  -0.863  53.843  1.00  0.00    -0.391 OA
HETATM   30  H25 UNL     1      18.824  -0.483  54.747  1.00  0.00     0.210 HD
ENDBRANCH  11  29
TORSDOF 8
ENDMDL
MODEL 3
REMARK VINA RESULT:      -8.1      2.103      6.422
REMARK  8 active torsions:
REMARK  status: ('A' for Active; 'I' for Inactive)
REMARK    1  A    between atoms: C2_2  and  O1_3 
REMARK    2  A    between atoms: O1_3  and  C3_4 
REMARK    3  A    between atoms: C3_4  and  C4_6 
REMARK    4  A    between atoms: N1_9  and  C7_10 
REMARK    5  A    between atoms: C7_10  and  C8_11 
REMARK    6  A    between atoms: C8_11  and  C9_12 
REMARK    7  A    between atoms: C9_12  and  C10_14 
REMARK    8  A    between atoms: C20_24  and  O4_25 
ROOT
HETATM    1  C10 UNL     1      22.796   2.191  49.773  1.00  0.00     0.006 C 
HETATM    2  C11 UNL     1      22.757   1.723  51.009  1.00  0.00    -0.007 C 
HETATM    3  C12 UNL     1      23.783   2.360  51.868  1.00  0.00     0.067 C 
HETATM    4  C13 UNL     1      24.884   1.442  52.126  1.00  0.00    -0.048 A 
HETATM    5  C14 UNL     1      24.622   0.314  52.848  1.00  0.00     0.008 A 
HETATM    6  C15 UNL     1      25.653  -0.556  53.101  1.00  0.00     0.001 A 
HETATM    7  C16 UNL     1      26.914  -0.275  52.627  1.00  0.00     0.001 A 
HETATM    8  C17 UNL     1      27.085   0.897  51.902  1.00  0.00     0.007 A 
HETATM    9  C18 UNL     1      26.072   1.832  51.604  1.00  0.00    -0.049 A 
HETATM   10  C19 UNL     1      26.689   2.877  50.840  1.00  0.00     0.075 C 
HETATM   11  C20 UNL     1      25.920   4.029  50.324  1.00  0.00     0.145 C 
HETATM   12  C21 UNL     1      24.872   3.722  49.333  1.00  0.00     0.006 C 
HETATM   13  C22 UNL     1      23.731   3.071  49.073  1.00  0.00     0.013 C 
ENDROOT
BRANCH   1  14
HETATM   14  C9  UNL     1      21.764   1.571  48.914  1.00  0.00     0.160 C 
HETATM   15  O3  UNL     1      21.485   0.465  48.374  1.00  0.00    -0.292 OA
BRANCH  14  16
HETATM   16  C8  UNL     1      20.576   2.279  48.394  1.00  0.00     0.103 C 
BRANCH  16  17
HETATM   17  C7  UNL     1      20.052   3.136  49.527  1.00  0.00     0.124 C 
BRANCH  17  18
HETATM   18  N1  UNL     1      19.107   2.497  50.343  1.00  0.00    -0.412 N 
HETATM   19  C6  UNL     1      19.055   2.764  51.719  1.00  0.00     0.117 C 
HETATM   20  C5  UNL     1      19.912   1.795  52.517  1.00  0.00     0.034 C 
HETATM   21  C4  UNL     1      19.647   0.404  52.032  1.00  0.00     0.088 C 
HETATM   22  C24 UNL     1      18.401   0.345  51.154  1.00  0.00     0.034 C 
HETATM   23  C23 UNL     1      18.575   1.254  49.967  1.00  0.00     0.117 C 
BRANCH  21  24
HETATM   24  C3  UNL     1      19.493  -0.499  53.175  1.00  0.00     0.263 C 
HETATM   25  O2  UNL     1      18.482  -1.255  53.262  1.00  0.00    -0.265 OA
BRANCH  24  26
HETATM   26  O1  UNL     1      20.373  -0.618  54.216  1.00  0.00    -0.322 OA
BRANCH  26  27
HETATM   27  C2  UNL     1      21.463  -1.534  54.049  1.00  0.00     0.174 C 
HETATM   28  C1  UNL     1      22.429  -1.353  55.177  1.00  0.00     0.034 C 
ENDBRANCH  26  27
ENDBRANCH  24  26
ENDBRANCH  21  24
ENDBRANCH  17  18
ENDBRANCH  16  17
ENDBRANCH  14  16
ENDBRANCH   1  14
BRANCH  11  29
HETATM   29  O4  UNL     1      26.930   4.782  49.613  1.00  0.00    -0.391 OA
HETATM   30  H25 UNL     1      26.662   5.729  49.589  1.00  0.00     0.210 HD
ENDBRANCH  11  29
TORSDOF 8
ENDMDL
MODEL 4
REMARK VINA RESULT:      -8.0      3.581      6.134
REMARK  8 active torsions:
REMARK  status: ('A' for Active; 'I' for Inactive)
REMARK    1  A    between atoms: C2_2  and  O1_3 
REMARK    2  A    between atoms: O1_3  and  C3_4 
REMARK    3  A    between atoms: C3_4  and  C4_6 
REMARK    4  A    between atoms: N1_9  and  C7_10 
REMARK    5  A    between atoms: C7_10  and  C8_11 
REMARK    6  A    between atoms: C8_11  and  C9_12 
REMARK    7  A    between atoms: C9_12  and  C10_14 
REMARK    8  A    between atoms: C20_24  and  O4_25 
ROOT
HETATM    1  C10 UNL     1      22.806   2.234  50.009  1.00  0.00     0.006 C 
HETATM    2  C11 UNL     1      22.661   1.837  51.261  1.00  0.00    -0.007 C 
HETATM    3  C12 UNL     1      23.774   2.310  52.118  1.00  0.00     0.067 C 
HETATM    4  C13 UNL     1      24.680   1.216  52.439  1.00  0.00    -0.048 A 
HETATM    5  C14 UNL     1      24.201   0.189  53.200  1.00  0.00     0.008 A 
HETATM    6  C15 UNL     1      25.049  -0.845  53.512  1.00  0.00     0.001 A 
HETATM    7  C16 UNL     1      26.347  -0.824  53.057  1.00  0.00     0.001 A 
HETATM    8  C17 UNL     1      26.745   0.262  52.289  1.00  0.00     0.007 A 
HETATM    9  C18 UNL     1      25.929   1.355  51.930  1.00  0.00    -0.049 A 
HETATM   10  C19 UNL     1      26.741   2.232  51.139  1.00  0.00     0.075 C 
HETATM   11  C20 UNL     1      26.209   3.483  50.558  1.00  0.00     0.145 C 
HETATM   12  C21 UNL     1      25.138   3.332  49.556  1.00  0.00     0.006 C 
HETATM   13  C22 UNL     1      23.899   2.893  49.296  1.00  0.00     0.013 C 
ENDROOT
BRANCH   1  14
HETATM   14  C9  UNL     1      21.690   1.779  49.152  1.00  0.00     0.160 C 
HETATM   15  O3  UNL     1      21.456   0.980  48.203  1.00  0.00    -0.292 OA
BRANCH  14  16
HETATM   16  C8  UNL     1      20.303   2.278  49.252  1.00  0.00     0.103 C 
BRANCH  16  17
HETATM   17  C7  UNL     1      20.199   3.458  48.307  1.00  0.00     0.124 C 
BRANCH  17  18
HETATM   18  N1  UNL     1      20.248   4.709  48.940  1.00  0.00    -0.412 N 
HETATM   19  C6  UNL     1      20.774   5.825  48.274  1.00  0.00     0.117 C 
HETATM   20  C5  UNL     1      22.260   5.998  48.545  1.00  0.00     0.034 C 
HETATM   21  C4  UNL     1      22.504   5.840  50.013  1.00  0.00     0.088 C 
HETATM   22  C24 UNL     1      21.202   5.890  50.806  1.00  0.00     0.034 C 
HETATM   23  C23 UNL     1      20.285   4.791  50.341  1.00  0.00     0.117 C 
BRANCH  21  24
HETATM   24  C3  UNL     1      23.411   6.891  50.480  1.00  0.00     0.263 C 
HETATM   25  O2  UNL     1      23.023   8.095  50.531  1.00  0.00    -0.265 OA
BRANCH  24  26
HETATM   26  O1  UNL     1      24.703   6.701  50.887  1.00  0.00    -0.322 OA
BRANCH  26  27
HETATM   27  C2  UNL     1      25.717   7.469  50.226  1.00  0.00     0.174 C 
HETATM   28  C1  UNL     1      25.880   6.960  48.828  1.00  0.00     0.034 C 
ENDBRANCH  26  27
ENDBRANCH  24  26
ENDBRANCH  21  24
ENDBRANCH  17  18
ENDBRANCH  16  17
ENDBRANCH  14  16
ENDBRANCH   1  14
BRANCH  11  29
HETATM   29  O4  UNL     1      27.352   4.003  49.842  1.00  0.00    -0.391 OA
HETATM   30  H25 UNL     1      27.726   3.288  49.279  1.00  0.00     0.210 HD
ENDBRANCH  11  29
TORSDOF 8
ENDMDL
MODEL 5
REMARK VINA RESULT:      -7.9      2.594      5.578
REMARK  8 active torsions:
REMARK  status: ('A' for Active; 'I' for Inactive)
REMARK    1  A    between atoms: C2_2  and  O1_3 
REMARK    2  A    between atoms: O1_3  and  C3_4 
REMARK    3  A    between atoms: C3_4  and  C4_6 
REMARK    4  A    between atoms: N1_9  and  C7_10 
REMARK    5  A    between atoms: C7_10  and  C8_11 
REMARK    6  A    between atoms: C8_11  and  C9_12 
REMARK    7  A    between atoms: C9_12  and  C10_14 
REMARK    8  A    between atoms: C20_24  and  O4_25 
ROOT
HETATM    1  C10 UNL     1      25.996   2.745  51.569  1.00  0.00     0.006 C 
HETATM    2  C11 UNL     1      24.763   2.981  51.984  1.00  0.00    -0.007 C 
HETATM    3  C12 UNL     1      24.517   2.405  53.327  1.00  0.00     0.067 C 
HETATM    4  C13 UNL     1      23.686   1.212  53.234  1.00  0.00    -0.048 A 
HETATM    5  C14 UNL     1      22.403   1.358  52.789  1.00  0.00     0.008 A 
HETATM    6  C15 UNL     1      21.610   0.242  52.701  1.00  0.00     0.001 A 
HETATM    7  C16 UNL     1      22.118  -0.986  53.061  1.00  0.00     0.001 A 
HETATM    8  C17 UNL     1      23.433  -1.037  53.502  1.00  0.00     0.007 A 
HETATM    9  C18 UNL     1      24.303   0.068  53.615  1.00  0.00    -0.049 A 
HETATM   10  C19 UNL     1      25.552  -0.440  54.103  1.00  0.00     0.075 C 
HETATM   11  C20 UNL     1      26.723   0.435  54.321  1.00  0.00     0.145 C 
HETATM   12  C21 UNL     1      27.287   1.081  53.122  1.00  0.00     0.006 C 
HETATM   13  C22 UNL     1      27.079   1.915  52.095  1.00  0.00     0.013 C 
ENDROOT
BRANCH   1  14
HETATM   14  C9  UNL     1      26.253   3.331  50.237  1.00  0.00     0.160 C 
HETATM   15  O3  UNL     1      27.211   3.742  49.524  1.00  0.00    -0.292 OA
BRANCH  14  16
HETATM   16  C8  UNL     1      25.206   3.624  49.237  1.00  0.00     0.103 C 
BRANCH  16  17
HETATM   17  C7  UNL     1      24.878   5.097  49.372  1.00  0.00     0.124 C 
BRANCH  17  18
HETATM   18  N1  UNL     1      23.516   5.399  49.227  1.00  0.00    -0.412 N 
HETATM   19  C6  UNL     1      22.817   6.054  50.251  1.00  0.00     0.117 C 
HETATM   20  C5  UNL     1      22.160   5.072  51.207  1.00  0.00     0.034 C 
HETATM   21  C4  UNL     1      21.464   4.014  50.409  1.00  0.00     0.088 C 
HETATM   22  C24 UNL     1      21.341   4.410  48.940  1.00  0.00     0.034 C 
HETATM   23  C23 UNL     1      22.712   4.639  48.362  1.00  0.00     0.117 C 
BRANCH  21  24
HETATM   24  C3  UNL     1      20.134   3.765  50.970  1.00  0.00     0.263 C 
HETATM   25  O2  UNL     1      19.951   3.798  52.222  1.00  0.00    -0.265 OA
BRANCH  24  26
HETATM   26  O1  UNL     1      19.008   3.483  50.246  1.00  0.00    -0.322 OA
BRANCH  26  27
HETATM   27  C2  UNL     1      18.309   2.275  50.569  1.00  0.00     0.174 C 
HETATM   28  C1  UNL     1      19.105   1.106  50.082  1.00  0.00     0.034 C 
ENDBRANCH  26  27
ENDBRANCH  24  26
ENDBRANCH  21  24
ENDBRANCH  17  18
ENDBRANCH  16  17
ENDBRANCH  14  16
ENDBRANCH   1  14
BRANCH  11  29
HETATM   29  O4  UNL     1      27.727  -0.501  54.778  1.00  0.00    -0.391 OA
HETATM   30  H25 UNL     1      27.929  -1.131  54.050  1.00  0.00     0.210 HD
ENDBRANCH  11  29
TORSDOF 8
ENDMDL
MODEL 6
REMARK VINA RESULT:      -7.9      2.151      5.411
REMARK  8 active torsions:
REMARK  status: ('A' for Active; 'I' for Inactive)
REMARK    1  A    between atoms: C2_2  and  O1_3 
REMARK    2  A    between atoms: O1_3  and  C3_4 
REMARK    3  A    between atoms: C3_4  and  C4_6 
REMARK    4  A    between atoms: N1_9  and  C7_10 
REMARK    5  A    between atoms: C7_10  and  C8_11 
REMARK    6  A    between atoms: C8_11  and  C9_12 
REMARK    7  A    between atoms: C9_12  and  C10_14 
REMARK    8  A    between atoms: C20_24  and  O4_25 
ROOT
HETATM    1  C10 UNL     1      20.228   1.209  51.316  1.00  0.00     0.006 C 
HETATM    2  C11 UNL     1      20.187   2.445  51.785  1.00  0.00    -0.007 C 
HETATM    3  C12 UNL     1      20.640   3.429  50.774  1.00  0.00     0.067 C 
HETATM    4  C13 UNL     1      21.973   3.922  51.092  1.00  0.00    -0.048 A 
HETATM    5  C14 UNL     1      22.131   4.651  52.235  1.00  0.00     0.008 A 
HETATM    6  C15 UNL     1      23.382   5.124  52.542  1.00  0.00     0.001 A 
HETATM    7  C16 UNL     1      24.438   4.857  51.701  1.00  0.00     0.001 A 
HETATM    8  C17 UNL     1      24.182   4.107  50.561  1.00  0.00     0.007 A 
HETATM    9  C18 UNL     1      22.924   3.589  50.186  1.00  0.00    -0.049 A 
HETATM   10  C19 UNL     1      23.121   2.883  48.954  1.00  0.00     0.075 C 
HETATM   11  C20 UNL     1      22.017   2.180  48.267  1.00  0.00     0.145 C 
HETATM   12  C21 UNL     1      21.418   1.044  48.992  1.00  0.00     0.006 C 
HETATM   13  C22 UNL     1      20.765   0.630  50.086  1.00  0.00     0.013 C 
ENDROOT
BRANCH   1  14
HETATM   14  C9  UNL     1      19.761   0.223  52.314  1.00  0.00     0.160 C 
HETATM   15  O3  UNL     1      18.852  -0.636  52.480  1.00  0.00    -0.292 OA
BRANCH  14  16
HETATM   16  C8  UNL     1      20.411  -0.015  53.619  1.00  0.00     0.103 C 
BRANCH  16  17
HETATM   17  C7  UNL     1      21.711  -0.738  53.330  1.00  0.00     0.124 C 
BRANCH  17  18
HETATM   18  N1  UNL     1      22.849  -0.111  53.857  1.00  0.00    -0.412 N 
HETATM   19  C6  UNL     1      23.308   1.102  53.323  1.00  0.00     0.117 C 
HETATM   20  C5  UNL     1      24.339   0.884  52.229  1.00  0.00     0.034 C 
HETATM   21  C4  UNL     1      25.334  -0.131  52.698  1.00  0.00     0.088 C 
HETATM   22  C24 UNL     1      25.215  -0.379  54.198  1.00  0.00     0.034 C 
HETATM   23  C23 UNL     1      23.828  -0.867  54.521  1.00  0.00     0.117 C 
BRANCH  21  24
HETATM   24  C3  UNL     1      26.691   0.319  52.375  1.00  0.00     0.263 C 
HETATM   25  O2  UNL     1      26.880   1.456  51.851  1.00  0.00    -0.265 OA
BRANCH  24  26
HETATM   26  O1  UNL     1      27.836  -0.397  52.589  1.00  0.00    -0.322 OA
BRANCH  26  27
HETATM   27  C2  UNL     1      28.738   0.095  53.588  1.00  0.00     0.174 C 
HETATM   28  C1  UNL     1      29.886  -0.855  53.720  1.00  0.00     0.034 C 
ENDBRANCH  26  27
ENDBRANCH  24  26
ENDBRANCH  21  24
ENDBRANCH  17  18
ENDBRANCH  16  17
ENDBRANCH  14  16
ENDBRANCH   1  14
BRANCH  11  29
HETATM   29  O4  UNL     1      22.681   1.611  47.115  1.00  0.00    -0.391 OA
HETATM   30  H25 UNL     1      23.255   2.299  46.708  1.00  0.00     0.210 HD
ENDBRANCH  11  29
TORSDOF 8
ENDMDL
MODEL 7
REMARK VINA RESULT:      -7.9      2.596      6.772
REMARK  8 active torsions:
REMARK  status: ('A' for Active; 'I' for Inactive)
REMARK    1  A    between atoms: C2_2  and  O1_3 
REMARK    2  A    between atoms: O1_3  and  C3_4 
REMARK    3  A    between atoms: C3_4  and  C4_6 
REMARK    4  A    between atoms: N1_9  and  C7_10 
REMARK    5  A    between atoms: C7_10  and  C8_11 
REMARK    6  A    between atoms: C8_11  and  C9_12 
REMARK    7  A    between atoms: C9_12  and  C10_14 
REMARK    8  A    between atoms: C20_24  and  O4_25 
ROOT
HETATM    1  C10 UNL     1      26.830   2.269  51.693  1.00  0.00     0.006 C 
HETATM    2  C11 UNL     1      26.121   1.184  51.953  1.00  0.00    -0.007 C 
HETATM    3  C12 UNL     1      26.446   0.624  53.286  1.00  0.00     0.067 C 
HETATM    4  C13 UNL     1      27.252  -0.582  53.159  1.00  0.00    -0.048 A 
HETATM    5  C14 UNL     1      26.684  -1.672  52.565  1.00  0.00     0.008 A 
HETATM    6  C15 UNL     1      27.434  -2.816  52.444  1.00  0.00     0.001 A 
HETATM    7  C16 UNL     1      28.726  -2.839  52.919  1.00  0.00     0.001 A 
HETATM    8  C17 UNL     1      29.218  -1.682  53.508  1.00  0.00     0.007 A 
HETATM    9  C18 UNL     1      28.505  -0.474  53.664  1.00  0.00    -0.049 A 
HETATM   10  C19 UNL     1      29.392   0.445  54.314  1.00  0.00     0.075 C 
HETATM   11  C20 UNL     1      28.994   1.836  54.620  1.00  0.00     0.145 C 
HETATM   12  C21 UNL     1      28.709   2.702  53.462  1.00  0.00     0.006 C 
HETATM   13  C22 UNL     1      27.951   2.912  52.378  1.00  0.00     0.013 C 
ENDROOT
BRANCH   1  14
HETATM   14  C9  UNL     1      26.499   2.841  50.370  1.00  0.00     0.160 C 
HETATM   15  O3  UNL     1      26.968   3.639  49.512  1.00  0.00    -0.292 OA
BRANCH  14  16
HETATM   16  C8  UNL     1      25.274   2.526  49.607  1.00  0.00     0.103 C 
BRANCH  16  17
HETATM   17  C7  UNL     1      24.298   3.655  49.870  1.00  0.00     0.124 C 
BRANCH  17  18
HETATM   18  N1  UNL     1      22.991   3.231  50.151  1.00  0.00    -0.412 N 
HETATM   19  C6  UNL     1      22.407   3.496  51.398  1.00  0.00     0.117 C 
HETATM   20  C5  UNL     1      22.634   2.362  52.383  1.00  0.00     0.034 C 
HETATM   21  C4  UNL     1      22.339   1.063  51.700  1.00  0.00     0.088 C 
HETATM   22  C24 UNL     1      21.604   1.278  50.381  1.00  0.00     0.034 C 
HETATM   23  C23 UNL     1      22.442   2.134  49.469  1.00  0.00     0.117 C 
BRANCH  21  24
HETATM   24  C3  UNL     1      21.539   0.210  52.582  1.00  0.00     0.263 C 
HETATM   25  O2  UNL     1      20.354   0.535  52.885  1.00  0.00    -0.265 OA
BRANCH  24  26
HETATM   26  O1  UNL     1      21.959  -0.964  53.145  1.00  0.00    -0.322 OA
BRANCH  26  27
HETATM   27  C2  UNL     1      23.191  -0.935  53.876  1.00  0.00     0.174 C 
HETATM   28  C1  UNL     1      22.915  -1.261  55.310  1.00  0.00     0.034 C 
ENDBRANCH  26  27
ENDBRANCH  24  26
ENDBRANCH  21  24
ENDBRANCH  17  18
ENDBRANCH  16  17
ENDBRANCH  14  16
ENDBRANCH   1  14
BRANCH  11  29
HETATM   29  O4  UNL     1      30.189   2.372  55.233  1.00  0.00    -0.391 OA
HETATM   30  H25 UNL     1      30.022   3.307  55.491  1.00  0.00     0.210 HD
ENDBRANCH  11  29
TORSDOF 8
ENDMDL
MODEL 8
REMARK VINA RESULT:      -7.7      4.612      6.835
REMARK  8 active torsions:
REMARK  status: ('A' for Active; 'I' for Inactive)
REMARK    1  A    between atoms: C2_2  and  O1_3 
REMARK    2  A    between atoms: O1_3  and  C3_4 
REMARK    3  A    between atoms: C3_4  and  C4_6 
REMARK    4  A    between atoms: N1_9  and  C7_10 
REMARK    5  A    between atoms: C7_10  and  C8_11 
REMARK    6  A    between atoms: C8_11  and  C9_12 
REMARK    7  A    between atoms: C9_12  and  C10_14 
REMARK    8  A    between atoms: C20_24  and  O4_25 
ROOT
HETATM    1  C10 UNL     1      25.966   2.794  51.396  1.00  0.00     0.006 C 
HETATM    2  C11 UNL     1      24.749   3.114  51.802  1.00  0.00    -0.007 C 
HETATM    3  C12 UNL     1      24.456   2.559  53.145  1.00  0.00     0.067 C 
HETATM    4  C13 UNL     1      23.548   1.425  53.050  1.00  0.00    -0.048 A 
HETATM    5  C14 UNL     1      22.281   1.654  52.596  1.00  0.00     0.008 A 
HETATM    6  C15 UNL     1      21.416   0.593  52.506  1.00  0.00     0.001 A 
HETATM    7  C16 UNL     1      21.838  -0.665  52.872  1.00  0.00     0.001 A 
HETATM    8  C17 UNL     1      23.145  -0.802  53.322  1.00  0.00     0.007 A 
HETATM    9  C18 UNL     1      24.086   0.243  53.438  1.00  0.00    -0.049 A 
HETATM   10  C19 UNL     1      25.294  -0.347  53.935  1.00  0.00     0.075 C 
HETATM   11  C20 UNL     1      26.520   0.449  54.159  1.00  0.00     0.145 C 
HETATM   12  C21 UNL     1      27.134   1.052  52.962  1.00  0.00     0.006 C 
HETATM   13  C22 UNL     1      26.988   1.896  51.931  1.00  0.00     0.013 C 
ENDROOT
BRANCH   1  14
HETATM   14  C9  UNL     1      26.270   3.359  50.064  1.00  0.00     0.160 C 
HETATM   15  O3  UNL     1      27.165   3.322  49.174  1.00  0.00    -0.292 OA
BRANCH  14  16
HETATM   16  C8  UNL     1      25.391   4.293  49.332  1.00  0.00     0.103 C 
BRANCH  16  17
HETATM   17  C7  UNL     1      26.288   5.366  48.751  1.00  0.00     0.124 C 
BRANCH  17  18
HETATM   18  N1  UNL     1      25.797   6.672  48.903  1.00  0.00    -0.412 N 
HETATM   19  C6  UNL     1      25.813   7.570  47.826  1.00  0.00     0.117 C 
HETATM   20  C5  UNL     1      27.084   8.404  47.804  1.00  0.00     0.034 C 
HETATM   21  C4  UNL     1      27.351   8.913  49.185  1.00  0.00     0.088 C 
HETATM   22  C24 UNL     1      26.138   8.734  50.093  1.00  0.00     0.034 C 
HETATM   23  C23 UNL     1      25.776   7.275  50.170  1.00  0.00     0.117 C 
BRANCH  21  24
HETATM   24  C3  UNL     1      27.725  10.329  49.127  1.00  0.00     0.263 C 
HETATM   25  O2  UNL     1      26.837  11.219  48.975  1.00  0.00    -0.265 OA
BRANCH  24  26
HETATM   26  O1  UNL     1      28.998  10.818  49.225  1.00  0.00    -0.322 OA
BRANCH  26  27
HETATM   27  C2  UNL     1      29.283  12.041  48.533  1.00  0.00     0.174 C 
HETATM   28  C1  UNL     1      30.582  12.591  49.031  1.00  0.00     0.034 C 
ENDBRANCH  26  27
ENDBRANCH  24  26
ENDBRANCH  21  24
ENDBRANCH  17  18
ENDBRANCH  16  17
ENDBRANCH  14  16
ENDBRANCH   1  14
BRANCH  11  29
HETATM   29  O4  UNL     1      27.456  -0.550  54.624  1.00  0.00    -0.391 OA
HETATM   30  H25 UNL     1      26.964  -1.237  55.129  1.00  0.00     0.210 HD
ENDBRANCH  11  29
TORSDOF 8
ENDMDL
MODEL 9
REMARK VINA RESULT:      -7.7      4.834      9.985
REMARK  8 active torsions:
REMARK  status: ('A' for Active; 'I' for Inactive)
REMARK    1  A    between atoms: C2_2  and  O1_3 
REMARK    2  A    between atoms: O1_3  and  C3_4 
REMARK    3  A    between atoms: C3_4  and  C4_6 
REMARK    4  A    between atoms: N1_9  and  C7_10 
REMARK    5  A    between atoms: C7_10  and  C8_11 
REMARK    6  A    between atoms: C8_11  and  C9_12 
REMARK    7  A    between atoms: C9_12  and  C10_14 
REMARK    8  A    between atoms: C20_24  and  O4_25 
ROOT
HETATM    1  C10 UNL     1      26.828   6.271  48.618  1.00  0.00     0.006 C 
HETATM    2  C11 UNL     1      26.771   7.490  48.109  1.00  0.00    -0.007 C 
HETATM    3  C12 UNL     1      27.960   7.793  47.280  1.00  0.00     0.067 C 
HETATM    4  C13 UNL     1      28.858   8.704  47.977  1.00  0.00    -0.048 A 
HETATM    5  C14 UNL     1      28.412   9.967  48.241  1.00  0.00     0.008 A 
HETATM    6  C15 UNL     1      29.252  10.835  48.893  1.00  0.00     0.001 A 
HETATM    7  C16 UNL     1      30.511  10.418  49.262  1.00  0.00     0.001 A 
HETATM    8  C17 UNL     1      30.877   9.116  48.951  1.00  0.00     0.007 A 
HETATM    9  C18 UNL     1      30.066   8.173  48.286  1.00  0.00    -0.049 A 
HETATM   10  C19 UNL     1      30.838   6.969  48.180  1.00  0.00     0.075 C 
HETATM   11  C20 UNL     1      30.297   5.743  47.556  1.00  0.00     0.145 C 
HETATM   12  C21 UNL     1      29.147   5.119  48.235  1.00  0.00     0.006 C 
HETATM   13  C22 UNL     1      27.879   5.255  48.648  1.00  0.00     0.013 C 
ENDROOT
BRANCH   1  14
HETATM   14  C9  UNL     1      25.636   5.955  49.433  1.00  0.00     0.160 C 
HETATM   15  O3  UNL     1      24.934   6.448  50.360  1.00  0.00    -0.292 OA
BRANCH  14  16
HETATM   16  C8  UNL     1      24.838   4.719  49.302  1.00  0.00     0.103 C 
BRANCH  16  17
HETATM   17  C7  UNL     1      24.651   4.174  50.703  1.00  0.00     0.124 C 
BRANCH  17  18
HETATM   18  N1  UNL     1      25.042   2.835  50.857  1.00  0.00    -0.412 N 
HETATM   19  C6  UNL     1      24.285   1.957  51.646  1.00  0.00     0.117 C 
HETATM   20  C5  UNL     1      24.776   1.922  53.084  1.00  0.00     0.034 C 
HETATM   21  C4  UNL     1      26.268   1.802  53.082  1.00  0.00     0.088 C 
HETATM   22  C24 UNL     1      26.797   1.424  51.702  1.00  0.00     0.034 C 
HETATM   23  C23 UNL     1      26.388   2.470  50.700  1.00  0.00     0.117 C 
BRANCH  21  24
HETATM   24  C3  UNL     1      26.685   0.800  54.066  1.00  0.00     0.263 C 
HETATM   25  O2  UNL     1      26.076  -0.307  54.151  1.00  0.00    -0.265 OA
BRANCH  24  26
HETATM   26  O1  UNL     1      27.719   0.940  54.952  1.00  0.00    -0.322 OA
BRANCH  26  27
HETATM   27  C2  UNL     1      29.047   0.931  54.413  1.00  0.00     0.174 C 
HETATM   28  C1  UNL     1      29.328  -0.418  53.830  1.00  0.00     0.034 C 
ENDBRANCH  26  27
ENDBRANCH  24  26
ENDBRANCH  21  24
ENDBRANCH  17  18
ENDBRANCH  16  17
ENDBRANCH  14  16
ENDBRANCH   1  14
BRANCH  11  29
HETATM   29  O4  UNL     1      31.395   4.813  47.699  1.00  0.00    -0.391 OA
HETATM   30  H25 UNL     1      31.116   3.936  47.348  1.00  0.00     0.210 HD
ENDBRANCH  11  29
TORSDOF 8
ENDMDL
