MODEL 1
REMARK VINA RESULT:      -7.6      0.000      0.000
REMARK  7 active torsions:
REMARK  status: ('A' for Active; 'I' for Inactive)
REMARK    1  A    between atoms: C2_2  and  C3_4 
REMARK    2  A    between atoms: C4_6  and  C5_7 
REMARK    3  A    between atoms: C5_7  and  N1_8 
REMARK    4  A    between atoms: N1_8  and  C6_9 
REMARK    5  A    between atoms: C10_16  and  C11_17 
REMARK    6  A    between atoms: C11_17  and  N5_18 
REMARK    7  A    between atoms: C14_21  and  N6_22 
ROOT
HETATM    1  C6  UNL     1      22.685   1.488  52.084  1.00  0.00     0.180 A 
HETATM    2  N2  UNL     1      21.596   2.222  51.787  1.00  0.00    -0.218 NA
HETATM    3  C7  UNL     1      20.475   2.016  52.519  1.00  0.00     0.258 A 
HETATM    4  N3  UNL     1      20.491   1.097  53.500  1.00  0.00    -0.161 NA
HETATM    5  N4  UNL     1      21.581   0.386  53.770  1.00  0.00    -0.240 N 
HETATM    6  C8  UNL     1      21.750  -0.565  54.716  1.00  0.00     0.119 A 
HETATM    7  C9  UNL     1      23.049  -0.983  54.576  1.00  0.00     0.030 A 
HETATM    8  C10 UNL     1      23.708  -0.309  53.550  1.00  0.00     0.004 A 
HETATM    9  C17 UNL     1      22.736   0.538  53.083  1.00  0.00     0.113 A 
ENDROOT
BRANCH   8  10
HETATM   10  C11 UNL     1      25.089  -0.405  53.027  1.00  0.00     0.313 C 
BRANCH  10  11
HETATM   11  N5  UNL     1      26.001   0.021  54.055  1.00  0.00     0.092 N 
HETATM   12  C12 UNL     1      27.296  -0.608  53.939  1.00  0.00     0.275 C 
HETATM   13  C13 UNL     1      28.345   0.291  54.578  1.00  0.00     0.065 C 
HETATM   14  C14 UNL     1      28.516   1.467  53.638  1.00  0.00     0.221 C 
HETATM   15  C15 UNL     1      27.160   2.121  53.500  1.00  0.00     0.065 C 
HETATM   16  C16 UNL     1      26.068   1.434  54.272  1.00  0.00     0.275 C 
BRANCH  14  17
HETATM   17  N6  UNL     1      29.510   2.396  54.138  1.00  0.00     0.083 N 
HETATM   18  H15 UNL     1      30.387   2.269  53.599  1.00  0.00     0.313 HD
HETATM   19  H16 UNL     1      29.147   3.354  54.111  1.00  0.00     0.313 HD
ENDBRANCH  14  17
ENDBRANCH  10  11
ENDBRANCH   8  10
BRANCH   1  20
HETATM   20  N1  UNL     1      23.810   1.773  51.265  1.00  0.00    -0.239 NA
BRANCH  20  21
HETATM   21  C5  UNL     1      23.775   2.817  50.529  1.00  0.00     0.122 C 
BRANCH  21  22
HETATM   22  C4  UNL     1      23.568   3.856  49.551  1.00  0.00     0.063 C 
HETATM   23  C3  UNL     1      24.489   4.684  49.131  1.00  0.00     0.136 C 
HETATM   24  F1  UNL     1      24.215   5.634  48.209  1.00  0.00    -0.204 F 
BRANCH  23  25
HETATM   25  C2  UNL     1      25.762   5.345  48.973  1.00  0.00     0.038 C 
HETATM   26  C1  UNL     1      26.876   6.010  48.824  1.00  0.00     0.206 C 
HETATM   27 CL1  UNL     1      27.198   4.317  48.989  1.00  0.00    -0.221 Cl
ENDBRANCH  23  25
ENDBRANCH  21  22
ENDBRANCH  20  21
ENDBRANCH   1  20
TORSDOF 7
ENDMDL
MODEL 2
REMARK VINA RESULT:      -7.6      2.139      2.878
REMARK  7 active torsions:
REMARK  status: ('A' for Active; 'I' for Inactive)
REMARK    1  A    between atoms: C2_2  and  C3_4 
REMARK    2  A    between atoms: C4_6  and  C5_7 
REMARK    3  A    between atoms: C5_7  and  N1_8 
REMARK    4  A    between atoms: N1_8  and  C6_9 
REMARK    5  A    between atoms: C10_16  and  C11_17 
REMARK    6  A    between atoms: C11_17  and  N5_18 
REMARK    7  A    between atoms: C14_21  and  N6_22 
ROOT
HETATM    1  C6  UNL     1      23.402   2.840  50.348  1.00  0.00     0.180 A 
HETATM    2  N2  UNL     1      23.063   3.420  49.182  1.00  0.00    -0.218 NA
HETATM    3  C7  UNL     1      21.993   2.924  48.514  1.00  0.00     0.258 A 
HETATM    4  N3  UNL     1      21.320   1.883  49.035  1.00  0.00    -0.161 NA
HETATM    5  N4  UNL     1      21.678   1.329  50.189  1.00  0.00    -0.240 N 
HETATM    6  C8  UNL     1      21.107   0.288  50.834  1.00  0.00     0.119 A 
HETATM    7  C9  UNL     1      21.855   0.116  51.972  1.00  0.00     0.030 A 
HETATM    8  C10 UNL     1      22.897   1.036  52.057  1.00  0.00     0.004 A 
HETATM    9  C17 UNL     1      22.734   1.772  50.910  1.00  0.00     0.113 A 
ENDROOT
BRANCH   8  10
HETATM   10  C11 UNL     1      23.951   1.250  53.073  1.00  0.00     0.313 C 
BRANCH  10  11
HETATM   11  N5  UNL     1      24.870   0.145  53.022  1.00  0.00     0.092 N 
HETATM   12  C12 UNL     1      26.015   0.417  52.183  1.00  0.00     0.275 C 
HETATM   13  C13 UNL     1      27.186  -0.435  52.648  1.00  0.00     0.065 C 
HETATM   14  C14 UNL     1      27.646   0.166  53.961  1.00  0.00     0.221 C 
HETATM   15  C15 UNL     1      26.462   0.132  54.900  1.00  0.00     0.065 C 
HETATM   16  C16 UNL     1      25.211  -0.432  54.286  1.00  0.00     0.275 C 
BRANCH  14  17
HETATM   17  N6  UNL     1      28.778  -0.560  54.500  1.00  0.00     0.083 N 
HETATM   18  H15 UNL     1      29.623   0.036  54.427  1.00  0.00     0.313 HD
HETATM   19  H16 UNL     1      28.578  -0.874  55.455  1.00  0.00     0.313 HD
ENDBRANCH  14  17
ENDBRANCH  10  11
ENDBRANCH   8  10
BRANCH   1  20
HETATM   20  N1  UNL     1      24.533   3.428  50.974  1.00  0.00    -0.239 NA
BRANCH  20  21
HETATM   21  C5  UNL     1      25.571   3.652  50.263  1.00  0.00     0.122 C 
BRANCH  21  22
HETATM   22  C4  UNL     1      26.747   3.643  49.429  1.00  0.00     0.063 C 
HETATM   23  C3  UNL     1      27.292   4.703  48.892  1.00  0.00     0.136 C 
HETATM   24  F1  UNL     1      28.398   4.613  48.120  1.00  0.00    -0.204 F 
BRANCH  23  25
HETATM   25  C2  UNL     1      27.534   6.078  48.525  1.00  0.00     0.038 C 
HETATM   26  C1  UNL     1      27.825   7.312  48.214  1.00  0.00     0.206 C 
HETATM   27 CL1  UNL     1      26.148   6.997  47.932  1.00  0.00    -0.221 Cl
ENDBRANCH  23  25
ENDBRANCH  21  22
ENDBRANCH  20  21
ENDBRANCH   1  20
TORSDOF 7
ENDMDL
MODEL 3
REMARK VINA RESULT:      -7.6      2.935      5.470
REMARK  7 active torsions:
REMARK  status: ('A' for Active; 'I' for Inactive)
REMARK    1  A    between atoms: C2_2  and  C3_4 
REMARK    2  A    between atoms: C4_6  and  C5_7 
REMARK    3  A    between atoms: C5_7  and  N1_8 
REMARK    4  A    between atoms: N1_8  and  C6_9 
REMARK    5  A    between atoms: C10_16  and  C11_17 
REMARK    6  A    between atoms: C11_17  and  N5_18 
REMARK    7  A    between atoms: C14_21  and  N6_22 
ROOT
HETATM    1  C6  UNL     1      23.438  -0.191  53.445  1.00  0.00     0.180 A 
HETATM    2  N2  UNL     1      23.804  -0.841  54.566  1.00  0.00    -0.218 NA
HETATM    3  C7  UNL     1      22.829  -1.417  55.310  1.00  0.00     0.258 A 
HETATM    4  N3  UNL     1      21.551  -1.319  54.908  1.00  0.00    -0.161 NA
HETATM    5  N4  UNL     1      21.219  -0.669  53.796  1.00  0.00    -0.240 N 
HETATM    6  C8  UNL     1      19.989  -0.485  53.267  1.00  0.00     0.119 A 
HETATM    7  C9  UNL     1      20.195   0.247  52.125  1.00  0.00     0.030 A 
HETATM    8  C10 UNL     1      21.544   0.532  51.923  1.00  0.00     0.004 A 
HETATM    9  C17 UNL     1      22.137  -0.070  53.003  1.00  0.00     0.113 A 
ENDROOT
BRANCH   8  10
HETATM   10  C11 UNL     1      22.252   1.275  50.857  1.00  0.00     0.313 C 
BRANCH  10  11
HETATM   11  N5  UNL     1      21.904   2.667  50.957  1.00  0.00     0.092 N 
HETATM   12  C12 UNL     1      21.948   3.151  52.318  1.00  0.00     0.275 C 
HETATM   13  C13 UNL     1      22.208   4.649  52.305  1.00  0.00     0.065 C 
HETATM   14  C14 UNL     1      23.657   4.820  51.896  1.00  0.00     0.221 C 
HETATM   15  C15 UNL     1      23.812   4.166  50.542  1.00  0.00     0.065 C 
HETATM   16  C16 UNL     1      22.552   3.533  50.021  1.00  0.00     0.275 C 
BRANCH  14  17
HETATM   17  N6  UNL     1      24.030   6.219  51.862  1.00  0.00     0.083 N 
HETATM   18  H15 UNL     1      23.268   6.757  51.409  1.00  0.00     0.313 HD
HETATM   19  H16 UNL     1      24.262   6.550  52.803  1.00  0.00     0.313 HD
ENDBRANCH  14  17
ENDBRANCH  10  11
ENDBRANCH   8  10
BRANCH   1  20
HETATM   20  N1  UNL     1      24.526   0.380  52.732  1.00  0.00    -0.239 NA
BRANCH  20  21
HETATM   21  C5  UNL     1      25.629  -0.264  52.692  1.00  0.00     0.122 C 
BRANCH  21  22
HETATM   22  C4  UNL     1      26.946  -0.831  52.843  1.00  0.00     0.063 C 
HETATM   23  C3  UNL     1      27.973  -0.210  53.363  1.00  0.00     0.136 C 
HETATM   24  F1  UNL     1      29.179  -0.811  53.471  1.00  0.00    -0.204 F 
BRANCH  23  25
HETATM   25  C2  UNL     1      28.782   0.816  53.976  1.00  0.00     0.038 C 
HETATM   26  C1  UNL     1      29.550   1.689  54.571  1.00  0.00     0.206 C 
HETATM   27 CL1  UNL     1      28.467   2.480  53.478  1.00  0.00    -0.221 Cl
ENDBRANCH  23  25
ENDBRANCH  21  22
ENDBRANCH  20  21
ENDBRANCH   1  20
TORSDOF 7
ENDMDL
MODEL 4
REMARK VINA RESULT:      -7.4      1.467      5.087
REMARK  7 active torsions:
REMARK  status: ('A' for Active; 'I' for Inactive)
REMARK    1  A    between atoms: C2_2  and  C3_4 
REMARK    2  A    between atoms: C4_6  and  C5_7 
REMARK    3  A    between atoms: C5_7  and  N1_8 
REMARK    4  A    between atoms: N1_8  and  C6_9 
REMARK    5  A    between atoms: C10_16  and  C11_17 
REMARK    6  A    between atoms: C11_17  and  N5_18 
REMARK    7  A    between atoms: C14_21  and  N6_22 
ROOT
HETATM    1  C6  UNL     1      26.454   1.639  52.384  1.00  0.00     0.180 A 
HETATM    2  N2  UNL     1      27.535   2.426  52.232  1.00  0.00    -0.218 NA
HETATM    3  C7  UNL     1      28.473   2.411  53.211  1.00  0.00     0.258 A 
HETATM    4  N3  UNL     1      28.289   1.622  54.283  1.00  0.00    -0.161 NA
HETATM    5  N4  UNL     1      27.210   0.855  54.407  1.00  0.00    -0.240 N 
HETATM    6  C8  UNL     1      26.887   0.016  55.416  1.00  0.00     0.119 A 
HETATM    7  C9  UNL     1      25.681  -0.530  55.058  1.00  0.00     0.030 A 
HETATM    8  C10 UNL     1      25.232  -0.047  53.831  1.00  0.00     0.004 A 
HETATM    9  C17 UNL     1      26.235   0.818  53.470  1.00  0.00     0.113 A 
ENDROOT
BRANCH   8  10
HETATM   10  C11 UNL     1      24.015  -0.329  53.039  1.00  0.00     0.313 C 
BRANCH  10  11
HETATM   11  N5  UNL     1      22.869   0.128  53.777  1.00  0.00     0.092 N 
HETATM   12  C12 UNL     1      21.908   0.810  52.940  1.00  0.00     0.275 C 
HETATM   13  C13 UNL     1      20.529   0.696  53.571  1.00  0.00     0.065 C 
HETATM   14  C14 UNL     1      20.099  -0.745  53.380  1.00  0.00     0.221 C 
HETATM   15  C15 UNL     1      21.145  -1.609  54.049  1.00  0.00     0.065 C 
HETATM   16  C16 UNL     1      22.279  -0.833  54.658  1.00  0.00     0.275 C 
BRANCH  14  17
HETATM   17  N6  UNL     1      18.780  -0.976  53.934  1.00  0.00     0.083 N 
HETATM   18  H15 UNL     1      18.219  -0.110  53.832  1.00  0.00     0.313 HD
HETATM   19  H16 UNL     1      18.350  -1.798  53.499  1.00  0.00     0.313 HD
ENDBRANCH  14  17
ENDBRANCH  10  11
ENDBRANCH   8  10
BRANCH   1  20
HETATM   20  N1  UNL     1      25.529   1.721  51.310  1.00  0.00    -0.239 NA
BRANCH  20  21
HETATM   21  C5  UNL     1      25.233   2.877  50.852  1.00  0.00     0.122 C 
BRANCH  21  22
HETATM   22  C4  UNL     1      24.676   4.065  50.255  1.00  0.00     0.063 C 
HETATM   23  C3  UNL     1      25.361   4.963  49.596  1.00  0.00     0.136 C 
HETATM   24  F1  UNL     1      24.765   6.054  49.064  1.00  0.00    -0.204 F 
BRANCH  23  25
HETATM   25  C2  UNL     1      26.466   5.656  48.977  1.00  0.00     0.038 C 
HETATM   26  C1  UNL     1      27.424   6.347  48.421  1.00  0.00     0.206 C 
HETATM   27 CL1  UNL     1      27.884   4.686  48.570  1.00  0.00    -0.221 Cl
ENDBRANCH  23  25
ENDBRANCH  21  22
ENDBRANCH  20  21
ENDBRANCH   1  20
TORSDOF 7
ENDMDL
MODEL 5
REMARK VINA RESULT:      -7.3      3.052      5.613
REMARK  7 active torsions:
REMARK  status: ('A' for Active; 'I' for Inactive)
REMARK    1  A    between atoms: C2_2  and  C3_4 
REMARK    2  A    between atoms: C4_6  and  C5_7 
REMARK    3  A    between atoms: C5_7  and  N1_8 
REMARK    4  A    between atoms: N1_8  and  C6_9 
REMARK    5  A    between atoms: C10_16  and  C11_17 
REMARK    6  A    between atoms: C11_17  and  N5_18 
REMARK    7  A    between atoms: C14_21  and  N6_22 
ROOT
HETATM    1  C6  UNL     1      23.255   0.604  53.123  1.00  0.00     0.180 A 
HETATM    2  N2  UNL     1      22.869  -0.635  53.479  1.00  0.00    -0.218 NA
HETATM    3  C7  UNL     1      21.542  -0.907  53.493  1.00  0.00     0.258 A 
HETATM    4  N3  UNL     1      20.671   0.060  53.156  1.00  0.00    -0.161 NA
HETATM    5  N4  UNL     1      21.080   1.276  52.809  1.00  0.00    -0.240 N 
HETATM    6  C8  UNL     1      20.333   2.343  52.449  1.00  0.00     0.119 A 
HETATM    7  C9  UNL     1      21.235   3.344  52.193  1.00  0.00     0.030 A 
HETATM    8  C10 UNL     1      22.549   2.926  52.387  1.00  0.00     0.004 A 
HETATM    9  C17 UNL     1      22.388   1.619  52.772  1.00  0.00     0.113 A 
ENDROOT
BRANCH   8  10
HETATM   10  C11 UNL     1      23.845   3.625  52.241  1.00  0.00     0.313 C 
BRANCH  10  11
HETATM   11  N5  UNL     1      24.092   3.849  50.842  1.00  0.00     0.092 N 
HETATM   12  C12 UNL     1      24.413   5.227  50.551  1.00  0.00     0.275 C 
HETATM   13  C13 UNL     1      25.250   5.286  49.283  1.00  0.00     0.065 C 
HETATM   14  C14 UNL     1      26.617   4.750  49.658  1.00  0.00     0.221 C 
HETATM   15  C15 UNL     1      26.411   3.348  50.183  1.00  0.00     0.065 C 
HETATM   16  C16 UNL     1      24.973   2.912  50.214  1.00  0.00     0.275 C 
BRANCH  14  17
HETATM   17  N6  UNL     1      27.517   4.770  48.523  1.00  0.00     0.083 N 
HETATM   18  H15 UNL     1      27.665   3.797  48.196  1.00  0.00     0.313 HD
HETATM   19  H16 UNL     1      27.160   5.397  47.796  1.00  0.00     0.313 HD
ENDBRANCH  14  17
ENDBRANCH  10  11
ENDBRANCH   8  10
BRANCH   1  20
HETATM   20  N1  UNL     1      24.662   0.794  53.138  1.00  0.00    -0.239 NA
BRANCH  20  21
HETATM   21  C5  UNL     1      25.414  -0.239  53.103  1.00  0.00     0.122 C 
BRANCH  21  22
HETATM   22  C4  UNL     1      26.259  -1.368  52.804  1.00  0.00     0.063 C 
HETATM   23  C3  UNL     1      27.548  -1.414  53.015  1.00  0.00     0.136 C 
HETATM   24  F1  UNL     1      28.274  -2.513  52.708  1.00  0.00    -0.204 F 
BRANCH  23  25
HETATM   25  C2  UNL     1      28.884  -1.030  53.407  1.00  0.00     0.038 C 
HETATM   26  C1  UNL     1      30.119  -0.739  53.717  1.00  0.00     0.206 C 
HETATM   27 CL1  UNL     1      29.024   0.335  54.517  1.00  0.00    -0.221 Cl
ENDBRANCH  23  25
ENDBRANCH  21  22
ENDBRANCH  20  21
ENDBRANCH   1  20
TORSDOF 7
ENDMDL
MODEL 6
REMARK VINA RESULT:      -7.3      3.297      6.408
REMARK  7 active torsions:
REMARK  status: ('A' for Active; 'I' for Inactive)
REMARK    1  A    between atoms: C2_2  and  C3_4 
REMARK    2  A    between atoms: C4_6  and  C5_7 
REMARK    3  A    between atoms: C5_7  and  N1_8 
REMARK    4  A    between atoms: N1_8  and  C6_9 
REMARK    5  A    between atoms: C10_16  and  C11_17 
REMARK    6  A    between atoms: C11_17  and  N5_18 
REMARK    7  A    between atoms: C14_21  and  N6_22 
ROOT
HETATM    1  C6  UNL     1      23.581  -0.240  53.518  1.00  0.00     0.180 A 
HETATM    2  N2  UNL     1      23.917  -0.911  54.636  1.00  0.00    -0.218 NA
HETATM    3  C7  UNL     1      22.918  -1.450  55.376  1.00  0.00     0.258 A 
HETATM    4  N3  UNL     1      21.645  -1.296  54.972  1.00  0.00    -0.161 NA
HETATM    5  N4  UNL     1      21.343  -0.627  53.863  1.00  0.00    -0.240 N 
HETATM    6  C8  UNL     1      20.123  -0.388  53.334  1.00  0.00     0.119 A 
HETATM    7  C9  UNL     1      20.362   0.341  52.196  1.00  0.00     0.030 A 
HETATM    8  C10 UNL     1      21.721   0.569  51.997  1.00  0.00     0.004 A 
HETATM    9  C17 UNL     1      22.287  -0.063  53.075  1.00  0.00     0.113 A 
ENDROOT
BRANCH   8  10
HETATM   10  C11 UNL     1      22.462   1.287  50.936  1.00  0.00     0.313 C 
BRANCH  10  11
HETATM   11  N5  UNL     1      21.516   1.802  49.983  1.00  0.00     0.092 N 
HETATM   12  C12 UNL     1      21.497   3.246  49.948  1.00  0.00     0.275 C 
HETATM   13  C13 UNL     1      21.018   3.705  48.580  1.00  0.00     0.065 C 
HETATM   14  C14 UNL     1      22.153   3.413  47.619  1.00  0.00     0.221 C 
HETATM   15  C15 UNL     1      22.427   1.929  47.699  1.00  0.00     0.065 C 
HETATM   16  C16 UNL     1      21.558   1.200  48.685  1.00  0.00     0.275 C 
BRANCH  14  17
HETATM   17  N6  UNL     1      21.816   3.824  46.270  1.00  0.00     0.083 N 
HETATM   18  H15 UNL     1      20.787   3.920  46.198  1.00  0.00     0.313 HD
HETATM   19  H16 UNL     1      22.327   4.676  46.020  1.00  0.00     0.313 HD
ENDBRANCH  14  17
ENDBRANCH  10  11
ENDBRANCH   8  10
BRANCH   1  20
HETATM   20  N1  UNL     1      24.693   0.287  52.809  1.00  0.00    -0.239 NA
BRANCH  20  21
HETATM   21  C5  UNL     1      25.609   0.881  53.474  1.00  0.00     0.122 C 
BRANCH  21  22
HETATM   22  C4  UNL     1      26.783   1.332  54.178  1.00  0.00     0.063 C 
HETATM   23  C3  UNL     1      27.939   0.721  54.176  1.00  0.00     0.136 C 
HETATM   24  F1  UNL     1      28.996   1.209  54.863  1.00  0.00    -0.204 F 
BRANCH  23  25
HETATM   25  C2  UNL     1      28.973  -0.246  53.894  1.00  0.00     0.038 C 
HETATM   26  C1  UNL     1      29.958  -1.074  53.672  1.00  0.00     0.206 C 
HETATM   27 CL1  UNL     1      28.470  -1.730  53.079  1.00  0.00    -0.221 Cl
ENDBRANCH  23  25
ENDBRANCH  21  22
ENDBRANCH  20  21
ENDBRANCH   1  20
TORSDOF 7
ENDMDL
MODEL 7
REMARK VINA RESULT:      -7.2      1.857      2.073
REMARK  7 active torsions:
REMARK  status: ('A' for Active; 'I' for Inactive)
REMARK    1  A    between atoms: C2_2  and  C3_4 
REMARK    2  A    between atoms: C4_6  and  C5_7 
REMARK    3  A    between atoms: C5_7  and  N1_8 
REMARK    4  A    between atoms: N1_8  and  C6_9 
REMARK    5  A    between atoms: C10_16  and  C11_17 
REMARK    6  A    between atoms: C11_17  and  N5_18 
REMARK    7  A    between atoms: C14_21  and  N6_22 
ROOT
HETATM    1  C6  UNL     1      22.588   1.127  52.175  1.00  0.00     0.180 A 
HETATM    2  N2  UNL     1      21.423   1.749  51.913  1.00  0.00    -0.218 NA
HETATM    3  C7  UNL     1      20.372   1.498  52.732  1.00  0.00     0.258 A 
HETATM    4  N3  UNL     1      20.531   0.647  53.760  1.00  0.00    -0.161 NA
HETATM    5  N4  UNL     1      21.694   0.046  53.994  1.00  0.00    -0.240 N 
HETATM    6  C8  UNL     1      22.005  -0.826  54.978  1.00  0.00     0.119 A 
HETATM    7  C9  UNL     1      23.324  -1.145  54.772  1.00  0.00     0.030 A 
HETATM    8  C10 UNL     1      23.854  -0.484  53.667  1.00  0.00     0.004 A 
HETATM    9  C17 UNL     1      22.785   0.249  53.220  1.00  0.00     0.113 A 
ENDROOT
BRANCH   8  10
HETATM   10  C11 UNL     1      25.202  -0.499  53.055  1.00  0.00     0.313 C 
BRANCH  10  11
HETATM   11  N5  UNL     1      26.156  -0.056  54.036  1.00  0.00     0.092 N 
HETATM   12  C12 UNL     1      27.466  -0.630  53.831  1.00  0.00     0.275 C 
HETATM   13  C13 UNL     1      28.515   0.297  54.424  1.00  0.00     0.065 C 
HETATM   14  C14 UNL     1      28.585   1.496  53.500  1.00  0.00     0.221 C 
HETATM   15  C15 UNL     1      27.199   2.099  53.456  1.00  0.00     0.065 C 
HETATM   16  C16 UNL     1      26.183   1.355  54.277  1.00  0.00     0.275 C 
BRANCH  14  17
HETATM   17  N6  UNL     1      29.570   2.454  53.959  1.00  0.00     0.083 N 
HETATM   18  H15 UNL     1      30.517   2.085  53.753  1.00  0.00     0.313 HD
HETATM   19  H16 UNL     1      29.391   3.375  53.548  1.00  0.00     0.313 HD
ENDBRANCH  14  17
ENDBRANCH  10  11
ENDBRANCH   8  10
BRANCH   1  20
HETATM   20  N1  UNL     1      23.629   1.453  51.265  1.00  0.00    -0.239 NA
BRANCH  20  21
HETATM   21  C5  UNL     1      24.187   2.598  51.367  1.00  0.00     0.122 C 
BRANCH  21  22
HETATM   22  C4  UNL     1      24.651   3.961  51.289  1.00  0.00     0.063 C 
HETATM   23  C3  UNL     1      23.882   5.005  51.124  1.00  0.00     0.136 C 
HETATM   24  F1  UNL     1      24.395   6.255  51.061  1.00  0.00    -0.204 F 
BRANCH  23  25
HETATM   25  C2  UNL     1      22.705   5.820  50.942  1.00  0.00     0.038 C 
HETATM   26  C1  UNL     1      21.685   6.614  50.753  1.00  0.00     0.206 C 
HETATM   27 CL1  UNL     1      21.158   5.090  51.382  1.00  0.00    -0.221 Cl
ENDBRANCH  23  25
ENDBRANCH  21  22
ENDBRANCH  20  21
ENDBRANCH   1  20
TORSDOF 7
ENDMDL
MODEL 8
REMARK VINA RESULT:      -7.2      1.835      5.256
REMARK  7 active torsions:
REMARK  status: ('A' for Active; 'I' for Inactive)
REMARK    1  A    between atoms: C2_2  and  C3_4 
REMARK    2  A    between atoms: C4_6  and  C5_7 
REMARK    3  A    between atoms: C5_7  and  N1_8 
REMARK    4  A    between atoms: N1_8  and  C6_9 
REMARK    5  A    between atoms: C10_16  and  C11_17 
REMARK    6  A    between atoms: C11_17  and  N5_18 
REMARK    7  A    between atoms: C14_21  and  N6_22 
ROOT
HETATM    1  C6  UNL     1      26.582   1.948  52.273  1.00  0.00     0.180 A 
HETATM    2  N2  UNL     1      27.803   2.506  52.373  1.00  0.00    -0.218 NA
HETATM    3  C7  UNL     1      28.558   2.188  53.452  1.00  0.00     0.258 A 
HETATM    4  N3  UNL     1      28.066   1.339  54.371  1.00  0.00    -0.161 NA
HETATM    5  N4  UNL     1      26.856   0.803  54.246  1.00  0.00    -0.240 N 
HETATM    6  C8  UNL     1      26.229  -0.057  55.078  1.00  0.00     0.119 A 
HETATM    7  C9  UNL     1      25.010  -0.298  54.495  1.00  0.00     0.030 A 
HETATM    8  C10 UNL     1      24.855   0.402  53.300  1.00  0.00     0.004 A 
HETATM    9  C17 UNL     1      26.047   1.074  53.196  1.00  0.00     0.113 A 
ENDROOT
BRANCH   8  10
HETATM   10  C11 UNL     1      23.743   0.468  52.327  1.00  0.00     0.313 C 
BRANCH  10  11
HETATM   11  N5  UNL     1      22.680   1.253  52.895  1.00  0.00     0.092 N 
HETATM   12  C12 UNL     1      22.412   2.453  52.137  1.00  0.00     0.275 C 
HETATM   13  C13 UNL     1      20.969   2.874  52.365  1.00  0.00     0.065 C 
HETATM   14  C14 UNL     1      20.116   1.869  51.616  1.00  0.00     0.221 C 
HETATM   15  C15 UNL     1      20.446   0.505  52.180  1.00  0.00     0.065 C 
HETATM   16  C16 UNL     1      21.500   0.525  53.251  1.00  0.00     0.275 C 
BRANCH  14  17
HETATM   17  N6  UNL     1      18.706   2.177  51.748  1.00  0.00     0.083 N 
HETATM   18  H15 UNL     1      18.223   1.913  50.870  1.00  0.00     0.313 HD
HETATM   19  H16 UNL     1      18.320   1.723  52.582  1.00  0.00     0.313 HD
ENDBRANCH  14  17
ENDBRANCH  10  11
ENDBRANCH   8  10
BRANCH   1  20
HETATM   20  N1  UNL     1      25.865   2.340  51.111  1.00  0.00    -0.239 NA
BRANCH  20  21
HETATM   21  C5  UNL     1      26.465   3.062  50.244  1.00  0.00     0.122 C 
BRANCH  21  22
HETATM   22  C4  UNL     1      26.990   4.070  49.357  1.00  0.00     0.063 C 
HETATM   23  C3  UNL     1      26.337   5.131  48.959  1.00  0.00     0.136 C 
HETATM   24  F1  UNL     1      26.900   6.034  48.125  1.00  0.00    -0.204 F 
BRANCH  23  25
HETATM   25  C2  UNL     1      25.285   6.105  48.793  1.00  0.00     0.038 C 
HETATM   26  C1  UNL     1      24.385   7.042  48.659  1.00  0.00     0.206 C 
HETATM   27 CL1  UNL     1      23.684   5.484  48.384  1.00  0.00    -0.221 Cl
ENDBRANCH  23  25
ENDBRANCH  21  22
ENDBRANCH  20  21
ENDBRANCH   1  20
TORSDOF 7
ENDMDL
MODEL 9
REMARK VINA RESULT:      -7.0      3.227      5.738
REMARK  7 active torsions:
REMARK  status: ('A' for Active; 'I' for Inactive)
REMARK    1  A    between atoms: C2_2  and  C3_4 
REMARK    2  A    between atoms: C4_6  and  C5_7 
REMARK    3  A    between atoms: C5_7  and  N1_8 
REMARK    4  A    between atoms: N1_8  and  C6_9 
REMARK    5  A    between atoms: C10_16  and  C11_17 
REMARK    6  A    between atoms: C11_17  and  N5_18 
REMARK    7  A    between atoms: C14_21  and  N6_22 
ROOT
HETATM    1  C6  UNL     1      24.141   5.240  51.280  1.00  0.00     0.180 A 
HETATM    2  N2  UNL     1      23.675   6.499  51.174  1.00  0.00    -0.218 NA
HETATM    3  C7  UNL     1      24.239   7.307  50.244  1.00  0.00     0.258 A 
HETATM    4  N3  UNL     1      25.229   6.828  49.472  1.00  0.00    -0.161 NA
HETATM    5  N4  UNL     1      25.670   5.580  49.599  1.00  0.00    -0.240 N 
HETATM    6  C8  UNL     1      26.649   4.960  48.904  1.00  0.00     0.119 A 
HETATM    7  C9  UNL     1      26.709   3.691  49.421  1.00  0.00     0.030 A 
HETATM    8  C10 UNL     1      25.779   3.497  50.439  1.00  0.00     0.004 A 
HETATM    9  C17 UNL     1      25.155   4.717  50.505  1.00  0.00     0.113 A 
ENDROOT
BRANCH   8  10
HETATM   10  C11 UNL     1      25.464   2.324  51.285  1.00  0.00     0.313 C 
BRANCH  10  11
HETATM   11  N5  UNL     1      26.692   1.650  51.612  1.00  0.00     0.092 N 
HETATM   12  C12 UNL     1      27.467   2.362  52.602  1.00  0.00     0.275 C 
HETATM   13  C13 UNL     1      28.350   1.374  53.348  1.00  0.00     0.065 C 
HETATM   14  C14 UNL     1      27.421   0.571  54.238  1.00  0.00     0.221 C 
HETATM   15  C15 UNL     1      26.405  -0.087  53.333  1.00  0.00     0.065 C 
HETATM   16  C16 UNL     1      26.573   0.249  51.878  1.00  0.00     0.275 C 
BRANCH  14  17
HETATM   17  N6  UNL     1      28.157  -0.404  55.017  1.00  0.00     0.083 N 
HETATM   18  H15 UNL     1      27.617  -0.623  55.874  1.00  0.00     0.313 HD
HETATM   19  H16 UNL     1      28.372  -1.227  54.446  1.00  0.00     0.313 HD
ENDBRANCH  14  17
ENDBRANCH  10  11
ENDBRANCH   8  10
BRANCH   1  20
HETATM   20  N1  UNL     1      23.490   4.469  52.280  1.00  0.00    -0.239 NA
BRANCH  20  21
HETATM   21  C5  UNL     1      22.244   4.223  52.141  1.00  0.00     0.122 C 
BRANCH  21  22
HETATM   22  C4  UNL     1      20.910   3.694  52.008  1.00  0.00     0.063 C 
HETATM   23  C3  UNL     1      20.511   2.542  52.482  1.00  0.00     0.136 C 
HETATM   24  F1  UNL     1      19.239   2.114  52.316  1.00  0.00    -0.204 F 
BRANCH  23  25
HETATM   25  C2  UNL     1      20.520   1.261  53.147  1.00  0.00     0.038 C 
HETATM   26  C1  UNL     1      20.452   0.107  53.755  1.00  0.00     0.206 C 
HETATM   27 CL1  UNL     1      22.095   0.494  53.372  1.00  0.00    -0.221 Cl
ENDBRANCH  23  25
ENDBRANCH  21  22
ENDBRANCH  20  21
ENDBRANCH   1  20
TORSDOF 7
ENDMDL
