MODEL 1
REMARK VINA RESULT:     -10.6      0.000      0.000
REMARK  3 active torsions:
REMARK  status: ('A' for Active; 'I' for Inactive)
REMARK    1  A    between atoms: C4_4  and  C5_5 
REMARK       I    between atoms: N2_14  and  C13_15 
REMARK    2  A    between atoms: C13_15  and  C14_17 
REMARK    3  A    between atoms: C23_28  and  O3_29 
ROOT
HETATM    1  C14 UNL     1      23.713   3.221  51.036  1.00  0.00     0.116 C 
HETATM    2  C15 UNL     1      23.144   2.106  50.701  1.00  0.00     0.123 C 
HETATM    3  N3  UNL     1      22.718   0.931  51.295  1.00  0.00    -0.361 N 
HETATM    4  C16 UNL     1      22.339   0.294  52.484  1.00  0.00     0.065 A 
HETATM    5  C17 UNL     1      21.012   0.346  52.882  1.00  0.00     0.032 A 
HETATM    6  C18 UNL     1      20.453  -0.210  54.031  1.00  0.00     0.002 A 
HETATM    7  C19 UNL     1      21.392  -0.859  54.789  1.00  0.00     0.003 A 
HETATM    8  C20 UNL     1      22.720  -0.960  54.470  1.00  0.00     0.039 A 
HETATM    9  C21 UNL     1      23.219  -0.390  53.318  1.00  0.00     0.095 A 
HETATM   10  O2  UNL     1      24.558  -0.549  53.086  1.00  0.00    -0.342 OA
HETATM   11  C22 UNL     1      25.635   0.049  53.751  1.00  0.00     0.241 C 
HETATM   12  C23 UNL     1      25.663   1.521  53.689  1.00  0.00     0.082 C 
HETATM   13  C24 UNL     1      24.984   2.530  53.195  1.00  0.00     0.122 C 
HETATM   14  N4  UNL     1      23.899   3.066  52.464  1.00  0.00    -0.358 N 
HETATM   15  H21 UNL     1      22.556   0.051  50.786  1.00  0.00     0.165 HD
HETATM   16  H30 UNL     1      23.018   3.466  52.845  1.00  0.00     0.165 HD
ENDROOT
BRANCH   1  17
HETATM   17  C13 UNL     1      24.162   4.455  50.430  1.00  0.00     0.276 C 
HETATM   18  N2  UNL     1      25.289   4.961  49.785  1.00  0.00    -0.315 N 
HETATM   19  C2  UNL     1      25.268   6.349  49.323  1.00  0.00     0.111 A 
HETATM   20  C12 UNL     1      26.489   4.276  49.500  1.00  0.00     0.095 A 
HETATM   21  C1  UNL     1      25.195   7.208  50.594  1.00  0.00     0.037 C 
HETATM   22  C3  UNL     1      26.492   6.713  48.587  1.00  0.00     0.006 A 
HETATM   23  C4  UNL     1      27.596   6.036  48.329  1.00  0.00    -0.054 A 
HETATM   24  C11 UNL     1      27.561   4.677  48.857  1.00  0.00     0.024 A 
HETATM   25  O1  UNL     1      23.235   5.349  50.514  1.00  0.00    -0.265 OA
BRANCH  23  26
HETATM   26  C5  UNL     1      28.693   6.620  47.567  1.00  0.00     0.022 C 
HETATM   27  C6  UNL     1      28.658   8.133  47.744  1.00  0.00     0.039 C 
HETATM   28  C7  UNL     1      29.787   8.727  46.922  1.00  0.00     0.272 C 
HETATM   29  N1  UNL     1      31.016   8.420  47.620  1.00  0.00     0.084 N 
HETATM   30  C8  UNL     1      31.445   9.579  48.374  1.00  0.00     0.309 C 
HETATM   31  C9  UNL     1      30.897   7.273  48.496  1.00  0.00     0.272 C 
HETATM   32  C10 UNL     1      30.066   6.180  47.857  1.00  0.00     0.039 C 
ENDBRANCH  23  26
ENDBRANCH   1  17
BRANCH  12  33
HETATM   33  O3  UNL     1      26.804   1.880  54.409  1.00  0.00    -0.361 OA
HETATM   34  H28 UNL     1      27.359   2.687  54.244  1.00  0.00     0.217 HD
ENDBRANCH  12  33
TORSDOF 3
ENDMDL
MODEL 2
REMARK VINA RESULT:      -8.9      2.785      9.854
REMARK  3 active torsions:
REMARK  status: ('A' for Active; 'I' for Inactive)
REMARK    1  A    between atoms: C4_4  and  C5_5 
REMARK       I    between atoms: N2_14  and  C13_15 
REMARK    2  A    between atoms: C13_15  and  C14_17 
REMARK    3  A    between atoms: C23_28  and  O3_29 
ROOT
HETATM    1  C14 UNL     1      26.649   7.716  49.381  1.00  0.00     0.116 C 
HETATM    2  C15 UNL     1      27.280   8.623  50.058  1.00  0.00     0.123 C 
HETATM    3  N3  UNL     1      28.469   9.329  50.002  1.00  0.00    -0.361 N 
HETATM    4  C16 UNL     1      29.525   9.776  49.199  1.00  0.00     0.065 A 
HETATM    5  C17 UNL     1      29.399  10.985  48.531  1.00  0.00     0.032 A 
HETATM    6  C18 UNL     1      30.330  11.580  47.681  1.00  0.00     0.002 A 
HETATM    7  C19 UNL     1      31.461  10.818  47.553  1.00  0.00     0.003 A 
HETATM    8  C20 UNL     1      31.669   9.617  48.176  1.00  0.00     0.039 A 
HETATM    9  C21 UNL     1      30.712   9.073  49.008  1.00  0.00     0.095 A 
HETATM   10  O2  UNL     1      31.016   7.871  49.586  1.00  0.00    -0.342 OA
HETATM   11  C22 UNL     1      31.092   6.609  48.985  1.00  0.00     0.241 C 
HETATM   12  C23 UNL     1      29.843   6.143  48.357  1.00  0.00     0.082 C 
HETATM   13  C24 UNL     1      28.606   6.526  48.151  1.00  0.00     0.122 C 
HETATM   14  N4  UNL     1      27.551   7.460  48.277  1.00  0.00    -0.358 N 
HETATM   15  H21 UNL     1      28.904   9.794  50.812  1.00  0.00     0.165 HD
HETATM   16  H30 UNL     1      27.223   8.141  47.563  1.00  0.00     0.165 HD
ENDROOT
BRANCH   1  17
HETATM   17  C13 UNL     1      25.411   6.971  49.425  1.00  0.00     0.276 C 
HETATM   18  N2  UNL     1      24.966   5.685  49.729  1.00  0.00    -0.315 N 
HETATM   19  C2  UNL     1      23.536   5.393  49.619  1.00  0.00     0.111 A 
HETATM   20  C12 UNL     1      25.747   4.591  50.156  1.00  0.00     0.095 A 
HETATM   21  C1  UNL     1      23.201   5.519  48.126  1.00  0.00     0.037 C 
HETATM   22  C3  UNL     1      23.209   4.024  50.054  1.00  0.00     0.006 A 
HETATM   23  C4  UNL     1      23.972   3.026  50.462  1.00  0.00    -0.054 A 
HETATM   24  C11 UNL     1      25.387   3.378  50.504  1.00  0.00     0.024 A 
HETATM   25  O1  UNL     1      24.427   7.732  49.078  1.00  0.00    -0.265 OA
BRANCH  23  26
HETATM   26  C5  UNL     1      23.408   1.738  50.846  1.00  0.00     0.022 C 
HETATM   27  C6  UNL     1      23.432   1.629  52.365  1.00  0.00     0.039 C 
HETATM   28  C7  UNL     1      22.869   0.272  52.747  1.00  0.00     0.272 C 
HETATM   29  N1  UNL     1      21.441   0.335  52.521  1.00  0.00     0.084 N 
HETATM   30  C8  UNL     1      20.763   0.562  53.779  1.00  0.00     0.309 C 
HETATM   31  C9  UNL     1      21.065   1.354  51.563  1.00  0.00     0.272 C 
HETATM   32  C10 UNL     1      22.043   1.406  50.407  1.00  0.00     0.039 C 
ENDBRANCH  23  26
ENDBRANCH   1  17
BRANCH  12  33
HETATM   33  O3  UNL     1      30.161   4.887  47.835  1.00  0.00    -0.361 OA
HETATM   34  H28 UNL     1      29.520   4.141  47.698  1.00  0.00     0.217 HD
ENDBRANCH  12  33
TORSDOF 3
ENDMDL
MODEL 3
REMARK VINA RESULT:      -8.9      3.273     10.436
REMARK  3 active torsions:
REMARK  status: ('A' for Active; 'I' for Inactive)
REMARK    1  A    between atoms: C4_4  and  C5_5 
REMARK       I    between atoms: N2_14  and  C13_15 
REMARK    2  A    between atoms: C13_15  and  C14_17 
REMARK    3  A    between atoms: C23_28  and  O3_29 
ROOT
HETATM    1  C14 UNL     1      29.054   7.272  48.185  1.00  0.00     0.116 C 
HETATM    2  C15 UNL     1      29.834   7.009  47.185  1.00  0.00     0.123 C 
HETATM    3  N3  UNL     1      31.146   7.222  46.800  1.00  0.00    -0.361 N 
HETATM    4  C16 UNL     1      32.452   7.515  47.214  1.00  0.00     0.065 A 
HETATM    5  C17 UNL     1      33.293   6.474  47.579  1.00  0.00     0.032 A 
HETATM    6  C18 UNL     1      34.609   6.570  48.028  1.00  0.00     0.002 A 
HETATM    7  C19 UNL     1      35.033   7.872  48.082  1.00  0.00     0.003 A 
HETATM    8  C20 UNL     1      34.271   8.957  47.739  1.00  0.00     0.039 A 
HETATM    9  C21 UNL     1      32.973   8.804  47.300  1.00  0.00     0.095 A 
HETATM   10  O2  UNL     1      32.296   9.948  46.978  1.00  0.00    -0.342 OA
HETATM   11  C22 UNL     1      31.802  10.939  47.835  1.00  0.00     0.241 C 
HETATM   12  C23 UNL     1      30.812  10.471  48.820  1.00  0.00     0.082 C 
HETATM   13  C24 UNL     1      30.194   9.377  49.198  1.00  0.00     0.122 C 
HETATM   14  N4  UNL     1      29.928   7.992  49.088  1.00  0.00    -0.358 N 
HETATM   15  H21 UNL     1      31.478   7.180  45.826  1.00  0.00     0.165 HD
HETATM   16  H30 UNL     1      30.323   7.226  49.670  1.00  0.00     0.165 HD
ENDROOT
BRANCH   1  17
HETATM   17  C13 UNL     1      27.686   7.056  48.602  1.00  0.00     0.276 C 
HETATM   18  N2  UNL     1      26.849   6.000  48.957  1.00  0.00    -0.315 N 
HETATM   19  C2  UNL     1      25.464   6.297  49.325  1.00  0.00     0.111 A 
HETATM   20  C12 UNL     1      27.182   4.631  49.022  1.00  0.00     0.095 A 
HETATM   21  C1  UNL     1      24.802   6.834  48.047  1.00  0.00     0.037 C 
HETATM   22  C3  UNL     1      24.729   5.095  49.757  1.00  0.00     0.006 A 
HETATM   23  C4  UNL     1      25.081   3.823  49.815  1.00  0.00    -0.054 A 
HETATM   24  C11 UNL     1      26.460   3.600  49.393  1.00  0.00     0.024 A 
HETATM   25  O1  UNL     1      27.061   8.184  48.662  1.00  0.00    -0.265 OA
BRANCH  23  26
HETATM   26  C5  UNL     1      24.163   2.794  50.286  1.00  0.00     0.022 C 
HETATM   27  C6  UNL     1      23.751   3.124  51.715  1.00  0.00     0.039 C 
HETATM   28  C7  UNL     1      22.819   2.030  52.199  1.00  0.00     0.272 C 
HETATM   29  N1  UNL     1      21.556   2.228  51.522  1.00  0.00     0.084 N 
HETATM   30  C8  UNL     1      20.632   2.901  52.409  1.00  0.00     0.309 C 
HETATM   31  C9  UNL     1      21.689   2.970  50.285  1.00  0.00     0.272 C 
HETATM   32  C10 UNL     1      22.928   2.548  49.523  1.00  0.00     0.039 C 
ENDBRANCH  23  26
ENDBRANCH   1  17
BRANCH  12  33
HETATM   33  O3  UNL     1      30.473  11.615  49.546  1.00  0.00    -0.361 OA
HETATM   34  H28 UNL     1      30.413  12.534  49.177  1.00  0.00     0.217 HD
ENDBRANCH  12  33
TORSDOF 3
ENDMDL
MODEL 4
REMARK VINA RESULT:      -8.9      1.635      2.099
REMARK  3 active torsions:
REMARK  status: ('A' for Active; 'I' for Inactive)
REMARK    1  A    between atoms: C4_4  and  C5_5 
REMARK       I    between atoms: N2_14  and  C13_15 
REMARK    2  A    between atoms: C13_15  and  C14_17 
REMARK    3  A    between atoms: C23_28  and  O3_29 
ROOT
HETATM    1  C14 UNL     1      23.680   4.167  49.278  1.00  0.00     0.116 C 
HETATM    2  C15 UNL     1      23.288   3.012  48.840  1.00  0.00     0.123 C 
HETATM    3  N3  UNL     1      22.592   1.905  49.294  1.00  0.00    -0.361 N 
HETATM    4  C16 UNL     1      21.684   1.400  50.233  1.00  0.00     0.065 A 
HETATM    5  C17 UNL     1      20.325   1.475  49.964  1.00  0.00     0.032 A 
HETATM    6  C18 UNL     1      19.279   1.044  50.778  1.00  0.00     0.002 A 
HETATM    7  C19 UNL     1      19.737   0.500  51.949  1.00  0.00     0.003 A 
HETATM    8  C20 UNL     1      21.057   0.386  52.293  1.00  0.00     0.039 A 
HETATM    9  C21 UNL     1      22.053   0.830  51.449  1.00  0.00     0.095 A 
HETATM   10  O2  UNL     1      23.341   0.668  51.882  1.00  0.00    -0.342 OA
HETATM   11  C22 UNL     1      24.011   1.356  52.900  1.00  0.00     0.241 C 
HETATM   12  C23 UNL     1      24.121   2.812  52.698  1.00  0.00     0.082 C 
HETATM   13  C24 UNL     1      23.784   3.747  51.841  1.00  0.00     0.122 C 
HETATM   14  N4  UNL     1      23.180   4.178  50.637  1.00  0.00    -0.358 N 
HETATM   15  H21 UNL     1      22.650   0.970  48.866  1.00  0.00     0.165 HD
HETATM   16  H30 UNL     1      22.238   4.604  50.521  1.00  0.00     0.165 HD
ENDROOT
BRANCH   1  17
HETATM   17  C13 UNL     1      24.404   5.331  48.818  1.00  0.00     0.276 C 
HETATM   18  N2  UNL     1      25.720   5.730  48.594  1.00  0.00    -0.315 N 
HETATM   19  C2  UNL     1      25.967   7.084  48.095  1.00  0.00     0.111 A 
HETATM   20  C12 UNL     1      26.889   4.962  48.780  1.00  0.00     0.095 A 
HETATM   21  C1  UNL     1      25.518   8.027  49.221  1.00  0.00     0.037 C 
HETATM   22  C3  UNL     1      27.395   7.330  47.825  1.00  0.00     0.006 A 
HETATM   23  C4  UNL     1      28.465   6.577  48.003  1.00  0.00    -0.054 A 
HETATM   24  C11 UNL     1      28.144   5.260  48.542  1.00  0.00     0.024 A 
HETATM   25  O1  UNL     1      23.576   6.279  48.531  1.00  0.00    -0.265 OA
BRANCH  23  26
HETATM   26  C5  UNL     1      29.799   7.048  47.655  1.00  0.00     0.022 C 
HETATM   27  C6  UNL     1      29.667   8.326  46.837  1.00  0.00     0.039 C 
HETATM   28  C7  UNL     1      31.063   8.787  46.458  1.00  0.00     0.272 C 
HETATM   29  N1  UNL     1      31.667   9.318  47.661  1.00  0.00     0.084 N 
HETATM   30  C8  UNL     1      31.583  10.763  47.645  1.00  0.00     0.309 C 
HETATM   31  C9  UNL     1      31.066   8.798  48.872  1.00  0.00     0.272 C 
HETATM   32  C10 UNL     1      30.756   7.321  48.738  1.00  0.00     0.039 C 
ENDBRANCH  23  26
ENDBRANCH   1  17
BRANCH  12  33
HETATM   33  O3  UNL     1      24.814   3.270  53.821  1.00  0.00    -0.361 OA
HETATM   34  H28 UNL     1      24.615   4.106  54.318  1.00  0.00     0.217 HD
ENDBRANCH  12  33
TORSDOF 3
ENDMDL
MODEL 5
REMARK VINA RESULT:      -8.8      5.782      8.528
REMARK  3 active torsions:
REMARK  status: ('A' for Active; 'I' for Inactive)
REMARK    1  A    between atoms: C4_4  and  C5_5 
REMARK       I    between atoms: N2_14  and  C13_15 
REMARK    2  A    between atoms: C13_15  and  C14_17 
REMARK    3  A    between atoms: C23_28  and  O3_29 
ROOT
HETATM    1  C14 UNL     1      18.943   0.695  51.686  1.00  0.00     0.116 C 
HETATM    2  C15 UNL     1      18.149  -0.137  52.283  1.00  0.00     0.123 C 
HETATM    3  N3  UNL     1      16.797  -0.423  52.351  1.00  0.00    -0.361 N 
HETATM    4  C16 UNL     1      15.546  -0.307  51.732  1.00  0.00     0.065 A 
HETATM    5  C17 UNL     1      15.156  -1.272  50.815  1.00  0.00     0.032 A 
HETATM    6  C18 UNL     1      13.965  -1.317  50.092  1.00  0.00     0.002 A 
HETATM    7  C19 UNL     1      13.153  -0.254  50.385  1.00  0.00     0.003 A 
HETATM    8  C20 UNL     1      13.458   0.741  51.276  1.00  0.00     0.039 A 
HETATM    9  C21 UNL     1      14.652   0.735  51.965  1.00  0.00     0.095 A 
HETATM   10  O2  UNL     1      14.862   1.770  52.835  1.00  0.00    -0.342 OA
HETATM   11  C22 UNL     1      15.130   3.113  52.544  1.00  0.00     0.241 C 
HETATM   12  C23 UNL     1      16.357   3.347  51.762  1.00  0.00     0.082 C 
HETATM   13  C24 UNL     1      17.348   2.690  51.207  1.00  0.00     0.122 C 
HETATM   14  N4  UNL     1      18.031   1.492  50.893  1.00  0.00    -0.358 N 
HETATM   15  H21 UNL     1      16.353  -0.942  53.122  1.00  0.00     0.165 HD
HETATM   16  H30 UNL     1      18.000   0.964  49.997  1.00  0.00     0.165 HD
ENDROOT
BRANCH   1  17
HETATM   17  C13 UNL     1      20.353   1.005  51.604  1.00  0.00     0.276 C 
HETATM   18  N2  UNL     1      21.560   0.570  52.150  1.00  0.00    -0.315 N 
HETATM   19  C2  UNL     1      22.797   1.232  51.733  1.00  0.00     0.111 A 
HETATM   20  C12 UNL     1      21.749  -0.474  53.080  1.00  0.00     0.095 A 
HETATM   21  C1  UNL     1      22.692   2.673  52.256  1.00  0.00     0.037 C 
HETATM   22  C3  UNL     1      23.993   0.610  52.327  1.00  0.00     0.006 A 
HETATM   23  C4  UNL     1      24.131  -0.381  53.190  1.00  0.00    -0.054 A 
HETATM   24  C11 UNL     1      22.855  -0.961  53.592  1.00  0.00     0.024 A 
HETATM   25  O1  UNL     1      20.543   1.975  50.773  1.00  0.00    -0.265 OA
BRANCH  23  26
HETATM   26  C5  UNL     1      25.444  -0.827  53.640  1.00  0.00     0.022 C 
HETATM   27  C6  UNL     1      26.490  -0.347  52.643  1.00  0.00     0.039 C 
HETATM   28  C7  UNL     1      27.846  -0.844  53.109  1.00  0.00     0.272 C 
HETATM   29  N1  UNL     1      28.209  -0.047  54.260  1.00  0.00     0.084 N 
HETATM   30  C8  UNL     1      29.136   0.988  53.857  1.00  0.00     0.309 C 
HETATM   31  C9  UNL     1      27.064   0.542  54.923  1.00  0.00     0.272 C 
HETATM   32  C10 UNL     1      25.904  -0.430  54.979  1.00  0.00     0.039 C 
ENDBRANCH  23  26
ENDBRANCH   1  17
BRANCH  12  33
HETATM   33  O3  UNL     1      16.410   4.732  51.600  1.00  0.00    -0.361 OA
HETATM   34  H28 UNL     1      17.068   5.338  52.033  1.00  0.00     0.217 HD
ENDBRANCH  12  33
TORSDOF 3
ENDMDL
MODEL 6
REMARK VINA RESULT:      -8.6      3.445     10.678
REMARK  3 active torsions:
REMARK  status: ('A' for Active; 'I' for Inactive)
REMARK    1  A    between atoms: C4_4  and  C5_5 
REMARK       I    between atoms: N2_14  and  C13_15 
REMARK    2  A    between atoms: C13_15  and  C14_17 
REMARK    3  A    between atoms: C23_28  and  O3_29 
ROOT
HETATM    1  C14 UNL     1      27.946   8.472  47.878  1.00  0.00     0.116 C 
HETATM    2  C15 UNL     1      28.433   8.597  46.684  1.00  0.00     0.123 C 
HETATM    3  N3  UNL     1      29.462   9.263  46.040  1.00  0.00    -0.361 N 
HETATM    4  C16 UNL     1      30.701   9.903  46.171  1.00  0.00     0.065 A 
HETATM    5  C17 UNL     1      31.861   9.147  46.092  1.00  0.00     0.032 A 
HETATM    6  C18 UNL     1      33.173   9.601  46.212  1.00  0.00     0.002 A 
HETATM    7  C19 UNL     1      33.225  10.953  46.429  1.00  0.00     0.003 A 
HETATM    8  C20 UNL     1      32.132  11.773  46.518  1.00  0.00     0.039 A 
HETATM    9  C21 UNL     1      30.854  11.269  46.391  1.00  0.00     0.095 A 
HETATM   10  O2  UNL     1      29.829  12.169  46.491  1.00  0.00    -0.342 OA
HETATM   11  C22 UNL     1      29.364  12.837  47.630  1.00  0.00     0.241 C 
HETATM   12  C23 UNL     1      28.878  11.961  48.710  1.00  0.00     0.082 C 
HETATM   13  C24 UNL     1      28.721  10.689  48.993  1.00  0.00     0.122 C 
HETATM   14  N4  UNL     1      28.820   9.316  48.667  1.00  0.00    -0.358 N 
HETATM   15  H21 UNL     1      29.486   9.449  45.028  1.00  0.00     0.165 HD
HETATM   16  H30 UNL     1      29.563   8.650  48.961  1.00  0.00     0.165 HD
ENDROOT
BRANCH   1  17
HETATM   17  C13 UNL     1      26.877   7.783  48.565  1.00  0.00     0.276 C 
HETATM   18  N2  UNL     1      26.555   6.493  48.983  1.00  0.00    -0.315 N 
HETATM   19  C2  UNL     1      25.287   6.278  49.682  1.00  0.00     0.111 A 
HETATM   20  C12 UNL     1      27.331   5.325  48.823  1.00  0.00     0.095 A 
HETATM   21  C1  UNL     1      24.190   6.580  48.650  1.00  0.00     0.037 C 
HETATM   22  C3  UNL     1      25.126   4.885  50.136  1.00  0.00     0.006 A 
HETATM   23  C4  UNL     1      25.885   3.816  49.976  1.00  0.00    -0.054 A 
HETATM   24  C11 UNL     1      27.109   4.099  49.235  1.00  0.00     0.024 A 
HETATM   25  O1  UNL     1      25.947   8.620  48.885  1.00  0.00    -0.265 OA
BRANCH  23  26
HETATM   26  C5  UNL     1      25.509   2.521  50.528  1.00  0.00     0.022 C 
HETATM   27  C6  UNL     1      26.687   1.967  51.319  1.00  0.00     0.039 C 
HETATM   28  C7  UNL     1      26.289   0.606  51.861  1.00  0.00     0.272 C 
HETATM   29  N1  UNL     1      25.352   0.844  52.937  1.00  0.00     0.084 N 
HETATM   30  C8  UNL     1      26.039   0.742  54.207  1.00  0.00     0.309 C 
HETATM   31  C9  UNL     1      24.686   2.126  52.833  1.00  0.00     0.272 C 
HETATM   32  C10 UNL     1      24.324   2.440  51.396  1.00  0.00     0.039 C 
ENDBRANCH  23  26
ENDBRANCH   1  17
BRANCH  12  33
HETATM   33  O3  UNL     1      28.475  12.838  49.719  1.00  0.00    -0.361 OA
HETATM   34  H28 UNL     1      27.570  12.870  50.127  1.00  0.00     0.217 HD
ENDBRANCH  12  33
TORSDOF 3
ENDMDL
MODEL 7
REMARK VINA RESULT:      -8.5      2.274      3.248
REMARK  3 active torsions:
REMARK  status: ('A' for Active; 'I' for Inactive)
REMARK    1  A    between atoms: C4_4  and  C5_5 
REMARK       I    between atoms: N2_14  and  C13_15 
REMARK    2  A    between atoms: C13_15  and  C14_17 
REMARK    3  A    between atoms: C23_28  and  O3_29 
ROOT
HETATM    1  C14 UNL     1      23.330   4.332  50.749  1.00  0.00     0.116 C 
HETATM    2  C15 UNL     1      22.787   4.119  51.906  1.00  0.00     0.123 C 
HETATM    3  N3  UNL     1      22.067   3.131  52.555  1.00  0.00    -0.361 N 
HETATM    4  C16 UNL     1      21.725   1.773  52.600  1.00  0.00     0.065 A 
HETATM    5  C17 UNL     1      22.536   0.898  53.308  1.00  0.00     0.032 A 
HETATM    6  C18 UNL     1      22.368  -0.478  53.452  1.00  0.00     0.002 A 
HETATM    7  C19 UNL     1      21.254  -0.925  52.791  1.00  0.00     0.003 A 
HETATM    8  C20 UNL     1      20.400  -0.132  52.073  1.00  0.00     0.039 A 
HETATM    9  C21 UNL     1      20.615   1.226  51.963  1.00  0.00     0.095 A 
HETATM   10  O2  UNL     1      19.703   1.933  51.227  1.00  0.00    -0.342 OA
HETATM   11  C22 UNL     1      19.516   1.934  49.840  1.00  0.00     0.241 C 
HETATM   12  C23 UNL     1      20.685   2.366  49.054  1.00  0.00     0.082 C 
HETATM   13  C24 UNL     1      21.921   2.776  49.215  1.00  0.00     0.122 C 
HETATM   14  N4  UNL     1      23.029   3.112  50.027  1.00  0.00    -0.358 N 
HETATM   15  H21 UNL     1      21.479   3.294  53.384  1.00  0.00     0.165 HD
HETATM   16  H30 UNL     1      23.856   2.520  50.244  1.00  0.00     0.165 HD
ENDROOT
BRANCH   1  17
HETATM   17  C13 UNL     1      24.083   5.354  50.057  1.00  0.00     0.276 C 
HETATM   18  N2  UNL     1      25.355   5.540  49.518  1.00  0.00    -0.315 N 
HETATM   19  C2  UNL     1      25.666   6.820  48.881  1.00  0.00     0.111 A 
HETATM   20  C12 UNL     1      26.417   4.612  49.498  1.00  0.00     0.095 A 
HETATM   21  C1  UNL     1      25.623   7.865  50.006  1.00  0.00     0.037 C 
HETATM   22  C3  UNL     1      27.014   6.837  48.284  1.00  0.00     0.006 A 
HETATM   23  C4  UNL     1      27.981   5.938  48.276  1.00  0.00    -0.054 A 
HETATM   24  C11 UNL     1      27.614   4.707  48.966  1.00  0.00     0.024 A 
HETATM   25  O1  UNL     1      23.351   6.405  49.892  1.00  0.00    -0.265 OA
BRANCH  23  26
HETATM   26  C5  UNL     1      29.253   6.187  47.608  1.00  0.00     0.022 C 
HETATM   27  C6  UNL     1      29.728   7.588  47.972  1.00  0.00     0.039 C 
HETATM   28  C7  UNL     1      31.036   7.843  47.246  1.00  0.00     0.272 C 
HETATM   29  N1  UNL     1      32.045   7.051  47.916  1.00  0.00     0.084 N 
HETATM   30  C8  UNL     1      32.803   7.896  48.815  1.00  0.00     0.309 C 
HETATM   31  C9  UNL     1      31.492   5.926  48.640  1.00  0.00     0.272 C 
HETATM   32  C10 UNL     1      30.374   5.268  47.858  1.00  0.00     0.039 C 
ENDBRANCH  23  26
ENDBRANCH   1  17
BRANCH  12  33
HETATM   33  O3  UNL     1      20.264   2.285  47.725  1.00  0.00    -0.361 OA
HETATM   34  H28 UNL     1      20.587   2.860  46.983  1.00  0.00     0.217 HD
ENDBRANCH  12  33
TORSDOF 3
ENDMDL
MODEL 8
REMARK VINA RESULT:      -8.4      1.909      3.047
REMARK  3 active torsions:
REMARK  status: ('A' for Active; 'I' for Inactive)
REMARK    1  A    between atoms: C4_4  and  C5_5 
REMARK       I    between atoms: N2_14  and  C13_15 
REMARK    2  A    between atoms: C13_15  and  C14_17 
REMARK    3  A    between atoms: C23_28  and  O3_29 
ROOT
HETATM    1  C14 UNL     1      23.914   4.330  50.533  1.00  0.00     0.116 C 
HETATM    2  C15 UNL     1      23.840   4.167  51.816  1.00  0.00     0.123 C 
HETATM    3  N3  UNL     1      23.694   3.139  52.731  1.00  0.00    -0.361 N 
HETATM    4  C16 UNL     1      23.821   1.765  52.974  1.00  0.00     0.065 A 
HETATM    5  C17 UNL     1      25.037   1.270  53.421  1.00  0.00     0.032 A 
HETATM    6  C18 UNL     1      25.356  -0.058  53.701  1.00  0.00     0.002 A 
HETATM    7  C19 UNL     1      24.292  -0.892  53.483  1.00  0.00     0.003 A 
HETATM    8  C20 UNL     1      23.059  -0.489  53.044  1.00  0.00     0.039 A 
HETATM    9  C21 UNL     1      22.798   0.840  52.783  1.00  0.00     0.095 A 
HETATM   10  O2  UNL     1      21.535   1.143  52.353  1.00  0.00    -0.342 OA
HETATM   11  C22 UNL     1      20.947   0.868  51.112  1.00  0.00     0.241 C 
HETATM   12  C23 UNL     1      21.630   1.471  49.954  1.00  0.00     0.082 C 
HETATM   13  C24 UNL     1      22.665   2.223  49.664  1.00  0.00     0.122 C 
HETATM   14  N4  UNL     1      23.805   2.975  50.033  1.00  0.00    -0.358 N 
HETATM   15  H21 UNL     1      23.363   3.267  53.697  1.00  0.00     0.165 HD
HETATM   16  H30 UNL     1      24.799   2.674  49.996  1.00  0.00     0.165 HD
ENDROOT
BRANCH   1  17
HETATM   17  C13 UNL     1      24.067   5.393  49.565  1.00  0.00     0.276 C 
HETATM   18  N2  UNL     1      25.087   6.077  48.906  1.00  0.00    -0.315 N 
HETATM   19  C2  UNL     1      24.726   7.135  47.961  1.00  0.00     0.111 A 
HETATM   20  C12 UNL     1      26.476   5.863  49.028  1.00  0.00     0.095 A 
HETATM   21  C1  UNL     1      24.073   8.240  48.806  1.00  0.00     0.037 C 
HETATM   22  C3  UNL     1      25.902   7.706  47.281  1.00  0.00     0.006 A 
HETATM   23  C4  UNL     1      27.194   7.469  47.416  1.00  0.00    -0.054 A 
HETATM   24  C11 UNL     1      27.479   6.435  48.404  1.00  0.00     0.024 A 
HETATM   25  O1  UNL     1      22.907   5.835  49.208  1.00  0.00    -0.265 OA
BRANCH  23  26
HETATM   26  C5  UNL     1      28.189   8.174  46.617  1.00  0.00     0.022 C 
HETATM   27  C6  UNL     1      28.259   9.620  47.089  1.00  0.00     0.039 C 
HETATM   28  C7  UNL     1      29.277  10.346  46.229  1.00  0.00     0.272 C 
HETATM   29  N1  UNL     1      30.582   9.881  46.646  1.00  0.00     0.084 N 
HETATM   30  C8  UNL     1      31.181  10.856  47.532  1.00  0.00     0.309 C 
HETATM   31  C9  UNL     1      30.540   8.584  47.288  1.00  0.00     0.272 C 
HETATM   32  C10 UNL     1      29.567   7.658  46.589  1.00  0.00     0.039 C 
ENDBRANCH  23  26
ENDBRANCH   1  17
BRANCH  12  33
HETATM   33  O3  UNL     1      20.875   1.064  48.852  1.00  0.00    -0.361 OA
HETATM   34  H28 UNL     1      21.034   1.341  47.912  1.00  0.00     0.217 HD
ENDBRANCH  12  33
TORSDOF 3
ENDMDL
MODEL 9
REMARK VINA RESULT:      -8.3      3.345      4.344
REMARK  3 active torsions:
REMARK  status: ('A' for Active; 'I' for Inactive)
REMARK    1  A    between atoms: C4_4  and  C5_5 
REMARK       I    between atoms: N2_14  and  C13_15 
REMARK    2  A    between atoms: C13_15  and  C14_17 
REMARK    3  A    between atoms: C23_28  and  O3_29 
ROOT
HETATM    1  C14 UNL     1      23.353   3.261  50.788  1.00  0.00     0.116 C 
HETATM    2  C15 UNL     1      22.908   2.071  50.535  1.00  0.00     0.123 C 
HETATM    3  N3  UNL     1      22.641   0.891  51.207  1.00  0.00    -0.361 N 
HETATM    4  C16 UNL     1      22.376   0.285  52.442  1.00  0.00     0.065 A 
HETATM    5  C17 UNL     1      21.065   0.207  52.886  1.00  0.00     0.032 A 
HETATM    6  C18 UNL     1      20.611  -0.342  54.085  1.00  0.00     0.002 A 
HETATM    7  C19 UNL     1      21.642  -0.834  54.840  1.00  0.00     0.003 A 
HETATM    8  C20 UNL     1      22.962  -0.799  54.478  1.00  0.00     0.039 A 
HETATM    9  C21 UNL     1      23.356  -0.244  53.279  1.00  0.00     0.095 A 
HETATM   10  O2  UNL     1      24.697  -0.261  53.006  1.00  0.00    -0.342 OA
HETATM   11  C22 UNL     1      25.716   0.496  53.597  1.00  0.00     0.241 C 
HETATM   12  C23 UNL     1      25.569   1.955  53.454  1.00  0.00     0.082 C 
HETATM   13  C24 UNL     1      24.762   2.848  52.932  1.00  0.00     0.122 C 
HETATM   14  N4  UNL     1      23.599   3.212  52.214  1.00  0.00    -0.358 N 
HETATM   15  H21 UNL     1      22.568  -0.030  50.753  1.00  0.00     0.165 HD
HETATM   16  H30 UNL     1      22.689   3.530  52.605  1.00  0.00     0.165 HD
ENDROOT
BRANCH   1  17
HETATM   17  C13 UNL     1      23.635   4.501  50.099  1.00  0.00     0.276 C 
HETATM   18  N2  UNL     1      23.371   5.106  48.871  1.00  0.00    -0.315 N 
HETATM   19  C2  UNL     1      23.899   6.448  48.623  1.00  0.00     0.111 A 
HETATM   20  C12 UNL     1      22.621   4.575  47.802  1.00  0.00     0.095 A 
HETATM   21  C1  UNL     1      25.428   6.294  48.599  1.00  0.00     0.037 C 
HETATM   22  C3  UNL     1      23.468   6.990  47.322  1.00  0.00     0.006 A 
HETATM   23  C4  UNL     1      22.751   6.462  46.346  1.00  0.00    -0.054 A 
HETATM   24  C11 UNL     1      22.296   5.109  46.648  1.00  0.00     0.024 A 
HETATM   25  O1  UNL     1      24.342   5.273  50.855  1.00  0.00    -0.265 OA
BRANCH  23  26
HETATM   26  C5  UNL     1      22.449   7.206  45.130  1.00  0.00     0.022 C 
HETATM   27  C6  UNL     1      21.843   8.549  45.517  1.00  0.00     0.039 C 
HETATM   28  C7  UNL     1      21.509   9.298  44.240  1.00  0.00     0.272 C 
HETATM   29  N1  UNL     1      22.765   9.741  43.676  1.00  0.00     0.084 N 
HETATM   30  C8  UNL     1      22.976  11.135  44.004  1.00  0.00     0.309 C 
HETATM   31  C9  UNL     1      23.894   8.949  44.119  1.00  0.00     0.272 C 
HETATM   32  C10 UNL     1      23.539   7.478  44.180  1.00  0.00     0.039 C 
ENDBRANCH  23  26
ENDBRANCH   1  17
BRANCH  12  33
HETATM   33  O3  UNL     1      26.682   2.485  54.110  1.00  0.00    -0.361 OA
HETATM   34  H28 UNL     1      27.028   3.409  54.002  1.00  0.00     0.217 HD
ENDBRANCH  12  33
TORSDOF 3
ENDMDL
