MODEL 1
REMARK VINA RESULT:      -7.8      0.000      0.000
REMARK  6 active torsions:
REMARK  status: ('A' for Active; 'I' for Inactive)
REMARK    1  A    between atoms: O1_2  and  C2_3 
REMARK    2  A    between atoms: C6_9  and  N3_10 
REMARK    3  A    between atoms: N3_10  and  C7_11 
REMARK    4  A    between atoms: C16_21  and  O2_22 
REMARK    5  A    between atoms: O2_22  and  C17_23 
REMARK    6  A    between atoms: C17_23  and  C18_24 
ROOT
HETATM    1  C2  UNL     1      26.770   2.089  52.687  1.00  0.00     0.102 C 
HETATM    2  C3  UNL     1      26.159   1.779  53.883  1.00  0.00     0.059 C 
HETATM    3  C4  UNL     1      25.943   0.438  54.218  1.00  0.00     0.121 C 
HETATM    4  N1  UNL     1      25.268  -0.307  53.312  1.00  0.00    -0.254 NA
HETATM    5  C5  UNL     1      23.917  -0.305  53.231  1.00  0.00     0.234 C 
HETATM    6  N2  UNL     1      23.515   0.985  53.200  1.00  0.00    -0.225 NA
HETATM    7  C6  UNL     1      22.732   1.452  52.250  1.00  0.00     0.129 C 
HETATM    8  C14 UNL     1      23.703   1.620  51.283  1.00  0.00     0.053 C 
HETATM    9  C15 UNL     1      24.819   2.432  51.273  1.00  0.00     0.043 C 
HETATM   10  C16 UNL     1      26.148   2.539  51.542  1.00  0.00     0.102 C 
ENDROOT
BRANCH   7  11
HETATM   11  N3  UNL     1      21.383   1.755  52.060  1.00  0.00    -0.341 N 
HETATM   12  H7  UNL     1      21.173   2.722  51.737  1.00  0.00     0.167 HD
BRANCH  11  13
HETATM   13  C7  UNL     1      20.330   0.841  52.279  1.00  0.00     0.034 A 
HETATM   14  C8  UNL     1      20.225   0.037  53.376  1.00  0.00     0.031 A 
HETATM   15  C9  UNL     1      19.152  -0.848  53.528  1.00  0.00     0.026 A 
HETATM   16  C10 UNL     1      18.163  -0.915  52.540  1.00  0.00     0.040 A 
HETATM   17 CL1  UNL     1      16.802  -2.013  52.699  1.00  0.00    -0.084 Cl
HETATM   18  C11 UNL     1      18.243  -0.121  51.432  1.00  0.00    -0.038 A 
HETATM   19  C12 UNL     1      17.227  -0.142  50.345  1.00  0.00     0.050 C 
HETATM   20  C13 UNL     1      19.311   0.713  51.351  1.00  0.00     0.038 A 
ENDBRANCH  11  13
ENDBRANCH   7  11
BRANCH  10  21
HETATM   21  O2  UNL     1      26.969   3.143  50.612  1.00  0.00    -0.346 OA
BRANCH  21  22
HETATM   22  C17 UNL     1      26.610   3.581  49.340  1.00  0.00     0.207 C 
BRANCH  22  23
HETATM   23  C18 UNL     1      27.194   4.887  48.915  1.00  0.00     0.248 C 
HETATM   24  F1  UNL     1      28.366   4.632  48.187  1.00  0.00    -0.253 F 
ENDBRANCH  22  23
ENDBRANCH  21  22
ENDBRANCH  10  21
BRANCH   1  25
HETATM   25  O1  UNL     1      28.144   1.907  52.712  1.00  0.00    -0.353 OA
HETATM   26  C1  UNL     1      28.942   2.460  53.715  1.00  0.00     0.210 C 
ENDBRANCH   1  25
TORSDOF 6
ENDMDL
MODEL 2
REMARK VINA RESULT:      -7.8      4.398      6.421
REMARK  6 active torsions:
REMARK  status: ('A' for Active; 'I' for Inactive)
REMARK    1  A    between atoms: O1_2  and  C2_3 
REMARK    2  A    between atoms: C6_9  and  N3_10 
REMARK    3  A    between atoms: N3_10  and  C7_11 
REMARK    4  A    between atoms: C16_21  and  O2_22 
REMARK    5  A    between atoms: O2_22  and  C17_23 
REMARK    6  A    between atoms: C17_23  and  C18_24 
ROOT
HETATM    1  C2  UNL     1      25.600  -0.511  53.902  1.00  0.00     0.102 C 
HETATM    2  C3  UNL     1      26.886  -0.628  53.421  1.00  0.00     0.059 C 
HETATM    3  C4  UNL     1      27.937  -0.018  54.114  1.00  0.00     0.121 C 
HETATM    4  N1  UNL     1      27.808   1.306  54.358  1.00  0.00    -0.254 NA
HETATM    5  C5  UNL     1      28.115   2.250  53.438  1.00  0.00     0.234 C 
HETATM    6  N2  UNL     1      27.504   1.903  52.284  1.00  0.00    -0.225 NA
HETATM    7  C6  UNL     1      26.712   2.732  51.633  1.00  0.00     0.129 C 
HETATM    8  C14 UNL     1      25.586   2.550  52.410  1.00  0.00     0.053 C 
HETATM    9  C15 UNL     1      24.830   1.416  52.630  1.00  0.00     0.043 C 
HETATM   10  C16 UNL     1      24.619   0.328  53.420  1.00  0.00     0.102 C 
ENDROOT
BRANCH   7  11
HETATM   11  N3  UNL     1      26.771   3.588  50.532  1.00  0.00    -0.341 N 
HETATM   12  H7  UNL     1      27.724   3.835  50.197  1.00  0.00     0.167 HD
BRANCH  11  13
HETATM   13  C7  UNL     1      25.634   4.113  49.879  1.00  0.00     0.034 A 
HETATM   14  C8  UNL     1      25.420   5.442  49.659  1.00  0.00     0.031 A 
HETATM   15  C9  UNL     1      24.269   5.893  49.004  1.00  0.00     0.026 A 
HETATM   16  C10 UNL     1      23.314   4.968  48.563  1.00  0.00     0.040 A 
HETATM   17 CL1  UNL     1      21.859   5.498  47.737  1.00  0.00    -0.084 Cl
HETATM   18  C11 UNL     1      23.505   3.631  48.771  1.00  0.00    -0.038 A 
HETATM   19  C12 UNL     1      22.531   2.596  48.329  1.00  0.00     0.050 C 
HETATM   20  C13 UNL     1      24.644   3.266  49.412  1.00  0.00     0.038 A 
ENDBRANCH  11  13
ENDBRANCH   7  11
BRANCH  10  21
HETATM   21  O2  UNL     1      23.326   0.012  53.784  1.00  0.00    -0.346 OA
BRANCH  21  22
HETATM   22  C17 UNL     1      22.457  -0.848  53.119  1.00  0.00     0.207 C 
BRANCH  22  23
HETATM   23  C18 UNL     1      21.600  -1.705  53.990  1.00  0.00     0.248 C 
HETATM   24  F1  UNL     1      22.330  -2.039  55.140  1.00  0.00    -0.253 F 
ENDBRANCH  22  23
ENDBRANCH  21  22
ENDBRANCH  10  21
BRANCH   1  25
HETATM   25  O1  UNL     1      25.339  -1.350  54.974  1.00  0.00    -0.353 OA
HETATM   26  C1  UNL     1      25.214  -0.864  56.277  1.00  0.00     0.210 C 
ENDBRANCH   1  25
TORSDOF 6
ENDMDL
MODEL 3
REMARK VINA RESULT:      -7.6      4.608      7.793
REMARK  6 active torsions:
REMARK  status: ('A' for Active; 'I' for Inactive)
REMARK    1  A    between atoms: O1_2  and  C2_3 
REMARK    2  A    between atoms: C6_9  and  N3_10 
REMARK    3  A    between atoms: N3_10  and  C7_11 
REMARK    4  A    between atoms: C16_21  and  O2_22 
REMARK    5  A    between atoms: O2_22  and  C17_23 
REMARK    6  A    between atoms: C17_23  and  C18_24 
ROOT
HETATM    1  C2  UNL     1      25.251  -0.568  53.531  1.00  0.00     0.102 C 
HETATM    2  C3  UNL     1      26.417  -0.611  52.798  1.00  0.00     0.059 C 
HETATM    3  C4  UNL     1      27.512   0.162  53.201  1.00  0.00     0.121 C 
HETATM    4  N1  UNL     1      27.286   1.486  53.364  1.00  0.00    -0.254 NA
HETATM    5  C5  UNL     1      27.291   2.357  52.328  1.00  0.00     0.234 C 
HETATM    6  N2  UNL     1      26.501   1.841  51.361  1.00  0.00    -0.225 NA
HETATM    7  C6  UNL     1      25.505   2.522  50.831  1.00  0.00     0.129 C 
HETATM    8  C14 UNL     1      24.588   2.313  51.841  1.00  0.00     0.053 C 
HETATM    9  C15 UNL     1      24.026   1.142  52.305  1.00  0.00     0.043 C 
HETATM   10  C16 UNL     1      24.104   0.123  53.204  1.00  0.00     0.102 C 
ENDROOT
BRANCH   7  11
HETATM   11  N3  UNL     1      25.241   3.265  49.680  1.00  0.00    -0.341 N 
HETATM   12  H7  UNL     1      24.509   2.883  49.047  1.00  0.00     0.167 HD
BRANCH  11  13
HETATM   13  C7  UNL     1      25.901   4.469  49.348  1.00  0.00     0.034 A 
HETATM   14  C8  UNL     1      25.332   5.705  49.429  1.00  0.00     0.031 A 
HETATM   15  C9  UNL     1      26.047   6.858  49.083  1.00  0.00     0.026 A 
HETATM   16  C10 UNL     1      27.372   6.747  48.645  1.00  0.00     0.040 A 
HETATM   17 CL1  UNL     1      28.299   8.171  48.205  1.00  0.00    -0.084 Cl
HETATM   18  C11 UNL     1      27.966   5.520  48.556  1.00  0.00    -0.038 A 
HETATM   19  C12 UNL     1      29.370   5.331  48.098  1.00  0.00     0.050 C 
HETATM   20  C13 UNL     1      27.213   4.446  48.907  1.00  0.00     0.038 A 
ENDBRANCH  11  13
ENDBRANCH   7  11
BRANCH  10  21
HETATM   21  O2  UNL     1      22.957  -0.275  53.859  1.00  0.00    -0.346 OA
BRANCH  21  22
HETATM   22  C17 UNL     1      21.722   0.367  53.848  1.00  0.00     0.207 C 
BRANCH  22  23
HETATM   23  C18 UNL     1      20.560  -0.468  53.424  1.00  0.00     0.248 C 
HETATM   24  F1  UNL     1      20.276  -0.185  52.080  1.00  0.00    -0.253 F 
ENDBRANCH  22  23
ENDBRANCH  21  22
ENDBRANCH  10  21
BRANCH   1  25
HETATM   25  O1  UNL     1      25.310  -1.316  54.697  1.00  0.00    -0.353 OA
HETATM   26  C1  UNL     1      25.455  -0.718  55.949  1.00  0.00     0.210 C 
ENDBRANCH   1  25
TORSDOF 6
ENDMDL
MODEL 4
REMARK VINA RESULT:      -7.4      3.502      6.687
REMARK  6 active torsions:
REMARK  status: ('A' for Active; 'I' for Inactive)
REMARK    1  A    between atoms: O1_2  and  C2_3 
REMARK    2  A    between atoms: C6_9  and  N3_10 
REMARK    3  A    between atoms: N3_10  and  C7_11 
REMARK    4  A    between atoms: C16_21  and  O2_22 
REMARK    5  A    between atoms: O2_22  and  C17_23 
REMARK    6  A    between atoms: C17_23  and  C18_24 
ROOT
HETATM    1  C2  UNL     1      21.847   2.026  49.899  1.00  0.00     0.102 C 
HETATM    2  C3  UNL     1      21.102   0.932  50.286  1.00  0.00     0.059 C 
HETATM    3  C4  UNL     1      20.126   1.082  51.277  1.00  0.00     0.121 C 
HETATM    4  N1  UNL     1      20.537   1.619  52.450  1.00  0.00    -0.254 NA
HETATM    5  C5  UNL     1      21.138   0.885  53.415  1.00  0.00     0.234 C 
HETATM    6  N2  UNL     1      22.128   0.177  52.828  1.00  0.00    -0.225 NA
HETATM    7  C6  UNL     1      23.371   0.217  53.262  1.00  0.00     0.129 C 
HETATM    8  C14 UNL     1      23.729   1.412  52.670  1.00  0.00     0.053 C 
HETATM    9  C15 UNL     1      23.794   1.760  51.336  1.00  0.00     0.043 C 
HETATM   10  C16 UNL     1      23.144   2.306  50.272  1.00  0.00     0.102 C 
ENDROOT
BRANCH   7  11
HETATM   11  N3  UNL     1      24.232  -0.554  54.044  1.00  0.00    -0.341 N 
HETATM   12  H7  UNL     1      23.801  -1.034  54.861  1.00  0.00     0.167 HD
BRANCH  11  13
HETATM   13  C7  UNL     1      25.612  -0.705  53.786  1.00  0.00     0.034 A 
HETATM   14  C8  UNL     1      26.137  -1.625  52.928  1.00  0.00     0.031 A 
HETATM   15  C9  UNL     1      27.518  -1.719  52.720  1.00  0.00     0.026 A 
HETATM   16  C10 UNL     1      28.383  -0.855  53.402  1.00  0.00     0.040 A 
HETATM   17 CL1  UNL     1      30.120  -0.944  53.165  1.00  0.00    -0.084 Cl
HETATM   18  C11 UNL     1      27.882   0.077  54.267  1.00  0.00    -0.038 A 
HETATM   19  C12 UNL     1      28.745   1.025  55.024  1.00  0.00     0.050 C 
HETATM   20  C13 UNL     1      26.534   0.111  54.420  1.00  0.00     0.038 A 
ENDBRANCH  11  13
ENDBRANCH   7  11
BRANCH  10  21
HETATM   21  O2  UNL     1      23.811   3.219  49.482  1.00  0.00    -0.346 OA
BRANCH  21  22
HETATM   22  C17 UNL     1      25.176   3.494  49.493  1.00  0.00     0.207 C 
BRANCH  22  23
HETATM   23  C18 UNL     1      25.547   4.938  49.438  1.00  0.00     0.248 C 
HETATM   24  F1  UNL     1      26.638   5.083  48.569  1.00  0.00    -0.253 F 
ENDBRANCH  22  23
ENDBRANCH  21  22
ENDBRANCH  10  21
BRANCH   1  25
HETATM   25  O1  UNL     1      21.161   2.882  49.051  1.00  0.00    -0.353 OA
HETATM   26  C1  UNL     1      20.685   2.462  47.808  1.00  0.00     0.210 C 
ENDBRANCH   1  25
TORSDOF 6
ENDMDL
MODEL 5
REMARK VINA RESULT:      -7.3      4.203      7.429
REMARK  6 active torsions:
REMARK  status: ('A' for Active; 'I' for Inactive)
REMARK    1  A    between atoms: O1_2  and  C2_3 
REMARK    2  A    between atoms: C6_9  and  N3_10 
REMARK    3  A    between atoms: N3_10  and  C7_11 
REMARK    4  A    between atoms: C16_21  and  O2_22 
REMARK    5  A    between atoms: O2_22  and  C17_23 
REMARK    6  A    between atoms: C17_23  and  C18_24 
ROOT
HETATM    1  C2  UNL     1      22.895   0.190  53.036  1.00  0.00     0.102 C 
HETATM    2  C3  UNL     1      21.809   0.945  52.648  1.00  0.00     0.059 C 
HETATM    3  C4  UNL     1      21.399   0.925  51.311  1.00  0.00     0.121 C 
HETATM    4  N1  UNL     1      22.343   1.226  50.388  1.00  0.00    -0.254 NA
HETATM    5  C5  UNL     1      22.672   2.501  50.074  1.00  0.00     0.234 C 
HETATM    6  N2  UNL     1      22.893   3.160  51.232  1.00  0.00    -0.225 NA
HETATM    7  C6  UNL     1      24.010   3.820  51.461  1.00  0.00     0.129 C 
HETATM    8  C14 UNL     1      24.792   2.736  51.804  1.00  0.00     0.053 C 
HETATM    9  C15 UNL     1      24.669   1.846  52.852  1.00  0.00     0.043 C 
HETATM   10  C16 UNL     1      24.171   0.653  53.276  1.00  0.00     0.102 C 
ENDROOT
BRANCH   7  11
HETATM   11  N3  UNL     1      24.471   5.137  51.434  1.00  0.00    -0.341 N 
HETATM   12  H7  UNL     1      24.606   5.593  52.360  1.00  0.00     0.167 HD
BRANCH  11  13
HETATM   13  C7  UNL     1      24.752   5.851  50.249  1.00  0.00     0.034 A 
HETATM   14  C8  UNL     1      23.831   6.574  49.550  1.00  0.00     0.031 A 
HETATM   15  C9  UNL     1      24.181   7.259  48.380  1.00  0.00     0.026 A 
HETATM   16  C10 UNL     1      25.499   7.205  47.912  1.00  0.00     0.040 A 
HETATM   17 CL1  UNL     1      25.973   8.051  46.450  1.00  0.00    -0.084 Cl
HETATM   18  C11 UNL     1      26.441   6.488  48.594  1.00  0.00    -0.038 A 
HETATM   19  C12 UNL     1      27.859   6.389  48.152  1.00  0.00     0.050 C 
HETATM   20  C13 UNL     1      26.032   5.850  49.720  1.00  0.00     0.038 A 
ENDBRANCH  11  13
ENDBRANCH   7  11
BRANCH  10  21
HETATM   21  O2  UNL     1      24.984  -0.185  54.011  1.00  0.00    -0.346 OA
BRANCH  21  22
HETATM   22  C17 UNL     1      26.324  -0.472  53.768  1.00  0.00     0.207 C 
BRANCH  22  23
HETATM   23  C18 UNL     1      26.607  -1.256  52.530  1.00  0.00     0.248 C 
HETATM   24  F1  UNL     1      26.831  -0.357  51.478  1.00  0.00    -0.253 F 
ENDBRANCH  22  23
ENDBRANCH  21  22
ENDBRANCH  10  21
BRANCH   1  25
HETATM   25  O1  UNL     1      22.600  -1.157  53.179  1.00  0.00    -0.353 OA
HETATM   26  C1  UNL     1      21.708  -1.617  54.149  1.00  0.00     0.210 C 
ENDBRANCH   1  25
TORSDOF 6
ENDMDL
MODEL 6
REMARK VINA RESULT:      -7.2      3.030      4.729
REMARK  6 active torsions:
REMARK  status: ('A' for Active; 'I' for Inactive)
REMARK    1  A    between atoms: O1_2  and  C2_3 
REMARK    2  A    between atoms: C6_9  and  N3_10 
REMARK    3  A    between atoms: N3_10  and  C7_11 
REMARK    4  A    between atoms: C16_21  and  O2_22 
REMARK    5  A    between atoms: O2_22  and  C17_23 
REMARK    6  A    between atoms: C17_23  and  C18_24 
ROOT
HETATM    1  C2  UNL     1      23.444   1.559  51.274  1.00  0.00     0.102 C 
HETATM    2  C3  UNL     1      22.280   1.515  50.537  1.00  0.00     0.059 C 
HETATM    3  C4  UNL     1      21.347   2.550  50.662  1.00  0.00     0.121 C 
HETATM    4  N1  UNL     1      20.919   2.826  51.916  1.00  0.00    -0.254 NA
HETATM    5  C5  UNL     1      19.938   2.119  52.522  1.00  0.00     0.234 C 
HETATM    6  N2  UNL     1      20.238   0.809  52.385  1.00  0.00    -0.225 NA
HETATM    7  C6  UNL     1      20.304  -0.007  53.417  1.00  0.00     0.129 C 
HETATM    8  C14 UNL     1      21.568   0.348  53.845  1.00  0.00     0.053 C 
HETATM    9  C15 UNL     1      22.787   0.236  53.209  1.00  0.00     0.043 C 
HETATM   10  C16 UNL     1      23.715   0.841  52.419  1.00  0.00     0.102 C 
ENDROOT
BRANCH   7  11
HETATM   11  N3  UNL     1      19.512  -0.971  54.043  1.00  0.00    -0.341 N 
HETATM   12  H7  UNL     1      19.849  -1.310  54.967  1.00  0.00     0.167 HD
BRANCH  11  13
HETATM   13  C7  UNL     1      18.316  -1.487  53.496  1.00  0.00     0.034 A 
HETATM   14  C8  UNL     1      17.463  -0.775  52.705  1.00  0.00     0.031 A 
HETATM   15  C9  UNL     1      16.294  -1.351  52.197  1.00  0.00     0.026 A 
HETATM   16  C10 UNL     1      15.987  -2.683  52.501  1.00  0.00     0.040 A 
HETATM   17 CL1  UNL     1      14.529  -3.438  51.880  1.00  0.00    -0.084 Cl
HETATM   18  C11 UNL     1      16.825  -3.418  53.291  1.00  0.00    -0.038 A 
HETATM   19  C12 UNL     1      16.559  -4.837  53.652  1.00  0.00     0.050 C 
HETATM   20  C13 UNL     1      17.941  -2.795  53.748  1.00  0.00     0.038 A 
ENDBRANCH  11  13
ENDBRANCH   7  11
BRANCH  10  21
HETATM   21  O2  UNL     1      25.048   0.745  52.764  1.00  0.00    -0.346 OA
BRANCH  21  22
HETATM   22  C17 UNL     1      25.646  -0.264  53.513  1.00  0.00     0.207 C 
BRANCH  22  23
HETATM   23  C18 UNL     1      26.306   0.171  54.779  1.00  0.00     0.248 C 
HETATM   24  F1  UNL     1      25.732  -0.538  55.844  1.00  0.00    -0.253 F 
ENDBRANCH  22  23
ENDBRANCH  21  22
ENDBRANCH  10  21
BRANCH   1  25
HETATM   25  O1  UNL     1      24.387   2.431  50.753  1.00  0.00    -0.353 OA
HETATM   26  C1  UNL     1      24.537   3.731  51.240  1.00  0.00     0.210 C 
ENDBRANCH   1  25
TORSDOF 6
ENDMDL
MODEL 7
REMARK VINA RESULT:      -7.1      2.112      3.467
REMARK  6 active torsions:
REMARK  status: ('A' for Active; 'I' for Inactive)
REMARK    1  A    between atoms: O1_2  and  C2_3 
REMARK    2  A    between atoms: C6_9  and  N3_10 
REMARK    3  A    between atoms: N3_10  and  C7_11 
REMARK    4  A    between atoms: C16_21  and  O2_22 
REMARK    5  A    between atoms: O2_22  and  C17_23 
REMARK    6  A    between atoms: C17_23  and  C18_24 
ROOT
HETATM    1  C2  UNL     1      26.192   2.911  50.753  1.00  0.00     0.102 C 
HETATM    2  C3  UNL     1      25.012   2.959  50.042  1.00  0.00     0.059 C 
HETATM    3  C4  UNL     1      24.090   3.977  50.308  1.00  0.00     0.121 C 
HETATM    4  N1  UNL     1      23.693   4.108  51.595  1.00  0.00    -0.254 NA
HETATM    5  C5  UNL     1      22.719   3.340  52.137  1.00  0.00     0.234 C 
HETATM    6  N2  UNL     1      23.006   2.053  51.842  1.00  0.00    -0.225 NA
HETATM    7  C6  UNL     1      23.088   1.123  52.771  1.00  0.00     0.129 C 
HETATM    8  C14 UNL     1      24.364   1.419  53.208  1.00  0.00     0.053 C 
HETATM    9  C15 UNL     1      25.568   1.376  52.536  1.00  0.00     0.043 C 
HETATM   10  C16 UNL     1      26.483   2.063  51.800  1.00  0.00     0.102 C 
ENDROOT
BRANCH   7  11
HETATM   11  N3  UNL     1      22.302   0.097  53.298  1.00  0.00    -0.341 N 
HETATM   12  H7  UNL     1      22.769  -0.528  53.987  1.00  0.00     0.167 HD
BRANCH  11  13
HETATM   13  C7  UNL     1      20.951  -0.121  52.950  1.00  0.00     0.034 A 
HETATM   14  C8  UNL     1      20.067  -0.828  53.709  1.00  0.00     0.031 A 
HETATM   15  C9  UNL     1      18.739  -1.005  53.302  1.00  0.00     0.026 A 
HETATM   16  C10 UNL     1      18.304  -0.448  52.094  1.00  0.00     0.040 A 
HETATM   17 CL1  UNL     1      16.646  -0.648  51.553  1.00  0.00    -0.084 Cl
HETATM   18  C11 UNL     1      19.170   0.267  51.315  1.00  0.00    -0.038 A 
HETATM   19  C12 UNL     1      18.773   0.885  50.021  1.00  0.00     0.050 C 
HETATM   20  C13 UNL     1      20.442   0.398  51.772  1.00  0.00     0.038 A 
ENDBRANCH  11  13
ENDBRANCH   7  11
BRANCH  10  21
HETATM   21  O2  UNL     1      27.822   1.921  52.102  1.00  0.00    -0.346 OA
BRANCH  21  22
HETATM   22  C17 UNL     1      28.404   1.975  53.365  1.00  0.00     0.207 C 
BRANCH  22  23
HETATM   23  C18 UNL     1      29.045   0.713  53.839  1.00  0.00     0.248 C 
HETATM   24  F1  UNL     1      28.627   0.471  55.155  1.00  0.00    -0.253 F 
ENDBRANCH  22  23
ENDBRANCH  21  22
ENDBRANCH  10  21
BRANCH   1  25
HETATM   25  O1  UNL     1      27.131   3.833  50.316  1.00  0.00    -0.353 OA
HETATM   26  C1  UNL     1      27.143   4.304  49.002  1.00  0.00     0.210 C 
ENDBRANCH   1  25
TORSDOF 6
ENDMDL
MODEL 8
REMARK VINA RESULT:      -7.0      4.357      7.127
REMARK  6 active torsions:
REMARK  status: ('A' for Active; 'I' for Inactive)
REMARK    1  A    between atoms: O1_2  and  C2_3 
REMARK    2  A    between atoms: C6_9  and  N3_10 
REMARK    3  A    between atoms: N3_10  and  C7_11 
REMARK    4  A    between atoms: C16_21  and  O2_22 
REMARK    5  A    between atoms: O2_22  and  C17_23 
REMARK    6  A    between atoms: C17_23  and  C18_24 
ROOT
HETATM    1  C2  UNL     1      23.621   0.464  53.236  1.00  0.00     0.102 C 
HETATM    2  C3  UNL     1      22.611   1.357  52.951  1.00  0.00     0.059 C 
HETATM    3  C4  UNL     1      21.932   1.261  51.732  1.00  0.00     0.121 C 
HETATM    4  N1  UNL     1      22.696   1.278  50.615  1.00  0.00    -0.254 NA
HETATM    5  C5  UNL     1      23.147   2.426  50.059  1.00  0.00     0.234 C 
HETATM    6  N2  UNL     1      23.707   3.161  51.046  1.00  0.00    -0.225 NA
HETATM    7  C6  UNL     1      24.936   3.627  50.962  1.00  0.00     0.129 C 
HETATM    8  C14 UNL     1      25.593   2.463  51.309  1.00  0.00     0.053 C 
HETATM    9  C15 UNL     1      25.555   1.735  52.481  1.00  0.00     0.043 C 
HETATM   10  C16 UNL     1      24.976   0.710  53.162  1.00  0.00     0.102 C 
ENDROOT
BRANCH   7  11
HETATM   11  N3  UNL     1      25.583   4.825  50.654  1.00  0.00    -0.341 N 
HETATM   12  H7  UNL     1      26.616   4.830  50.775  1.00  0.00     0.167 HD
BRANCH  11  13
HETATM   13  C7  UNL     1      24.919   5.987  50.204  1.00  0.00     0.034 A 
HETATM   14  C8  UNL     1      24.148   6.787  50.994  1.00  0.00     0.031 A 
HETATM   15  C9  UNL     1      23.518   7.926  50.480  1.00  0.00     0.026 A 
HETATM   16  C10 UNL     1      23.680   8.258  49.129  1.00  0.00     0.040 A 
HETATM   17 CL1  UNL     1      22.906   9.680  48.451  1.00  0.00    -0.084 Cl
HETATM   18  C11 UNL     1      24.448   7.474  48.316  1.00  0.00    -0.038 A 
HETATM   19  C12 UNL     1      24.661   7.769  46.872  1.00  0.00     0.050 C 
HETATM   20  C13 UNL     1      25.028   6.385  48.882  1.00  0.00     0.038 A 
ENDBRANCH  11  13
ENDBRANCH   7  11
BRANCH  10  21
HETATM   21  O2  UNL     1      25.784  -0.174  53.847  1.00  0.00    -0.346 OA
BRANCH  21  22
HETATM   22  C17 UNL     1      26.731   0.139  54.817  1.00  0.00     0.207 C 
BRANCH  22  23
HETATM   23  C18 UNL     1      28.157  -0.023  54.408  1.00  0.00     0.248 C 
HETATM   24  F1  UNL     1      28.945   0.821  55.204  1.00  0.00    -0.253 F 
ENDBRANCH  22  23
ENDBRANCH  21  22
ENDBRANCH  10  21
BRANCH   1  25
HETATM   25  O1  UNL     1      23.156  -0.781  53.629  1.00  0.00    -0.353 OA
HETATM   26  C1  UNL     1      22.341  -0.942  54.751  1.00  0.00     0.210 C 
ENDBRANCH   1  25
TORSDOF 6
ENDMDL
MODEL 9
REMARK VINA RESULT:      -7.0      4.566      7.807
REMARK  6 active torsions:
REMARK  status: ('A' for Active; 'I' for Inactive)
REMARK    1  A    between atoms: O1_2  and  C2_3 
REMARK    2  A    between atoms: C6_9  and  N3_10 
REMARK    3  A    between atoms: N3_10  and  C7_11 
REMARK    4  A    between atoms: C16_21  and  O2_22 
REMARK    5  A    between atoms: O2_22  and  C17_23 
REMARK    6  A    between atoms: C17_23  and  C18_24 
ROOT
HETATM    1  C2  UNL     1      20.833   3.632  50.777  1.00  0.00     0.102 C 
HETATM    2  C3  UNL     1      21.781   4.533  50.339  1.00  0.00     0.059 C 
HETATM    3  C4  UNL     1      22.611   4.191  49.267  1.00  0.00     0.121 C 
HETATM    4  N1  UNL     1      23.302   3.034  49.386  1.00  0.00    -0.254 NA
HETATM    5  C5  UNL     1      24.467   2.950  50.071  1.00  0.00     0.234 C 
HETATM    6  N2  UNL     1      24.271   3.529  51.275  1.00  0.00    -0.225 NA
HETATM    7  C6  UNL     1      24.538   2.906  52.405  1.00  0.00     0.129 C 
HETATM    8  C14 UNL     1      23.389   2.143  52.465  1.00  0.00     0.053 C 
HETATM    9  C15 UNL     1      22.068   2.530  52.562  1.00  0.00     0.043 C 
HETATM   10  C16 UNL     1      20.921   2.830  51.895  1.00  0.00     0.102 C 
ENDROOT
BRANCH   7  11
HETATM   11  N3  UNL     1      25.550   2.869  53.366  1.00  0.00    -0.341 N 
HETATM   12  H7  UNL     1      25.494   3.588  54.116  1.00  0.00     0.167 HD
BRANCH  11  13
HETATM   13  C7  UNL     1      26.607   1.933  53.364  1.00  0.00     0.034 A 
HETATM   14  C8  UNL     1      27.904   2.237  53.657  1.00  0.00     0.031 A 
HETATM   15  C9  UNL     1      28.902   1.257  53.635  1.00  0.00     0.026 A 
HETATM   16  C10 UNL     1      28.571  -0.063  53.309  1.00  0.00     0.040 A 
HETATM   17 CL1  UNL     1      29.798  -1.319  53.273  1.00  0.00    -0.084 Cl
HETATM   18  C11 UNL     1      27.279  -0.395  53.012  1.00  0.00    -0.038 A 
HETATM   19  C12 UNL     1      26.860  -1.779  52.657  1.00  0.00     0.050 C 
HETATM   20  C13 UNL     1      26.364   0.606  53.053  1.00  0.00     0.038 A 
ENDBRANCH  11  13
ENDBRANCH   7  11
BRANCH  10  21
HETATM   21  O2  UNL     1      19.729   2.306  52.351  1.00  0.00    -0.346 OA
BRANCH  21  22
HETATM   22  C17 UNL     1      19.159   1.089  51.988  1.00  0.00     0.207 C 
BRANCH  22  23
HETATM   23  C18 UNL     1      19.716  -0.118  52.666  1.00  0.00     0.248 C 
HETATM   24  F1  UNL     1      20.058   0.231  53.981  1.00  0.00    -0.253 F 
ENDBRANCH  22  23
ENDBRANCH  21  22
ENDBRANCH  10  21
BRANCH   1  25
HETATM   25  O1  UNL     1      19.711   3.582  49.965  1.00  0.00    -0.353 OA
HETATM   26  C1  UNL     1      18.894   4.697  49.769  1.00  0.00     0.210 C 
ENDBRANCH   1  25
TORSDOF 6
ENDMDL
