MODEL 1
REMARK VINA RESULT:      -9.4      0.000      0.000
REMARK  4 active torsions:
REMARK  status: ('A' for Active; 'I' for Inactive)
REMARK    1  A    between atoms: C9_11  and  N3_12 
REMARK       I    between atoms: N3_12  and  C10_13 
REMARK    2  A    between atoms: C10_13  and  C11_15 
REMARK    3  A    between atoms: C12_16  and  C13_17 
REMARK    4  A    between atoms: C13_17  and  N4_18 
ROOT
HETATM    1  C1  UNL     1      21.166  -0.050  54.124  1.00  0.00     0.050 C 
HETATM    2  C2  UNL     1      22.391  -0.050  53.338  1.00  0.00    -0.029 C 
HETATM    3  C3  UNL     1      23.500  -0.647  53.811  1.00  0.00     0.069 C 
HETATM    4  C4  UNL     1      23.245  -1.210  55.099  1.00  0.00     0.101 C 
HETATM    5  N1  UNL     1      23.023  -1.661  56.118  1.00  0.00    -0.191 NA
HETATM    6  C5  UNL     1      24.884  -0.866  53.334  1.00  0.00     0.140 C 
HETATM    7  N2  UNL     1      25.717  -0.206  52.555  1.00  0.00    -0.259 NA
HETATM    8  C6  UNL     1      25.561   1.047  51.847  1.00  0.00     0.067 A 
HETATM    9  C7  UNL     1      26.754   1.674  51.765  1.00  0.00     0.035 A 
HETATM   10  C8  UNL     1      26.831   2.911  51.171  1.00  0.00     0.032 A 
HETATM   11  C9  UNL     1      25.742   3.572  50.642  1.00  0.00     0.035 A 
HETATM   12  C16 UNL     1      24.502   2.963  50.709  1.00  0.00     0.044 A 
HETATM   13  C17 UNL     1      24.486   1.696  51.324  1.00  0.00     0.006 A 
HETATM   14  C18 UNL     1      23.057   1.316  51.200  1.00  0.00    -0.010 A 
HETATM   15  C19 UNL     1      22.693   1.864  49.955  1.00  0.00     0.057 A 
HETATM   16  C20 UNL     1      21.339   1.671  49.632  1.00  0.00     0.139 A 
HETATM   17  F1  UNL     1      20.885   2.153  48.474  1.00  0.00    -0.204 F 
HETATM   18  C21 UNL     1      20.483   0.989  50.507  1.00  0.00     0.073 A 
HETATM   19 CL1  UNL     1      18.796   0.767  50.074  1.00  0.00    -0.081 Cl
HETATM   20  C22 UNL     1      20.900   0.479  51.698  1.00  0.00     0.040 A 
HETATM   21  C23 UNL     1      22.199   0.646  52.045  1.00  0.00    -0.016 A 
ENDROOT
BRANCH  11  22
HETATM   22  N3  UNL     1      25.982   4.822  50.072  1.00  0.00    -0.324 N 
HETATM   23  C10 UNL     1      26.908   5.231  49.086  1.00  0.00     0.245 C 
HETATM   24  O1  UNL     1      27.665   4.363  48.611  1.00  0.00    -0.268 OA
HETATM   25  H7  UNL     1      25.414   5.663  50.378  1.00  0.00     0.169 HD
BRANCH  23  26
HETATM   26  C11 UNL     1      27.039   6.592  48.589  1.00  0.00     0.072 C 
HETATM   27  C12 UNL     1      28.139   7.044  48.005  1.00  0.00     0.008 C 
BRANCH  27  28
HETATM   28  C13 UNL     1      28.336   8.421  47.479  1.00  0.00     0.299 C 
BRANCH  28  29
HETATM   29  N4  UNL     1      29.060   9.270  48.375  1.00  0.00     0.083 N 
HETATM   30  C14 UNL     1      28.251  10.029  49.283  1.00  0.00     0.309 C 
HETATM   31  C15 UNL     1      30.198   8.650  48.979  1.00  0.00     0.309 C 
ENDBRANCH  28  29
ENDBRANCH  27  28
ENDBRANCH  23  26
ENDBRANCH  11  22
TORSDOF 4
ENDMDL
MODEL 2
REMARK VINA RESULT:      -9.0      4.801      8.928
REMARK  4 active torsions:
REMARK  status: ('A' for Active; 'I' for Inactive)
REMARK    1  A    between atoms: C9_11  and  N3_12 
REMARK       I    between atoms: N3_12  and  C10_13 
REMARK    2  A    between atoms: C10_13  and  C11_15 
REMARK    3  A    between atoms: C12_16  and  C13_17 
REMARK    4  A    between atoms: C13_17  and  N4_18 
ROOT
HETATM    1  C1  UNL     1      26.661   0.715  51.481  1.00  0.00     0.050 C 
HETATM    2  C2  UNL     1      25.698   0.515  52.554  1.00  0.00    -0.029 C 
HETATM    3  C3  UNL     1      25.936  -0.390  53.520  1.00  0.00     0.069 C 
HETATM    4  C4  UNL     1      27.189  -1.037  53.291  1.00  0.00     0.101 C 
HETATM    5  N1  UNL     1      28.192  -1.534  53.100  1.00  0.00    -0.191 NA
HETATM    6  C5  UNL     1      25.241  -0.863  54.739  1.00  0.00     0.140 C 
HETATM    7  N2  UNL     1      23.982  -0.980  55.107  1.00  0.00    -0.259 NA
HETATM    8  C6  UNL     1      22.755  -0.667  54.404  1.00  0.00     0.067 A 
HETATM    9  C7  UNL     1      21.780  -1.515  54.793  1.00  0.00     0.035 A 
HETATM   10  C8  UNL     1      20.536  -1.429  54.214  1.00  0.00     0.032 A 
HETATM   11  C9  UNL     1      20.212  -0.511  53.237  1.00  0.00     0.035 A 
HETATM   12  C16 UNL     1      21.185   0.374  52.810  1.00  0.00     0.044 A 
HETATM   13  C17 UNL     1      22.437   0.240  53.442  1.00  0.00     0.006 A 
HETATM   14  C18 UNL     1      23.216   1.330  52.804  1.00  0.00    -0.010 A 
HETATM   15  C19 UNL     1      22.253   2.341  52.623  1.00  0.00     0.057 A 
HETATM   16  C20 UNL     1      22.755   3.484  51.975  1.00  0.00     0.139 A 
HETATM   17  F1  UNL     1      21.926   4.504  51.751  1.00  0.00    -0.204 F 
HETATM   18  C21 UNL     1      24.095   3.550  51.574  1.00  0.00     0.073 A 
HETATM   19 CL1  UNL     1      24.689   4.991  50.766  1.00  0.00    -0.081 Cl
HETATM   20  C22 UNL     1      24.978   2.535  51.782  1.00  0.00     0.040 A 
HETATM   21  C23 UNL     1      24.532   1.417  52.403  1.00  0.00    -0.016 A 
ENDROOT
BRANCH  11  22
HETATM   22  N3  UNL     1      18.906  -0.550  52.749  1.00  0.00    -0.324 N 
HETATM   23  C10 UNL     1      18.368  -0.158  51.502  1.00  0.00     0.245 C 
HETATM   24  O1  UNL     1      19.154   0.309  50.657  1.00  0.00    -0.268 OA
HETATM   25  H7  UNL     1      18.122  -0.924  53.357  1.00  0.00     0.169 HD
BRANCH  23  26
HETATM   26  C11 UNL     1      16.962  -0.262  51.138  1.00  0.00     0.072 C 
HETATM   27  C12 UNL     1      15.979  -0.056  52.000  1.00  0.00     0.008 C 
BRANCH  27  28
HETATM   28  C13 UNL     1      14.526  -0.148  51.693  1.00  0.00     0.299 C 
BRANCH  28  29
HETATM   29  N4  UNL     1      13.728   0.761  52.459  1.00  0.00     0.083 N 
HETATM   30  C14 UNL     1      13.205   0.230  53.683  1.00  0.00     0.309 C 
HETATM   31  C15 UNL     1      14.285   2.073  52.578  1.00  0.00     0.309 C 
ENDBRANCH  28  29
ENDBRANCH  27  28
ENDBRANCH  23  26
ENDBRANCH  11  22
TORSDOF 4
ENDMDL
MODEL 3
REMARK VINA RESULT:      -9.0      3.940      4.883
REMARK  4 active torsions:
REMARK  status: ('A' for Active; 'I' for Inactive)
REMARK    1  A    between atoms: C9_11  and  N3_12 
REMARK       I    between atoms: N3_12  and  C10_13 
REMARK    2  A    between atoms: C10_13  and  C11_15 
REMARK    3  A    between atoms: C12_16  and  C13_17 
REMARK    4  A    between atoms: C13_17  and  N4_18 
ROOT
HETATM    1  C1  UNL     1      25.440  -0.479  55.241  1.00  0.00     0.050 C 
HETATM    2  C2  UNL     1      25.482   0.081  53.898  1.00  0.00    -0.029 C 
HETATM    3  C3  UNL     1      26.662   0.330  53.303  1.00  0.00     0.069 C 
HETATM    4  C4  UNL     1      27.737  -0.030  54.172  1.00  0.00     0.101 C 
HETATM    5  N1  UNL     1      28.581  -0.331  54.870  1.00  0.00    -0.191 NA
HETATM    6  C5  UNL     1      27.111   0.864  51.997  1.00  0.00     0.140 C 
HETATM    7  N2  UNL     1      26.627   1.726  51.126  1.00  0.00    -0.259 NA
HETATM    8  C6  UNL     1      25.408   2.507  51.143  1.00  0.00     0.067 A 
HETATM    9  C7  UNL     1      25.609   3.677  50.501  1.00  0.00     0.035 A 
HETATM   10  C8  UNL     1      24.592   4.599  50.438  1.00  0.00     0.032 A 
HETATM   11  C9  UNL     1      23.348   4.403  51.002  1.00  0.00     0.035 A 
HETATM   12  C16 UNL     1      23.104   3.217  51.670  1.00  0.00     0.044 A 
HETATM   13  C17 UNL     1      24.182   2.311  51.698  1.00  0.00     0.006 A 
HETATM   14  C18 UNL     1      23.594   1.163  52.433  1.00  0.00    -0.010 A 
HETATM   15  C19 UNL     1      22.255   1.163  51.995  1.00  0.00     0.057 A 
HETATM   16  C20 UNL     1      21.466   0.171  52.604  1.00  0.00     0.139 A 
HETATM   17  F1  UNL     1      20.179   0.083  52.264  1.00  0.00    -0.204 F 
HETATM   18  C21 UNL     1      22.018  -0.704  53.548  1.00  0.00     0.073 A 
HETATM   19 CL1  UNL     1      21.005  -1.931  54.291  1.00  0.00    -0.081 Cl
HETATM   20  C22 UNL     1      23.324  -0.653  53.926  1.00  0.00     0.040 A 
HETATM   21  C23 UNL     1      24.116   0.289  53.362  1.00  0.00    -0.016 A 
ENDROOT
BRANCH  11  22
HETATM   22  N3  UNL     1      22.421   5.434  50.851  1.00  0.00    -0.324 N 
HETATM   23  C10 UNL     1      21.386   5.623  49.907  1.00  0.00     0.245 C 
HETATM   24  O1  UNL     1      21.234   4.746  49.037  1.00  0.00    -0.268 OA
HETATM   25  H7  UNL     1      22.427   6.256  51.521  1.00  0.00     0.169 HD
BRANCH  23  26
HETATM   26  C11 UNL     1      20.490   6.769  49.881  1.00  0.00     0.072 C 
HETATM   27  C12 UNL     1      20.919   8.016  49.771  1.00  0.00     0.008 C 
BRANCH  27  28
HETATM   28  C13 UNL     1      20.056   9.228  49.740  1.00  0.00     0.299 C 
BRANCH  28  29
HETATM   29  N4  UNL     1      20.528  10.234  48.837  1.00  0.00     0.083 N 
HETATM   30  C14 UNL     1      20.202  11.581  49.201  1.00  0.00     0.309 C 
HETATM   31  C15 UNL     1      21.881  10.051  48.411  1.00  0.00     0.309 C 
ENDBRANCH  28  29
ENDBRANCH  27  28
ENDBRANCH  23  26
ENDBRANCH  11  22
TORSDOF 4
ENDMDL
MODEL 4
REMARK VINA RESULT:      -8.7      1.901      2.173
REMARK  4 active torsions:
REMARK  status: ('A' for Active; 'I' for Inactive)
REMARK    1  A    between atoms: C9_11  and  N3_12 
REMARK       I    between atoms: N3_12  and  C10_13 
REMARK    2  A    between atoms: C10_13  and  C11_15 
REMARK    3  A    between atoms: C12_16  and  C13_17 
REMARK    4  A    between atoms: C13_17  and  N4_18 
ROOT
HETATM    1  C1  UNL     1      22.295  -0.241  54.610  1.00  0.00     0.050 C 
HETATM    2  C2  UNL     1      23.241  -0.026  53.524  1.00  0.00    -0.029 C 
HETATM    3  C3  UNL     1      24.538  -0.345  53.681  1.00  0.00     0.069 C 
HETATM    4  C4  UNL     1      24.760  -0.876  54.990  1.00  0.00     0.101 C 
HETATM    5  N1  UNL     1      24.917  -1.305  56.030  1.00  0.00    -0.191 NA
HETATM    6  C5  UNL     1      25.762  -0.292  52.850  1.00  0.00     0.140 C 
HETATM    7  N2  UNL     1      26.195   0.483  51.878  1.00  0.00    -0.259 NA
HETATM    8  C6  UNL     1      25.588   1.633  51.241  1.00  0.00     0.067 A 
HETATM    9  C7  UNL     1      26.550   2.492  50.843  1.00  0.00     0.035 A 
HETATM   10  C8  UNL     1      26.194   3.682  50.253  1.00  0.00     0.032 A 
HETATM   11  C9  UNL     1      24.887   4.065  50.036  1.00  0.00     0.035 A 
HETATM   12  C16 UNL     1      23.873   3.212  50.432  1.00  0.00     0.044 A 
HETATM   13  C17 UNL     1      24.298   2.008  51.026  1.00  0.00     0.006 A 
HETATM   14  C18 UNL     1      23.006   1.327  51.289  1.00  0.00    -0.010 A 
HETATM   15  C19 UNL     1      22.218   1.713  50.188  1.00  0.00     0.057 A 
HETATM   16  C20 UNL     1      20.902   1.219  50.240  1.00  0.00     0.139 A 
HETATM   17  F1  UNL     1      20.067   1.526  49.247  1.00  0.00    -0.204 F 
HETATM   18  C21 UNL     1      20.478   0.422  51.311  1.00  0.00     0.073 A 
HETATM   19 CL1  UNL     1      18.828  -0.178  51.345  1.00  0.00    -0.081 Cl
HETATM   20  C22 UNL     1      21.294   0.081  52.345  1.00  0.00     0.040 A 
HETATM   21  C23 UNL     1      22.568   0.539  52.331  1.00  0.00    -0.016 A 
ENDROOT
BRANCH  11  22
HETATM   22  N3  UNL     1      24.689   5.303  49.425  1.00  0.00    -0.324 N 
HETATM   23  C10 UNL     1      24.488   6.589  49.975  1.00  0.00     0.245 C 
HETATM   24  O1  UNL     1      24.477   6.690  51.216  1.00  0.00    -0.268 OA
HETATM   25  H7  UNL     1      24.673   5.377  48.368  1.00  0.00     0.169 HD
BRANCH  23  26
HETATM   26  C11 UNL     1      24.293   7.802  49.193  1.00  0.00     0.072 C 
HETATM   27  C12 UNL     1      25.144   8.816  49.213  1.00  0.00     0.008 C 
BRANCH  27  28
HETATM   28  C13 UNL     1      25.002  10.080  48.441  1.00  0.00     0.299 C 
BRANCH  28  29
HETATM   29  N4  UNL     1      26.252  10.727  48.182  1.00  0.00     0.083 N 
HETATM   30  C14 UNL     1      27.066  10.103  47.182  1.00  0.00     0.309 C 
HETATM   31  C15 UNL     1      26.162  12.150  48.065  1.00  0.00     0.309 C 
ENDBRANCH  28  29
ENDBRANCH  27  28
ENDBRANCH  23  26
ENDBRANCH  11  22
TORSDOF 4
ENDMDL
MODEL 5
REMARK VINA RESULT:      -8.6      3.366      4.460
REMARK  4 active torsions:
REMARK  status: ('A' for Active; 'I' for Inactive)
REMARK    1  A    between atoms: C9_11  and  N3_12 
REMARK       I    between atoms: N3_12  and  C10_13 
REMARK    2  A    between atoms: C10_13  and  C11_15 
REMARK    3  A    between atoms: C12_16  and  C13_17 
REMARK    4  A    between atoms: C13_17  and  N4_18 
ROOT
HETATM    1  C1  UNL     1      21.597  -0.286  52.279  1.00  0.00     0.050 C 
HETATM    2  C2  UNL     1      21.841   1.148  52.228  1.00  0.00    -0.029 C 
HETATM    3  C3  UNL     1      20.827   2.001  51.998  1.00  0.00     0.069 C 
HETATM    4  C4  UNL     1      19.605   1.280  51.833  1.00  0.00     0.101 C 
HETATM    5  N1  UNL     1      18.640   0.692  51.715  1.00  0.00    -0.191 NA
HETATM    6  C5  UNL     1      20.667   3.468  51.886  1.00  0.00     0.140 C 
HETATM    7  N2  UNL     1      21.434   4.462  51.485  1.00  0.00    -0.259 NA
HETATM    8  C6  UNL     1      22.791   4.466  50.978  1.00  0.00     0.067 A 
HETATM    9  C7  UNL     1      22.940   5.474  50.092  1.00  0.00     0.035 A 
HETATM   10  C8  UNL     1      24.143   5.636  49.447  1.00  0.00     0.032 A 
HETATM   11  C9  UNL     1      25.234   4.817  49.650  1.00  0.00     0.035 A 
HETATM   12  C16 UNL     1      25.119   3.772  50.550  1.00  0.00     0.044 A 
HETATM   13  C17 UNL     1      23.866   3.659  51.182  1.00  0.00     0.006 A 
HETATM   14  C18 UNL     1      24.084   2.501  52.083  1.00  0.00    -0.010 A 
HETATM   15  C19 UNL     1      25.428   2.657  52.476  1.00  0.00     0.057 A 
HETATM   16  C20 UNL     1      25.891   1.628  53.314  1.00  0.00     0.139 A 
HETATM   17  F1  UNL     1      27.153   1.675  53.743  1.00  0.00    -0.204 F 
HETATM   18  C21 UNL     1      25.047   0.575  53.689  1.00  0.00     0.073 A 
HETATM   19 CL1  UNL     1      25.657  -0.696  54.737  1.00  0.00    -0.081 Cl
HETATM   20  C22 UNL     1      23.753   0.485  53.278  1.00  0.00     0.040 A 
HETATM   21  C23 UNL     1      23.270   1.457  52.468  1.00  0.00    -0.016 A 
ENDROOT
BRANCH  11  22
HETATM   22  N3  UNL     1      26.386   5.112  48.921  1.00  0.00    -0.324 N 
HETATM   23  C10 UNL     1      27.143   6.301  48.821  1.00  0.00     0.245 C 
HETATM   24  O1  UNL     1      26.759   7.286  49.478  1.00  0.00    -0.268 OA
HETATM   25  H7  UNL     1      26.832   4.369  48.310  1.00  0.00     0.169 HD
BRANCH  23  26
HETATM   26  C11 UNL     1      28.338   6.453  48.004  1.00  0.00     0.072 C 
HETATM   27  C12 UNL     1      29.457   5.783  48.233  1.00  0.00     0.008 C 
BRANCH  27  28
HETATM   28  C13 UNL     1      30.710   5.894  47.438  1.00  0.00     0.299 C 
BRANCH  28  29
HETATM   29  N4  UNL     1      31.886   5.581  48.192  1.00  0.00     0.083 N 
HETATM   30  C14 UNL     1      31.839   5.948  49.576  1.00  0.00     0.309 C 
HETATM   31  C15 UNL     1      32.406   4.270  47.948  1.00  0.00     0.309 C 
ENDBRANCH  28  29
ENDBRANCH  27  28
ENDBRANCH  23  26
ENDBRANCH  11  22
TORSDOF 4
ENDMDL
MODEL 6
REMARK VINA RESULT:      -8.6      3.435      3.870
REMARK  4 active torsions:
REMARK  status: ('A' for Active; 'I' for Inactive)
REMARK    1  A    between atoms: C9_11  and  N3_12 
REMARK       I    between atoms: N3_12  and  C10_13 
REMARK    2  A    between atoms: C10_13  and  C11_15 
REMARK    3  A    between atoms: C12_16  and  C13_17 
REMARK    4  A    between atoms: C13_17  and  N4_18 
ROOT
HETATM    1  C1  UNL     1      22.303  -0.415  54.794  1.00  0.00     0.050 C 
HETATM    2  C2  UNL     1      23.187  -0.117  53.676  1.00  0.00    -0.029 C 
HETATM    3  C3  UNL     1      24.507  -0.352  53.773  1.00  0.00     0.069 C 
HETATM    4  C4  UNL     1      24.818  -0.892  55.060  1.00  0.00     0.101 C 
HETATM    5  N1  UNL     1      25.046  -1.330  56.083  1.00  0.00    -0.191 NA
HETATM    6  C5  UNL     1      25.689  -0.203  52.895  1.00  0.00     0.140 C 
HETATM    7  N2  UNL     1      26.030   0.618  51.923  1.00  0.00    -0.259 NA
HETATM    8  C6  UNL     1      25.323   1.737  51.336  1.00  0.00     0.067 A 
HETATM    9  C7  UNL     1      26.210   2.666  50.918  1.00  0.00     0.035 A 
HETATM   10  C8  UNL     1      25.753   3.840  50.370  1.00  0.00     0.032 A 
HETATM   11  C9  UNL     1      24.416   4.140  50.215  1.00  0.00     0.035 A 
HETATM   12  C16 UNL     1      23.477   3.215  50.632  1.00  0.00     0.044 A 
HETATM   13  C17 UNL     1      24.004   2.030  51.182  1.00  0.00     0.006 A 
HETATM   14  C18 UNL     1      22.771   1.260  51.482  1.00  0.00    -0.010 A 
HETATM   15  C19 UNL     1      21.914   1.615  50.422  1.00  0.00     0.057 A 
HETATM   16  C20 UNL     1      20.637   1.034  50.517  1.00  0.00     0.139 A 
HETATM   17  F1  UNL     1      19.742   1.305  49.565  1.00  0.00    -0.204 F 
HETATM   18  C21 UNL     1      20.310   0.191  51.586  1.00  0.00     0.073 A 
HETATM   19 CL1  UNL     1      18.706  -0.518  51.674  1.00  0.00    -0.081 Cl
HETATM   20  C22 UNL     1      21.189  -0.116  52.579  1.00  0.00     0.040 A 
HETATM   21  C23 UNL     1      22.429   0.425  52.524  1.00  0.00    -0.016 A 
ENDROOT
BRANCH  11  22
HETATM   22  N3  UNL     1      24.112   5.374  49.639  1.00  0.00    -0.324 N 
HETATM   23  C10 UNL     1      23.407   6.489  50.149  1.00  0.00     0.245 C 
HETATM   24  O1  UNL     1      22.958   6.406  51.307  1.00  0.00    -0.268 OA
HETATM   25  H7  UNL     1      24.430   5.592  48.652  1.00  0.00     0.169 HD
BRANCH  23  26
HETATM   26  C11 UNL     1      23.170   7.722  49.414  1.00  0.00     0.072 C 
HETATM   27  C12 UNL     1      22.067   8.442  49.551  1.00  0.00     0.008 C 
BRANCH  27  28
HETATM   28  C13 UNL     1      21.764   9.708  48.831  1.00  0.00     0.299 C 
BRANCH  28  29
HETATM   29  N4  UNL     1      20.604  10.379  49.332  1.00  0.00     0.083 N 
HETATM   30  C14 UNL     1      20.245  11.579  48.635  1.00  0.00     0.309 C 
HETATM   31  C15 UNL     1      19.502   9.512  49.617  1.00  0.00     0.309 C 
ENDBRANCH  28  29
ENDBRANCH  27  28
ENDBRANCH  23  26
ENDBRANCH  11  22
TORSDOF 4
ENDMDL
MODEL 7
REMARK VINA RESULT:      -8.5      4.904      6.848
REMARK  4 active torsions:
REMARK  status: ('A' for Active; 'I' for Inactive)
REMARK    1  A    between atoms: C9_11  and  N3_12 
REMARK       I    between atoms: N3_12  and  C10_13 
REMARK    2  A    between atoms: C10_13  and  C11_15 
REMARK    3  A    between atoms: C12_16  and  C13_17 
REMARK    4  A    between atoms: C13_17  and  N4_18 
ROOT
HETATM    1  C1  UNL     1      17.554   3.961  50.112  1.00  0.00     0.050 C 
HETATM    2  C2  UNL     1      17.962   2.623  50.515  1.00  0.00    -0.029 C 
HETATM    3  C3  UNL     1      17.195   1.904  51.356  1.00  0.00     0.069 C 
HETATM    4  C4  UNL     1      16.035   2.652  51.724  1.00  0.00     0.101 C 
HETATM    5  N1  UNL     1      15.112   3.255  51.999  1.00  0.00    -0.191 NA
HETATM    6  C5  UNL     1      17.252   0.559  51.971  1.00  0.00     0.140 C 
HETATM    7  N2  UNL     1      18.218  -0.252  52.351  1.00  0.00    -0.259 NA
HETATM    8  C6  UNL     1      19.657  -0.102  52.297  1.00  0.00     0.067 A 
HETATM    9  C7  UNL     1      20.220  -0.759  53.334  1.00  0.00     0.035 A 
HETATM   10  C8  UNL     1      21.583  -0.711  53.507  1.00  0.00     0.032 A 
HETATM   11  C9  UNL     1      22.434  -0.016  52.672  1.00  0.00     0.035 A 
HETATM   12  C16 UNL     1      21.894   0.672  51.600  1.00  0.00     0.044 A 
HETATM   13  C17 UNL     1      20.494   0.581  51.472  1.00  0.00     0.006 A 
HETATM   14  C18 UNL     1      20.251   1.372  50.240  1.00  0.00    -0.010 A 
HETATM   15  C19 UNL     1      21.381   1.081  49.452  1.00  0.00     0.057 A 
HETATM   16  C20 UNL     1      21.402   1.769  48.226  1.00  0.00     0.139 A 
HETATM   17  F1  UNL     1      22.431   1.569  47.401  1.00  0.00    -0.204 F 
HETATM   18  C21 UNL     1      20.367   2.646  47.879  1.00  0.00     0.073 A 
HETATM   19 CL1  UNL     1      20.424   3.491  46.340  1.00  0.00    -0.081 Cl
HETATM   20  C22 UNL     1      19.297   2.881  48.686  1.00  0.00     0.040 A 
HETATM   21  C23 UNL     1      19.242   2.237  49.877  1.00  0.00    -0.016 A 
ENDROOT
BRANCH  11  22
HETATM   22  N3  UNL     1      23.793  -0.064  52.981  1.00  0.00    -0.324 N 
HETATM   23  C10 UNL     1      24.738   0.969  53.177  1.00  0.00     0.245 C 
HETATM   24  O1  UNL     1      24.340   2.143  53.066  1.00  0.00    -0.268 OA
HETATM   25  H7  UNL     1      24.276  -0.999  53.106  1.00  0.00     0.169 HD
BRANCH  23  26
HETATM   26  C11 UNL     1      26.141   0.754  53.498  1.00  0.00     0.072 C 
HETATM   27  C12 UNL     1      26.550   0.294  54.670  1.00  0.00     0.008 C 
BRANCH  27  28
HETATM   28  C13 UNL     1      27.966   0.055  55.060  1.00  0.00     0.299 C 
BRANCH  28  29
HETATM   29  N4  UNL     1      28.907   0.599  54.129  1.00  0.00     0.083 N 
HETATM   30  C14 UNL     1      29.470   1.864  54.499  1.00  0.00     0.309 C 
HETATM   31  C15 UNL     1      29.861  -0.348  53.640  1.00  0.00     0.309 C 
ENDBRANCH  28  29
ENDBRANCH  27  28
ENDBRANCH  23  26
ENDBRANCH  11  22
TORSDOF 4
ENDMDL
MODEL 8
REMARK VINA RESULT:      -8.5      5.518     10.188
REMARK  4 active torsions:
REMARK  status: ('A' for Active; 'I' for Inactive)
REMARK    1  A    between atoms: C9_11  and  N3_12 
REMARK       I    between atoms: N3_12  and  C10_13 
REMARK    2  A    between atoms: C10_13  and  C11_15 
REMARK    3  A    between atoms: C12_16  and  C13_17 
REMARK    4  A    between atoms: C13_17  and  N4_18 
ROOT
HETATM    1  C1  UNL     1      24.528   2.744  52.859  1.00  0.00     0.050 C 
HETATM    2  C2  UNL     1      23.649   2.085  51.904  1.00  0.00    -0.029 C 
HETATM    3  C3  UNL     1      23.570   2.528  50.637  1.00  0.00     0.069 C 
HETATM    4  C4  UNL     1      24.432   3.653  50.454  1.00  0.00     0.101 C 
HETATM    5  N1  UNL     1      25.129   4.540  50.323  1.00  0.00    -0.191 NA
HETATM    6  C5  UNL     1      22.835   2.142  49.411  1.00  0.00     0.140 C 
HETATM    7  N2  UNL     1      21.668   1.583  49.161  1.00  0.00    -0.259 NA
HETATM    8  C6  UNL     1      20.626   1.124  50.056  1.00  0.00     0.067 A 
HETATM    9  C7  UNL     1      19.422   1.272  49.463  1.00  0.00     0.035 A 
HETATM   10  C8  UNL     1      18.282   0.941  50.155  1.00  0.00     0.032 A 
HETATM   11  C9  UNL     1      18.286   0.458  51.447  1.00  0.00     0.035 A 
HETATM   12  C16 UNL     1      19.501   0.294  52.088  1.00  0.00     0.044 A 
HETATM   13  C17 UNL     1      20.633   0.645  51.328  1.00  0.00     0.006 A 
HETATM   14  C18 UNL     1      21.738   0.324  52.265  1.00  0.00    -0.010 A 
HETATM   15  C19 UNL     1      21.259  -0.818  52.936  1.00  0.00     0.057 A 
HETATM   16  C20 UNL     1      22.131  -1.291  53.932  1.00  0.00     0.139 A 
HETATM   17  F1  UNL     1      21.774  -2.367  54.633  1.00  0.00    -0.204 F 
HETATM   18  C21 UNL     1      23.349  -0.645  54.183  1.00  0.00     0.073 A 
HETATM   19 CL1  UNL     1      24.416  -1.261  55.435  1.00  0.00    -0.081 Cl
HETATM   20  C22 UNL     1      23.757   0.455  53.493  1.00  0.00     0.040 A 
HETATM   21  C23 UNL     1      22.942   0.941  52.527  1.00  0.00    -0.016 A 
ENDROOT
BRANCH  11  22
HETATM   22  N3  UNL     1      17.045   0.167  52.013  1.00  0.00    -0.324 N 
HETATM   23  C10 UNL     1      15.932   0.994  52.286  1.00  0.00     0.245 C 
HETATM   24  O1  UNL     1      16.023   2.200  51.991  1.00  0.00    -0.268 OA
HETATM   25  H7  UNL     1      16.819  -0.823  52.317  1.00  0.00     0.169 HD
BRANCH  23  26
HETATM   26  C11 UNL     1      14.689   0.535  52.889  1.00  0.00     0.072 C 
HETATM   27  C12 UNL     1      13.661   1.336  53.120  1.00  0.00     0.008 C 
BRANCH  27  28
HETATM   28  C13 UNL     1      12.368   0.930  53.733  1.00  0.00     0.299 C 
BRANCH  28  29
HETATM   29  N4  UNL     1      11.729   1.988  54.457  1.00  0.00     0.083 N 
HETATM   30  C14 UNL     1      11.555   1.747  55.859  1.00  0.00     0.309 C 
HETATM   31  C15 UNL     1      12.219   3.294  54.140  1.00  0.00     0.309 C 
ENDBRANCH  28  29
ENDBRANCH  27  28
ENDBRANCH  23  26
ENDBRANCH  11  22
TORSDOF 4
ENDMDL
MODEL 9
REMARK VINA RESULT:      -8.4      5.004      9.296
REMARK  4 active torsions:
REMARK  status: ('A' for Active; 'I' for Inactive)
REMARK    1  A    between atoms: C9_11  and  N3_12 
REMARK       I    between atoms: N3_12  and  C10_13 
REMARK    2  A    between atoms: C10_13  and  C11_15 
REMARK    3  A    between atoms: C12_16  and  C13_17 
REMARK    4  A    between atoms: C13_17  and  N4_18 
ROOT
HETATM    1  C1  UNL     1      25.625   1.099  51.976  1.00  0.00     0.050 C 
HETATM    2  C2  UNL     1      24.507   0.765  52.846  1.00  0.00    -0.029 C 
HETATM    3  C3  UNL     1      24.621  -0.230  53.744  1.00  0.00     0.069 C 
HETATM    4  C4  UNL     1      25.921  -0.818  53.665  1.00  0.00     0.101 C 
HETATM    5  N1  UNL     1      26.961  -1.268  53.597  1.00  0.00    -0.191 NA
HETATM    6  C5  UNL     1      23.755  -0.846  54.775  1.00  0.00     0.140 C 
HETATM    7  N2  UNL     1      22.458  -1.031  54.914  1.00  0.00    -0.259 NA
HETATM    8  C6  UNL     1      21.353  -0.677  54.049  1.00  0.00     0.067 A 
HETATM    9  C7  UNL     1      20.363  -1.585  54.183  1.00  0.00     0.035 A 
HETATM   10  C8  UNL     1      19.229  -1.469  53.414  1.00  0.00     0.032 A 
HETATM   11  C9  UNL     1      19.031  -0.463  52.492  1.00  0.00     0.035 A 
HETATM   12  C16 UNL     1      20.024   0.486  52.325  1.00  0.00     0.044 A 
HETATM   13  C17 UNL     1      21.159   0.318  53.142  1.00  0.00     0.006 A 
HETATM   14  C18 UNL     1      21.987   1.487  52.755  1.00  0.00    -0.010 A 
HETATM   15  C19 UNL     1      21.025   2.488  52.517  1.00  0.00     0.057 A 
HETATM   16  C20 UNL     1      21.578   3.704  52.079  1.00  0.00     0.139 A 
HETATM   17  F1  UNL     1      20.755   4.722  51.820  1.00  0.00    -0.204 F 
HETATM   18  C21 UNL     1      22.962   3.845  51.917  1.00  0.00     0.073 A 
HETATM   19 CL1  UNL     1      23.621   5.377  51.367  1.00  0.00    -0.081 Cl
HETATM   20  C22 UNL     1      23.841   2.836  52.169  1.00  0.00     0.040 A 
HETATM   21  C23 UNL     1      23.346   1.649  52.591  1.00  0.00    -0.016 A 
ENDROOT
BRANCH  11  22
HETATM   22  N3  UNL     1      17.826  -0.482  51.790  1.00  0.00    -0.324 N 
HETATM   23  C10 UNL     1      17.485   0.027  50.517  1.00  0.00     0.245 C 
HETATM   24  O1  UNL     1      18.378   0.603  49.867  1.00  0.00    -0.268 OA
HETATM   25  H7  UNL     1      16.971  -0.939  52.217  1.00  0.00     0.169 HD
BRANCH  23  26
HETATM   26  C11 UNL     1      16.164  -0.073  49.914  1.00  0.00     0.072 C 
HETATM   27  C12 UNL     1      15.861  -0.971  48.988  1.00  0.00     0.008 C 
BRANCH  27  28
HETATM   28  C13 UNL     1      14.534  -1.124  48.334  1.00  0.00     0.299 C 
BRANCH  28  29
HETATM   29  N4  UNL     1      14.229  -2.479  47.986  1.00  0.00     0.083 N 
HETATM   30  C14 UNL     1      12.833  -2.783  47.884  1.00  0.00     0.309 C 
HETATM   31  C15 UNL     1      15.025  -3.003  46.919  1.00  0.00     0.309 C 
ENDBRANCH  28  29
ENDBRANCH  27  28
ENDBRANCH  23  26
ENDBRANCH  11  22
TORSDOF 4
ENDMDL
