MODEL 1
REMARK VINA RESULT:      -7.9      0.000      0.000
REMARK  4 active torsions:
REMARK  status: ('A' for Active; 'I' for Inactive)
REMARK    1  A    between atoms: C3_3  and  C6_6 
REMARK    2  A    between atoms: C6_6  and  N1_7 
REMARK    3  A    between atoms: N1_7  and  C7_8 
REMARK    4  A    between atoms: C15_19  and  N5_20 
ROOT
HETATM    1  C1  UNL     1      20.716  -1.630  54.208  1.00  0.00     0.013 C 
HETATM    2  C2  UNL     1      21.096  -0.708  53.559  1.00  0.00    -0.106 C 
HETATM    3  C3  UNL     1      21.551   0.430  52.778  1.00  0.00     0.031 C 
HETATM    4  C4  UNL     1      21.403   0.218  51.286  1.00  0.00     0.030 C 
HETATM    5  C5  UNL     1      20.699   1.631  53.162  1.00  0.00     0.030 C 
ENDROOT
BRANCH   3   6
HETATM    6  C6  UNL     1      22.978   0.792  53.112  1.00  0.00     0.142 C 
BRANCH   6   7
HETATM    7  N1  UNL     1      23.920  -0.143  52.555  1.00  0.00    -0.376 N 
HETATM    8  H10 UNL     1      23.659  -0.785  51.763  1.00  0.00     0.160 HD
BRANCH   7   9
HETATM    9  C7  UNL     1      25.265  -0.233  53.068  1.00  0.00     0.109 C 
HETATM   10  N2  UNL     1      25.813  -1.355  52.652  1.00  0.00    -0.228 NA
HETATM   11  C8  UNL     1      27.188  -1.817  52.649  1.00  0.00     0.235 C 
HETATM   12  N3  UNL     1      28.291  -1.500  53.302  1.00  0.00    -0.245 NA
HETATM   13  C9  UNL     1      28.752  -0.275  53.932  1.00  0.00     0.051 A 
HETATM   14  C10 UNL     1      27.815   0.343  54.682  1.00  0.00    -0.010 A 
HETATM   15  C11 UNL     1      29.100   0.990  54.630  1.00  0.00     0.088 A 
HETATM   16  C15 UNL     1      26.389   0.451  55.162  1.00  0.00     0.262 C 
HETATM   17  C14 UNL     1      25.634   0.966  53.912  1.00  0.00     0.109 C 
HETATM   18  C13 UNL     1      26.568   1.860  53.152  1.00  0.00     0.128 C 
HETATM   19  N4  UNL     1      27.490   2.646  53.867  1.00  0.00    -0.419 N 
HETATM   20  C12 UNL     1      28.901   2.267  53.786  1.00  0.00     0.129 C 
HETATM   21  H15 UNL     1      27.216   2.926  54.819  1.00  0.00     0.153 HD
BRANCH  16  22
HETATM   22  N5  UNL     1      25.874  -0.767  55.645  1.00  0.00     0.087 N 
HETATM   23  H20 UNL     1      25.202  -1.271  55.062  1.00  0.00     0.313 HD
HETATM   24  H21 UNL     1      26.657  -1.377  56.005  1.00  0.00     0.313 HD
ENDBRANCH  16  22
ENDBRANCH   7   9
ENDBRANCH   6   7
ENDBRANCH   3   6
TORSDOF 4
ENDMDL
MODEL 2
REMARK VINA RESULT:      -7.1      2.387      6.085
REMARK  4 active torsions:
REMARK  status: ('A' for Active; 'I' for Inactive)
REMARK    1  A    between atoms: C3_3  and  C6_6 
REMARK    2  A    between atoms: C6_6  and  N1_7 
REMARK    3  A    between atoms: N1_7  and  C7_8 
REMARK    4  A    between atoms: C15_19  and  N5_20 
ROOT
HETATM    1  C1  UNL     1      26.757  -1.631  52.064  1.00  0.00     0.013 C 
HETATM    2  C2  UNL     1      27.255  -0.829  52.789  1.00  0.00    -0.106 C 
HETATM    3  C3  UNL     1      27.880   0.143  53.668  1.00  0.00     0.031 C 
HETATM    4  C4  UNL     1      27.167   0.280  54.997  1.00  0.00     0.030 C 
HETATM    5  C5  UNL     1      29.300  -0.328  53.952  1.00  0.00     0.030 C 
ENDROOT
BRANCH   3   6
HETATM    6  C6  UNL     1      28.000   1.492  53.003  1.00  0.00     0.142 C 
BRANCH   6   7
HETATM    7  N1  UNL     1      26.892   2.355  53.318  1.00  0.00    -0.376 N 
HETATM    8  H10 UNL     1      26.808   2.825  54.255  1.00  0.00     0.160 HD
BRANCH   7   9
HETATM    9  C7  UNL     1      25.852   2.607  52.352  1.00  0.00     0.109 C 
HETATM   10  N2  UNL     1      26.394   3.047  51.236  1.00  0.00    -0.228 NA
HETATM   11  C8  UNL     1      25.859   3.202  49.897  1.00  0.00     0.235 C 
HETATM   12  N3  UNL     1      24.653   3.293  49.367  1.00  0.00    -0.245 NA
HETATM   13  C9  UNL     1      23.349   2.803  49.781  1.00  0.00     0.051 A 
HETATM   14  C10 UNL     1      23.079   3.002  51.089  1.00  0.00    -0.010 A 
HETATM   15  C11 UNL     1      22.046   2.346  50.329  1.00  0.00     0.088 A 
HETATM   16  C15 UNL     1      23.524   3.435  52.464  1.00  0.00     0.262 C 
HETATM   17  C14 UNL     1      24.478   2.296  52.901  1.00  0.00     0.109 C 
HETATM   18  C13 UNL     1      23.965   1.019  52.305  1.00  0.00     0.128 C 
HETATM   19  N4  UNL     1      22.576   0.842  52.166  1.00  0.00    -0.419 N 
HETATM   20  C12 UNL     1      22.028   0.879  50.810  1.00  0.00     0.129 C 
HETATM   21  H15 UNL     1      21.979   1.338  52.842  1.00  0.00     0.153 HD
BRANCH  16  22
HETATM   22  N5  UNL     1      24.145   4.698  52.471  1.00  0.00     0.087 N 
HETATM   23  H20 UNL     1      24.648   4.993  51.631  1.00  0.00     0.313 HD
HETATM   24  H21 UNL     1      23.480   5.430  52.840  1.00  0.00     0.313 HD
ENDBRANCH  16  22
ENDBRANCH   7   9
ENDBRANCH   6   7
ENDBRANCH   3   6
TORSDOF 4
ENDMDL
MODEL 3
REMARK VINA RESULT:      -6.6      3.446      6.448
REMARK  4 active torsions:
REMARK  status: ('A' for Active; 'I' for Inactive)
REMARK    1  A    between atoms: C3_3  and  C6_6 
REMARK    2  A    between atoms: C6_6  and  N1_7 
REMARK    3  A    between atoms: N1_7  and  C7_8 
REMARK    4  A    between atoms: C15_19  and  N5_20 
ROOT
HETATM    1  C1  UNL     1      23.226  -0.547  53.592  1.00  0.00     0.013 C 
HETATM    2  C2  UNL     1      24.363  -0.241  53.417  1.00  0.00    -0.106 C 
HETATM    3  C3  UNL     1      25.753   0.115  53.192  1.00  0.00     0.031 C 
HETATM    4  C4  UNL     1      26.457   0.570  54.454  1.00  0.00     0.030 C 
HETATM    5  C5  UNL     1      26.477  -1.122  52.680  1.00  0.00     0.030 C 
ENDROOT
BRANCH   3   6
HETATM    6  C6  UNL     1      25.886   1.166  52.117  1.00  0.00     0.142 C 
BRANCH   6   7
HETATM    7  N1  UNL     1      25.484   2.469  52.577  1.00  0.00    -0.376 N 
HETATM    8  H10 UNL     1      25.876   2.888  53.460  1.00  0.00     0.160 HD
BRANCH   7   9
HETATM    9  C7  UNL     1      24.525   3.253  51.838  1.00  0.00     0.109 C 
HETATM   10  N2  UNL     1      24.989   3.476  50.627  1.00  0.00    -0.228 NA
HETATM   11  C8  UNL     1      24.350   3.967  49.422  1.00  0.00     0.235 C 
HETATM   12  N3  UNL     1      23.255   4.652  49.147  1.00  0.00    -0.245 NA
HETATM   13  C9  UNL     1      21.979   4.796  49.827  1.00  0.00     0.051 A 
HETATM   14  C10 UNL     1      22.087   4.994  51.158  1.00  0.00    -0.010 A 
HETATM   15  C11 UNL     1      20.744   4.958  50.638  1.00  0.00     0.088 A 
HETATM   16  C15 UNL     1      22.934   5.059  52.405  1.00  0.00     0.262 C 
HETATM   17  C14 UNL     1      23.299   3.577  52.661  1.00  0.00     0.109 C 
HETATM   18  C13 UNL     1      22.142   2.737  52.208  1.00  0.00     0.128 C 
HETATM   19  N4  UNL     1      20.836   3.240  52.358  1.00  0.00    -0.419 N 
HETATM   20  C12 UNL     1      20.126   3.636  51.142  1.00  0.00     0.129 C 
HETATM   21  H15 UNL     1      20.684   3.902  53.131  1.00  0.00     0.153 HD
BRANCH  16  22
HETATM   22  N5  UNL     1      24.067   5.882  52.261  1.00  0.00     0.087 N 
HETATM   23  H20 UNL     1      24.148   6.701  52.867  1.00  0.00     0.313 HD
HETATM   24  H21 UNL     1      24.943   5.294  52.231  1.00  0.00     0.313 HD
ENDBRANCH  16  22
ENDBRANCH   7   9
ENDBRANCH   6   7
ENDBRANCH   3   6
TORSDOF 4
ENDMDL
MODEL 4
REMARK VINA RESULT:      -6.6      3.789      6.027
REMARK  4 active torsions:
REMARK  status: ('A' for Active; 'I' for Inactive)
REMARK    1  A    between atoms: C3_3  and  C6_6 
REMARK    2  A    between atoms: C6_6  and  N1_7 
REMARK    3  A    between atoms: N1_7  and  C7_8 
REMARK    4  A    between atoms: C15_19  and  N5_20 
ROOT
HETATM    1  C1  UNL     1      28.123   5.121  48.432  1.00  0.00     0.013 C 
HETATM    2  C2  UNL     1      27.133   5.635  48.847  1.00  0.00    -0.106 C 
HETATM    3  C3  UNL     1      25.915   6.259  49.335  1.00  0.00     0.031 C 
HETATM    4  C4  UNL     1      26.166   7.590  50.012  1.00  0.00     0.030 C 
HETATM    5  C5  UNL     1      25.006   6.511  48.141  1.00  0.00     0.030 C 
ENDROOT
BRANCH   3   6
HETATM    6  C6  UNL     1      25.159   5.340  50.264  1.00  0.00     0.142 C 
BRANCH   6   7
HETATM    7  N1  UNL     1      25.506   3.958  50.062  1.00  0.00    -0.376 N 
HETATM    8  H10 UNL     1      26.095   3.650  49.246  1.00  0.00     0.160 HD
BRANCH   7   9
HETATM    9  C7  UNL     1      25.056   2.940  50.979  1.00  0.00     0.109 C 
HETATM   10  N2  UNL     1      23.781   2.696  50.763  1.00  0.00    -0.228 NA
HETATM   11  C8  UNL     1      22.914   1.620  51.203  1.00  0.00     0.235 C 
HETATM   12  N3  UNL     1      22.938   0.725  52.174  1.00  0.00    -0.245 NA
HETATM   13  C9  UNL     1      24.018   0.097  52.916  1.00  0.00     0.051 A 
HETATM   14  C10 UNL     1      24.976   0.957  53.324  1.00  0.00    -0.010 A 
HETATM   15  C11 UNL     1      25.179  -0.423  53.685  1.00  0.00     0.088 A 
HETATM   16  C15 UNL     1      25.577   2.341  53.321  1.00  0.00     0.262 C 
HETATM   17  C14 UNL     1      26.163   2.468  51.894  1.00  0.00     0.109 C 
HETATM   18  C13 UNL     1      26.631   1.107  51.472  1.00  0.00     0.128 C 
HETATM   19  N4  UNL     1      27.162   0.238  52.442  1.00  0.00    -0.419 N 
HETATM   20  C12 UNL     1      26.354  -0.922  52.819  1.00  0.00     0.129 C 
HETATM   21  H15 UNL     1      27.616   0.678  53.255  1.00  0.00     0.153 HD
BRANCH  16  22
HETATM   22  N5  UNL     1      24.641   3.350  53.617  1.00  0.00     0.087 N 
HETATM   23  H20 UNL     1      24.860   4.308  53.333  1.00  0.00     0.313 HD
HETATM   24  H21 UNL     1      23.671   3.042  53.337  1.00  0.00     0.313 HD
ENDBRANCH  16  22
ENDBRANCH   7   9
ENDBRANCH   6   7
ENDBRANCH   3   6
TORSDOF 4
ENDMDL
MODEL 5
REMARK VINA RESULT:      -6.5      2.492      6.269
REMARK  4 active torsions:
REMARK  status: ('A' for Active; 'I' for Inactive)
REMARK    1  A    between atoms: C3_3  and  C6_6 
REMARK    2  A    between atoms: C6_6  and  N1_7 
REMARK    3  A    between atoms: N1_7  and  C7_8 
REMARK    4  A    between atoms: C15_19  and  N5_20 
ROOT
HETATM    1  C1  UNL     1      26.858  -2.257  52.296  1.00  0.00     0.013 C 
HETATM    2  C2  UNL     1      26.769  -1.168  52.768  1.00  0.00    -0.106 C 
HETATM    3  C3  UNL     1      26.659   0.168  53.325  1.00  0.00     0.031 C 
HETATM    4  C4  UNL     1      27.617   0.409  54.473  1.00  0.00     0.030 C 
HETATM    5  C5  UNL     1      26.998   1.164  52.225  1.00  0.00     0.030 C 
ENDROOT
BRANCH   3   6
HETATM    6  C6  UNL     1      25.245   0.471  53.758  1.00  0.00     0.142 C 
BRANCH   6   7
HETATM    7  N1  UNL     1      24.281   0.122  52.748  1.00  0.00    -0.376 N 
HETATM    8  H10 UNL     1      24.358  -0.771  52.196  1.00  0.00     0.160 HD
BRANCH   7   9
HETATM    9  C7  UNL     1      23.166   0.989  52.458  1.00  0.00     0.109 C 
HETATM   10  N2  UNL     1      22.114   0.585  53.137  1.00  0.00    -0.228 NA
HETATM   11  C8  UNL     1      20.841   1.220  53.418  1.00  0.00     0.235 C 
HETATM   12  N3  UNL     1      20.139   2.204  52.884  1.00  0.00    -0.245 NA
HETATM   13  C9  UNL     1      20.509   3.384  52.122  1.00  0.00     0.051 A 
HETATM   14  C10 UNL     1      21.415   3.148  51.149  1.00  0.00    -0.010 A 
HETATM   15  C11 UNL     1      20.970   4.512  51.271  1.00  0.00     0.088 A 
HETATM   16  C15 UNL     1      22.376   2.213  50.458  1.00  0.00     0.262 C 
HETATM   17  C14 UNL     1      23.534   2.081  51.478  1.00  0.00     0.109 C 
HETATM   18  C13 UNL     1      23.660   3.391  52.196  1.00  0.00     0.128 C 
HETATM   19  N4  UNL     1      23.391   4.581  51.494  1.00  0.00    -0.419 N 
HETATM   20  C12 UNL     1      22.167   5.302  51.841  1.00  0.00     0.129 C 
HETATM   21  H15 UNL     1      23.559   4.564  50.479  1.00  0.00     0.153 HD
BRANCH  16  22
HETATM   22  N5  UNL     1      21.799   0.973  50.128  1.00  0.00     0.087 N 
HETATM   23  H20 UNL     1      20.938   0.974  49.575  1.00  0.00     0.313 HD
HETATM   24  H21 UNL     1      22.535   0.314  49.755  1.00  0.00     0.313 HD
ENDBRANCH  16  22
ENDBRANCH   7   9
ENDBRANCH   6   7
ENDBRANCH   3   6
TORSDOF 4
ENDMDL
MODEL 6
REMARK VINA RESULT:      -6.3      7.653      9.630
REMARK  4 active torsions:
REMARK  status: ('A' for Active; 'I' for Inactive)
REMARK    1  A    between atoms: C3_3  and  C6_6 
REMARK    2  A    between atoms: C6_6  and  N1_7 
REMARK    3  A    between atoms: N1_7  and  C7_8 
REMARK    4  A    between atoms: C15_19  and  N5_20 
ROOT
HETATM    1  C1  UNL     1      26.295   4.354  49.309  1.00  0.00     0.013 C 
HETATM    2  C2  UNL     1      26.457   5.506  49.056  1.00  0.00    -0.106 C 
HETATM    3  C3  UNL     1      26.654   6.915  48.766  1.00  0.00     0.031 C 
HETATM    4  C4  UNL     1      25.803   7.405  47.613  1.00  0.00     0.030 C 
HETATM    5  C5  UNL     1      26.255   7.708  50.003  1.00  0.00     0.030 C 
ENDROOT
BRANCH   3   6
HETATM    6  C6  UNL     1      28.108   7.227  48.507  1.00  0.00     0.142 C 
BRANCH   6   7
HETATM    7  N1  UNL     1      28.822   6.092  47.984  1.00  0.00    -0.376 N 
HETATM    8  H10 UNL     1      28.325   5.306  47.492  1.00  0.00     0.160 HD
BRANCH   7   9
HETATM    9  C7  UNL     1      30.255   5.994  48.117  1.00  0.00     0.109 C 
HETATM   10  N2  UNL     1      30.643   4.796  47.736  1.00  0.00    -0.228 NA
HETATM   11  C8  UNL     1      31.954   4.257  47.426  1.00  0.00     0.235 C 
HETATM   12  N3  UNL     1      33.202   4.595  47.698  1.00  0.00    -0.245 NA
HETATM   13  C9  UNL     1      33.843   5.865  47.991  1.00  0.00     0.051 A 
HETATM   14  C10 UNL     1      33.164   6.633  48.870  1.00  0.00    -0.010 A 
HETATM   15  C11 UNL     1      34.395   7.190  48.373  1.00  0.00     0.088 A 
HETATM   16  C15 UNL     1      31.931   6.889  49.700  1.00  0.00     0.262 C 
HETATM   17  C14 UNL     1      30.867   7.273  48.642  1.00  0.00     0.109 C 
HETATM   18  C13 UNL     1      31.569   7.998  47.533  1.00  0.00     0.128 C 
HETATM   19  N4  UNL     1      32.668   8.819  47.845  1.00  0.00    -0.419 N 
HETATM   20  C12 UNL     1      33.992   8.350  47.438  1.00  0.00     0.129 C 
HETATM   21  H15 UNL     1      32.675   9.241  48.784  1.00  0.00     0.153 HD
BRANCH  16  22
HETATM   22  N5  UNL     1      31.549   5.781  50.478  1.00  0.00     0.087 N 
HETATM   23  H20 UNL     1      30.937   5.943  51.282  1.00  0.00     0.313 HD
HETATM   24  H21 UNL     1      31.222   4.992  49.856  1.00  0.00     0.313 HD
ENDBRANCH  16  22
ENDBRANCH   7   9
ENDBRANCH   6   7
ENDBRANCH   3   6
TORSDOF 4
ENDMDL
MODEL 7
REMARK VINA RESULT:      -6.3      4.038      6.142
REMARK  4 active torsions:
REMARK  status: ('A' for Active; 'I' for Inactive)
REMARK    1  A    between atoms: C3_3  and  C6_6 
REMARK    2  A    between atoms: C6_6  and  N1_7 
REMARK    3  A    between atoms: N1_7  and  C7_8 
REMARK    4  A    between atoms: C15_19  and  N5_20 
ROOT
HETATM    1  C1  UNL     1      23.237  -0.513  53.745  1.00  0.00     0.013 C 
HETATM    2  C2  UNL     1      24.397  -0.273  53.632  1.00  0.00    -0.106 C 
HETATM    3  C3  UNL     1      25.815   0.005  53.480  1.00  0.00     0.031 C 
HETATM    4  C4  UNL     1      26.521   0.205  54.805  1.00  0.00     0.030 C 
HETATM    5  C5  UNL     1      26.456  -1.190  52.790  1.00  0.00     0.030 C 
ENDROOT
BRANCH   3   6
HETATM    6  C6  UNL     1      26.050   1.196  52.583  1.00  0.00     0.142 C 
BRANCH   6   7
HETATM    7  N1  UNL     1      24.949   1.426  51.685  1.00  0.00    -0.376 N 
HETATM    8  H10 UNL     1      24.346   0.636  51.337  1.00  0.00     0.160 HD
BRANCH   7   9
HETATM    9  C7  UNL     1      24.631   2.756  51.228  1.00  0.00     0.109 C 
HETATM   10  N2  UNL     1      23.926   3.374  52.153  1.00  0.00    -0.228 NA
HETATM   11  C8  UNL     1      23.574   4.770  52.328  1.00  0.00     0.235 C 
HETATM   12  N3  UNL     1      23.516   5.834  51.548  1.00  0.00    -0.245 NA
HETATM   13  C9  UNL     1      24.217   6.211  50.333  1.00  0.00     0.051 A 
HETATM   14  C10 UNL     1      24.307   5.219  49.421  1.00  0.00    -0.010 A 
HETATM   15  C11 UNL     1      24.913   6.471  49.045  1.00  0.00     0.088 A 
HETATM   16  C15 UNL     1      24.102   3.775  49.037  1.00  0.00     0.262 C 
HETATM   17  C14 UNL     1      25.192   3.036  49.853  1.00  0.00     0.109 C 
HETATM   18  C13 UNL     1      26.378   3.947  49.958  1.00  0.00     0.128 C 
HETATM   19  N4  UNL     1      26.677   4.804  48.883  1.00  0.00    -0.419 N 
HETATM   20  C12 UNL     1      26.438   6.234  49.078  1.00  0.00     0.129 C 
HETATM   21  H15 UNL     1      26.390   4.484  47.947  1.00  0.00     0.153 HD
BRANCH  16  22
HETATM   22  N5  UNL     1      22.804   3.308  49.316  1.00  0.00     0.087 N 
HETATM   23  H20 UNL     1      22.025   3.703  48.784  1.00  0.00     0.313 HD
HETATM   24  H21 UNL     1      22.795   2.253  49.352  1.00  0.00     0.313 HD
ENDBRANCH  16  22
ENDBRANCH   7   9
ENDBRANCH   6   7
ENDBRANCH   3   6
TORSDOF 4
ENDMDL
MODEL 8
REMARK VINA RESULT:      -6.0      3.946      6.357
REMARK  4 active torsions:
REMARK  status: ('A' for Active; 'I' for Inactive)
REMARK    1  A    between atoms: C3_3  and  C6_6 
REMARK    2  A    between atoms: C6_6  and  N1_7 
REMARK    3  A    between atoms: N1_7  and  C7_8 
REMARK    4  A    between atoms: C15_19  and  N5_20 
ROOT
HETATM    1  C1  UNL     1      23.253   5.802  47.944  1.00  0.00     0.013 C 
HETATM    2  C2  UNL     1      24.268   5.806  48.566  1.00  0.00    -0.106 C 
HETATM    3  C3  UNL     1      25.497   5.822  49.339  1.00  0.00     0.031 C 
HETATM    4  C4  UNL     1      26.717   6.141  48.500  1.00  0.00     0.030 C 
HETATM    5  C5  UNL     1      25.369   6.905  50.400  1.00  0.00     0.030 C 
ENDROOT
BRANCH   3   6
HETATM    6  C6  UNL     1      25.701   4.521  50.076  1.00  0.00     0.142 C 
BRANCH   6   7
HETATM    7  N1  UNL     1      24.924   3.448  49.513  1.00  0.00    -0.376 N 
HETATM    8  H10 UNL     1      24.985   3.200  48.492  1.00  0.00     0.160 HD
BRANCH   7   9
HETATM    9  C7  UNL     1      24.029   2.671  50.334  1.00  0.00     0.109 C 
HETATM   10  N2  UNL     1      22.995   2.296  49.612  1.00  0.00    -0.228 NA
HETATM   11  C8  UNL     1      21.956   1.312  49.849  1.00  0.00     0.235 C 
HETATM   12  N3  UNL     1      21.460   0.700  50.909  1.00  0.00    -0.245 NA
HETATM   13  C9  UNL     1      22.018   0.356  52.205  1.00  0.00     0.051 A 
HETATM   14  C10 UNL     1      22.721   1.354  52.782  1.00  0.00    -0.010 A 
HETATM   15  C11 UNL     1      22.640   0.129  53.536  1.00  0.00     0.088 A 
HETATM   16  C15 UNL     1      23.340   2.727  52.709  1.00  0.00     0.262 C 
HETATM   17  C14 UNL     1      24.539   2.524  51.750  1.00  0.00     0.109 C 
HETATM   18  C13 UNL     1      25.062   1.135  51.964  1.00  0.00     0.128 C 
HETATM   19  N4  UNL     1      25.014   0.580  53.256  1.00  0.00    -0.419 N 
HETATM   20  C12 UNL     1      24.051  -0.496  53.489  1.00  0.00     0.129 C 
HETATM   21  H15 UNL     1      25.056   1.243  54.043  1.00  0.00     0.153 HD
BRANCH  16  22
HETATM   22  N5  UNL     1      22.443   3.713  52.257  1.00  0.00     0.087 N 
HETATM   23  H20 UNL     1      22.468   3.970  51.267  1.00  0.00     0.313 HD
HETATM   24  H21 UNL     1      21.470   3.514  52.614  1.00  0.00     0.313 HD
ENDBRANCH  16  22
ENDBRANCH   7   9
ENDBRANCH   6   7
ENDBRANCH   3   6
TORSDOF 4
ENDMDL
MODEL 9
REMARK VINA RESULT:      -6.0      4.674      6.902
REMARK  4 active torsions:
REMARK  status: ('A' for Active; 'I' for Inactive)
REMARK    1  A    between atoms: C3_3  and  C6_6 
REMARK    2  A    between atoms: C6_6  and  N1_7 
REMARK    3  A    between atoms: N1_7  and  C7_8 
REMARK    4  A    between atoms: C15_19  and  N5_20 
ROOT
HETATM    1  C1  UNL     1      23.893  -0.887  54.315  1.00  0.00     0.013 C 
HETATM    2  C2  UNL     1      24.590  -0.132  53.715  1.00  0.00    -0.106 C 
HETATM    3  C3  UNL     1      25.449   0.775  52.974  1.00  0.00     0.031 C 
HETATM    4  C4  UNL     1      26.095   1.826  53.852  1.00  0.00     0.030 C 
HETATM    5  C5  UNL     1      26.564  -0.048  52.342  1.00  0.00     0.030 C 
ENDROOT
BRANCH   3   6
HETATM    6  C6  UNL     1      24.705   1.434  51.838  1.00  0.00     0.142 C 
BRANCH   6   7
HETATM    7  N1  UNL     1      24.245   2.753  52.182  1.00  0.00    -0.376 N 
HETATM    8  H10 UNL     1      24.123   3.051  53.184  1.00  0.00     0.160 HD
BRANCH   7   9
HETATM    9  C7  UNL     1      23.934   3.719  51.158  1.00  0.00     0.109 C 
HETATM   10  N2  UNL     1      23.920   3.120  49.987  1.00  0.00    -0.228 NA
HETATM   11  C8  UNL     1      23.424   3.541  48.690  1.00  0.00     0.235 C 
HETATM   12  N3  UNL     1      23.134   4.697  48.121  1.00  0.00    -0.245 NA
HETATM   13  C9  UNL     1      22.712   5.983  48.649  1.00  0.00     0.051 A 
HETATM   14  C10 UNL     1      23.413   6.389  49.729  1.00  0.00    -0.010 A 
HETATM   15  C11 UNL     1      22.376   7.284  49.284  1.00  0.00     0.088 A 
HETATM   16  C15 UNL     1      24.440   6.114  50.799  1.00  0.00     0.262 C 
HETATM   17  C14 UNL     1      23.721   5.104  51.727  1.00  0.00     0.109 C 
HETATM   18  C13 UNL     1      22.260   5.441  51.721  1.00  0.00     0.128 C 
HETATM   19  N4  UNL     1      21.872   6.789  51.612  1.00  0.00    -0.419 N 
HETATM   20  C12 UNL     1      21.263   7.212  50.351  1.00  0.00     0.129 C 
HETATM   21  H15 UNL     1      22.532   7.489  51.980  1.00  0.00     0.153 HD
BRANCH  16  22
HETATM   22  N5  UNL     1      25.652   5.613  50.286  1.00  0.00     0.087 N 
HETATM   23  H20 UNL     1      25.607   4.906  49.548  1.00  0.00     0.313 HD
HETATM   24  H21 UNL     1      26.311   6.408  50.066  1.00  0.00     0.313 HD
ENDBRANCH  16  22
ENDBRANCH   7   9
ENDBRANCH   6   7
ENDBRANCH   3   6
TORSDOF 4
ENDMDL
