MODEL 1
REMARK VINA RESULT:      -8.3      0.000      0.000
REMARK  8 active torsions:
REMARK  status: ('A' for Active; 'I' for Inactive)
REMARK    1  A    between atoms: N2_13  and  C11_14 
REMARK    2  A    between atoms: C11_14  and  C12_15 
REMARK    3  A    between atoms: C12_15  and  C13_16 
REMARK    4  A    between atoms: C13_16  and  P1_17 
REMARK    5  A    between atoms: P1_17  and  C14_18 
REMARK    6  A    between atoms: C15_19  and  C16_20 
REMARK    7  A    between atoms: C16_20  and  N3_21 
REMARK    8  A    between atoms: C22_29  and  O2_30 
ROOT
HETATM    1  C13 UNL     1      21.794   2.124  50.876  1.00  0.00     0.005 C 
ENDROOT
BRANCH   1   2
HETATM    2  C12 UNL     1      22.211   2.975  49.976  1.00  0.00    -0.006 C 
BRANCH   2   3
HETATM    3  C11 UNL     1      22.436   3.924  48.889  1.00  0.00     0.153 C 
BRANCH   3   4
HETATM    4  N2  UNL     1      23.374   4.970  49.143  1.00  0.00    -0.350 N 
HETATM    5  C2  UNL     1      22.756   6.243  49.522  1.00  0.00     0.101 C 
HETATM    6  C1  UNL     1      23.297   6.745  50.829  1.00  0.00     0.063 C 
HETATM    7  C3  UNL     1      21.274   6.217  49.574  1.00  0.00     0.063 C 
HETATM    8  N1  UNL     1      23.246   7.162  48.468  1.00  0.00    -0.331 N 
HETATM    9  C4  UNL     1      24.684   7.209  48.349  1.00  0.00     0.255 C 
HETATM   10  H7  UNL     1      22.778   7.804  47.769  1.00  0.00     0.165 HD
HETATM   11  O1  UNL     1      25.380   8.203  47.979  1.00  0.00    -0.268 OA
HETATM   12  C5  UNL     1      25.487   6.013  48.674  1.00  0.00     0.058 A 
HETATM   13  C6  UNL     1      26.854   5.906  48.627  1.00  0.00     0.019 A 
HETATM   14  C10 UNL     1      24.790   4.889  49.079  1.00  0.00     0.048 A 
HETATM   15  C7  UNL     1      27.445   4.696  48.984  1.00  0.00     0.001 A 
HETATM   16  C8  UNL     1      26.716   3.585  49.389  1.00  0.00     0.002 A 
HETATM   17  C9  UNL     1      25.325   3.665  49.447  1.00  0.00     0.030 A 
ENDBRANCH   3   4
ENDBRANCH   2   3
ENDBRANCH   1   2
BRANCH   1  18
HETATM   18  P1  UNL     1      20.737   1.135  51.942  1.00  0.00    -0.083 P 
HETATM   19  H16 UNL     1      19.811   0.288  51.176  1.00  0.00     0.066 HD
BRANCH  18  20
HETATM   20  C14 UNL     1      21.813   0.065  53.006  1.00  0.00     0.005 C 
HETATM   21  C15 UNL     1      23.154   0.086  52.805  1.00  0.00    -0.006 C 
BRANCH  21  22
HETATM   22  C16 UNL     1      24.363  -0.525  53.339  1.00  0.00     0.153 C 
BRANCH  22  23
HETATM   23  N3  UNL     1      25.323   0.374  53.952  1.00  0.00    -0.345 N 
HETATM   24  C17 UNL     1      25.149   1.720  53.464  1.00  0.00     0.249 C 
HETATM   25  N4  UNL     1      26.228   2.607  53.875  1.00  0.00    -0.368 N 
HETATM   26  C18 UNL     1      27.406   2.142  53.200  1.00  0.00     0.203 C 
HETATM   27  H23 UNL     1      26.892   3.314  54.253  1.00  0.00     0.161 HD
HETATM   28  N5  UNL     1      28.544   1.608  52.980  1.00  0.00    -0.257 NA
HETATM   29  C19 UNL     1      29.354   1.005  53.950  1.00  0.00     0.114 C 
HETATM   30  C20 UNL     1      28.800   0.217  54.887  1.00  0.00     0.006 C 
HETATM   31  C21 UNL     1      27.402   0.260  54.537  1.00  0.00     0.100 C 
HETATM   32  C22 UNL     1      26.239  -0.208  54.923  1.00  0.00     0.124 C 
BRANCH  32  33
HETATM   33  O2  UNL     1      25.401  -0.973  55.778  1.00  0.00    -0.349 OA
HETATM   34  H28 UNL     1      24.569  -1.326  55.280  1.00  0.00     0.219 HD
ENDBRANCH  32  33
ENDBRANCH  22  23
ENDBRANCH  21  22
ENDBRANCH  18  20
ENDBRANCH   1  18
TORSDOF 8
ENDMDL
MODEL 2
REMARK VINA RESULT:      -8.3      1.199      2.678
REMARK  8 active torsions:
REMARK  status: ('A' for Active; 'I' for Inactive)
REMARK    1  A    between atoms: N2_13  and  C11_14 
REMARK    2  A    between atoms: C11_14  and  C12_15 
REMARK    3  A    between atoms: C12_15  and  C13_16 
REMARK    4  A    between atoms: C13_16  and  P1_17 
REMARK    5  A    between atoms: P1_17  and  C14_18 
REMARK    6  A    between atoms: C15_19  and  C16_20 
REMARK    7  A    between atoms: C16_20  and  N3_21 
REMARK    8  A    between atoms: C22_29  and  O2_30 
ROOT
HETATM    1  C13 UNL     1      21.560   2.077  50.795  1.00  0.00     0.005 C 
ENDROOT
BRANCH   1   2
HETATM    2  C12 UNL     1      22.492   2.341  49.918  1.00  0.00    -0.006 C 
BRANCH   2   3
HETATM    3  C11 UNL     1      23.604   2.817  49.101  1.00  0.00     0.153 C 
BRANCH   3   4
HETATM    4  N2  UNL     1      23.903   4.211  49.184  1.00  0.00    -0.350 N 
HETATM    5  C2  UNL     1      25.203   4.504  49.794  1.00  0.00     0.101 C 
HETATM    6  C1  UNL     1      26.050   5.354  48.894  1.00  0.00     0.063 C 
HETATM    7  C3  UNL     1      25.970   3.306  50.215  1.00  0.00     0.063 C 
HETATM    8  N1  UNL     1      24.826   5.344  50.956  1.00  0.00    -0.331 N 
HETATM    9  C4  UNL     1      24.051   6.512  50.613  1.00  0.00     0.255 C 
HETATM   10  H7  UNL     1      24.998   5.285  51.999  1.00  0.00     0.165 HD
HETATM   11  O1  UNL     1      24.049   7.624  51.225  1.00  0.00    -0.268 OA
HETATM   12  C5  UNL     1      23.149   6.477  49.444  1.00  0.00     0.058 A 
HETATM   13  C6  UNL     1      22.365   7.504  48.983  1.00  0.00     0.019 A 
HETATM   14  C10 UNL     1      23.099   5.291  48.734  1.00  0.00     0.048 A 
HETATM   15  C7  UNL     1      21.583   7.295  47.850  1.00  0.00     0.001 A 
HETATM   16  C8  UNL     1      21.556   6.091  47.157  1.00  0.00     0.002 A 
HETATM   17  C9  UNL     1      22.343   5.029  47.603  1.00  0.00     0.030 A 
ENDBRANCH   3   4
ENDBRANCH   2   3
ENDBRANCH   1   2
BRANCH   1  18
HETATM   18  P1  UNL     1      20.692   1.451  52.240  1.00  0.00    -0.083 P 
HETATM   19  H16 UNL     1      19.442   0.765  51.884  1.00  0.00     0.066 HD
BRANCH  18  20
HETATM   20  C14 UNL     1      21.810   0.269  53.129  1.00  0.00     0.005 C 
HETATM   21  C15 UNL     1      23.135   0.285  52.842  1.00  0.00    -0.006 C 
BRANCH  21  22
HETATM   22  C16 UNL     1      24.362  -0.393  53.236  1.00  0.00     0.153 C 
BRANCH  22  23
HETATM   23  N3  UNL     1      25.360   0.418  53.907  1.00  0.00    -0.345 N 
HETATM   24  C17 UNL     1      25.257   1.798  53.500  1.00  0.00     0.249 C 
HETATM   25  N4  UNL     1      26.375   2.604  53.969  1.00  0.00    -0.368 N 
HETATM   26  C18 UNL     1      27.535   2.121  53.275  1.00  0.00     0.203 C 
HETATM   27  H23 UNL     1      27.070   3.253  54.392  1.00  0.00     0.161 HD
HETATM   28  N5  UNL     1      28.646   1.545  53.029  1.00  0.00    -0.257 NA
HETATM   29  C19 UNL     1      29.417   0.845  53.966  1.00  0.00     0.114 C 
HETATM   30  C20 UNL     1      28.816   0.032  54.851  1.00  0.00     0.006 C 
HETATM   31  C21 UNL     1      27.425   0.166  54.496  1.00  0.00     0.100 C 
HETATM   32  C22 UNL     1      26.237  -0.265  54.848  1.00  0.00     0.124 C 
BRANCH  32  33
HETATM   33  O2  UNL     1      25.354  -1.036  55.650  1.00  0.00    -0.349 OA
HETATM   34  H28 UNL     1      25.764  -1.950  55.897  1.00  0.00     0.219 HD
ENDBRANCH  32  33
ENDBRANCH  22  23
ENDBRANCH  21  22
ENDBRANCH  18  20
ENDBRANCH   1  18
TORSDOF 8
ENDMDL
MODEL 3
REMARK VINA RESULT:      -7.9      4.401      7.998
REMARK  8 active torsions:
REMARK  status: ('A' for Active; 'I' for Inactive)
REMARK    1  A    between atoms: N2_13  and  C11_14 
REMARK    2  A    between atoms: C11_14  and  C12_15 
REMARK    3  A    between atoms: C12_15  and  C13_16 
REMARK    4  A    between atoms: C13_16  and  P1_17 
REMARK    5  A    between atoms: P1_17  and  C14_18 
REMARK    6  A    between atoms: C15_19  and  C16_20 
REMARK    7  A    between atoms: C16_20  and  N3_21 
REMARK    8  A    between atoms: C22_29  and  O2_30 
ROOT
HETATM    1  C13 UNL     1      24.510   5.196  50.407  1.00  0.00     0.005 C 
ENDROOT
BRANCH   1   2
HETATM    2  C12 UNL     1      24.196   4.518  51.479  1.00  0.00    -0.006 C 
BRANCH   2   3
HETATM    3  C11 UNL     1      23.605   3.797  52.602  1.00  0.00     0.153 C 
BRANCH   3   4
HETATM    4  N2  UNL     1      23.493   2.381  52.459  1.00  0.00    -0.350 N 
HETATM    5  C2  UNL     1      22.122   1.913  52.234  1.00  0.00     0.101 C 
HETATM    6  C1  UNL     1      22.025   1.085  50.987  1.00  0.00     0.063 C 
HETATM    7  C3  UNL     1      21.102   2.990  52.196  1.00  0.00     0.063 C 
HETATM    8  N1  UNL     1      21.905   1.000  53.381  1.00  0.00    -0.331 N 
HETATM    9  C4  UNL     1      22.885  -0.055  53.488  1.00  0.00     0.255 C 
HETATM   10  H7  UNL     1      21.185   0.940  54.153  1.00  0.00     0.165 HD
HETATM   11  O1  UNL     1      22.696  -1.217  53.961  1.00  0.00    -0.268 OA
HETATM   12  C5  UNL     1      24.266   0.176  53.019  1.00  0.00     0.058 A 
HETATM   13  C6  UNL     1      25.300  -0.726  53.037  1.00  0.00     0.019 A 
HETATM   14  C10 UNL     1      24.543   1.427  52.496  1.00  0.00     0.048 A 
HETATM   15  C7  UNL     1      26.540  -0.336  52.537  1.00  0.00     0.001 A 
HETATM   16  C8  UNL     1      26.786   0.928  52.017  1.00  0.00     0.002 A 
HETATM   17  C9  UNL     1      25.754   1.866  51.985  1.00  0.00     0.030 A 
ENDBRANCH   3   4
ENDBRANCH   2   3
ENDBRANCH   1   2
BRANCH   1  18
HETATM   18  P1  UNL     1      25.361   5.780  48.935  1.00  0.00    -0.083 P 
HETATM   19  H16 UNL     1      25.535   7.240  48.934  1.00  0.00     0.066 HD
BRANCH  18  20
HETATM   20  C14 UNL     1      27.023   4.963  48.854  1.00  0.00     0.005 C 
HETATM   21  C15 UNL     1      28.090   5.696  48.447  1.00  0.00    -0.006 C 
BRANCH  21  22
HETATM   22  C16 UNL     1      29.520   5.540  48.226  1.00  0.00     0.153 C 
BRANCH  22  23
HETATM   23  N3  UNL     1      30.361   6.650  48.632  1.00  0.00    -0.345 N 
HETATM   24  C17 UNL     1      29.745   7.910  48.291  1.00  0.00     0.249 C 
HETATM   25  N4  UNL     1      30.647   9.038  48.471  1.00  0.00    -0.368 N 
HETATM   26  C18 UNL     1      31.684   8.882  47.492  1.00  0.00     0.203 C 
HETATM   27  H23 UNL     1      31.195   9.889  48.713  1.00  0.00     0.161 HD
HETATM   28  N5  UNL     1      32.819   8.648  46.958  1.00  0.00    -0.257 NA
HETATM   29  C19 UNL     1      33.975   8.268  47.650  1.00  0.00     0.114 C 
HETATM   30  C20 UNL     1      33.892   7.368  48.645  1.00  0.00     0.006 C 
HETATM   31  C21 UNL     1      32.484   7.061  48.663  1.00  0.00     0.100 C 
HETATM   32  C22 UNL     1      31.610   6.317  49.301  1.00  0.00     0.124 C 
BRANCH  32  33
HETATM   33  O2  UNL     1      31.235   5.369  50.290  1.00  0.00    -0.349 OA
HETATM   34  H28 UNL     1      31.903   5.352  51.075  1.00  0.00     0.219 HD
ENDBRANCH  32  33
ENDBRANCH  22  23
ENDBRANCH  21  22
ENDBRANCH  18  20
ENDBRANCH   1  18
TORSDOF 8
ENDMDL
MODEL 4
REMARK VINA RESULT:      -7.8      3.537      8.296
REMARK  8 active torsions:
REMARK  status: ('A' for Active; 'I' for Inactive)
REMARK    1  A    between atoms: N2_13  and  C11_14 
REMARK    2  A    between atoms: C11_14  and  C12_15 
REMARK    3  A    between atoms: C12_15  and  C13_16 
REMARK    4  A    between atoms: C13_16  and  P1_17 
REMARK    5  A    between atoms: P1_17  and  C14_18 
REMARK    6  A    between atoms: C15_19  and  C16_20 
REMARK    7  A    between atoms: C16_20  and  N3_21 
REMARK    8  A    between atoms: C22_29  and  O2_30 
ROOT
HETATM    1  C13 UNL     1      23.503   4.976  50.908  1.00  0.00     0.005 C 
ENDROOT
BRANCH   1   2
HETATM    2  C12 UNL     1      23.731   3.690  50.949  1.00  0.00    -0.006 C 
BRANCH   2   3
HETATM    3  C11 UNL     1      24.132   2.296  50.790  1.00  0.00     0.153 C 
BRANCH   3   4
HETATM    4  N2  UNL     1      24.526   1.608  51.978  1.00  0.00    -0.350 N 
HETATM    5  C2  UNL     1      25.943   1.769  52.314  1.00  0.00     0.101 C 
HETATM    6  C1  UNL     1      26.117   2.295  53.708  1.00  0.00     0.063 C 
HETATM    7  C3  UNL     1      26.710   2.612  51.364  1.00  0.00     0.063 C 
HETATM    8  N1  UNL     1      26.430   0.369  52.314  1.00  0.00    -0.331 N 
HETATM    9  C4  UNL     1      25.703  -0.509  53.199  1.00  0.00     0.255 C 
HETATM   10  H7  UNL     1      27.203  -0.146  51.806  1.00  0.00     0.165 HD
HETATM   11  O1  UNL     1      26.165  -1.523  53.805  1.00  0.00    -0.268 OA
HETATM   12  C5  UNL     1      24.273  -0.258  53.469  1.00  0.00     0.058 A 
HETATM   13  C6  UNL     1      23.454  -0.987  54.295  1.00  0.00     0.019 A 
HETATM   14  C10 UNL     1      23.703   0.831  52.834  1.00  0.00     0.048 A 
HETATM   15  C7  UNL     1      22.127  -0.593  54.441  1.00  0.00     0.001 A 
HETATM   16  C8  UNL     1      21.584   0.508  53.790  1.00  0.00     0.002 A 
HETATM   17  C9  UNL     1      22.393   1.268  52.945  1.00  0.00     0.030 A 
ENDBRANCH   3   4
ENDBRANCH   2   3
ENDBRANCH   1   2
BRANCH   1  18
HETATM   18  P1  UNL     1      23.711   6.750  50.695  1.00  0.00    -0.083 P 
HETATM   19  H16 UNL     1      24.406   7.370  51.832  1.00  0.00     0.066 HD
BRANCH  18  20
HETATM   20  C14 UNL     1      24.685   7.044  49.145  1.00  0.00     0.005 C 
HETATM   21  C15 UNL     1      26.030   6.871  49.180  1.00  0.00    -0.006 C 
BRANCH  21  22
HETATM   22  C16 UNL     1      27.181   6.964  48.292  1.00  0.00     0.153 C 
BRANCH  22  23
HETATM   23  N3  UNL     1      28.360   7.615  48.831  1.00  0.00    -0.345 N 
HETATM   24  C17 UNL     1      28.004   8.833  49.517  1.00  0.00     0.249 C 
HETATM   25  N4  UNL     1      29.167   9.633  49.874  1.00  0.00    -0.368 N 
HETATM   26  C18 UNL     1      29.738  10.083  48.638  1.00  0.00     0.203 C 
HETATM   27  H23 UNL     1      29.961  10.173  50.277  1.00  0.00     0.161 HD
HETATM   28  N5  UNL     1      30.528  10.209  47.643  1.00  0.00    -0.257 NA
HETATM   29  C19 UNL     1      31.715   9.489  47.458  1.00  0.00     0.114 C 
HETATM   30  C20 UNL     1      31.748   8.175  47.738  1.00  0.00     0.006 C 
HETATM   31  C21 UNL     1      30.400   7.920  48.180  1.00  0.00     0.100 C 
HETATM   32  C22 UNL     1      29.636   6.946  48.616  1.00  0.00     0.124 C 
BRANCH  32  33
HETATM   33  O2  UNL     1      29.390   5.598  48.988  1.00  0.00    -0.349 OA
HETATM   34  H28 UNL     1      30.228   5.009  48.864  1.00  0.00     0.219 HD
ENDBRANCH  32  33
ENDBRANCH  22  23
ENDBRANCH  21  22
ENDBRANCH  18  20
ENDBRANCH   1  18
TORSDOF 8
ENDMDL
MODEL 5
REMARK VINA RESULT:      -7.6      3.799      5.569
REMARK  8 active torsions:
REMARK  status: ('A' for Active; 'I' for Inactive)
REMARK    1  A    between atoms: N2_13  and  C11_14 
REMARK    2  A    between atoms: C11_14  and  C12_15 
REMARK    3  A    between atoms: C12_15  and  C13_16 
REMARK    4  A    between atoms: C13_16  and  P1_17 
REMARK    5  A    between atoms: P1_17  and  C14_18 
REMARK    6  A    between atoms: C15_19  and  C16_20 
REMARK    7  A    between atoms: C16_20  and  N3_21 
REMARK    8  A    between atoms: C22_29  and  O2_30 
ROOT
HETATM    1  C13 UNL     1      27.665   5.238  48.628  1.00  0.00     0.005 C 
ENDROOT
BRANCH   1   2
HETATM    2  C12 UNL     1      28.811   5.779  48.309  1.00  0.00    -0.006 C 
BRANCH   2   3
HETATM    3  C11 UNL     1      29.971   6.605  47.989  1.00  0.00     0.153 C 
BRANCH   3   4
HETATM    4  N2  UNL     1      29.751   8.015  47.933  1.00  0.00    -0.350 N 
HETATM    5  C2  UNL     1      30.609   8.785  48.839  1.00  0.00     0.101 C 
HETATM    6  C1  UNL     1      31.375   9.842  48.098  1.00  0.00     0.063 C 
HETATM    7  C3  UNL     1      31.545   7.966  49.646  1.00  0.00     0.063 C 
HETATM    8  N1  UNL     1      29.621   9.484  49.695  1.00  0.00    -0.331 N 
HETATM    9  C4  UNL     1      28.662  10.277  48.963  1.00  0.00     0.255 C 
HETATM   10  H7  UNL     1      29.453   9.538  50.738  1.00  0.00     0.165 HD
HETATM   11  O1  UNL     1      28.097  11.338  49.364  1.00  0.00    -0.268 OA
HETATM   12  C5  UNL     1      28.255   9.865  47.604  1.00  0.00     0.058 A 
HETATM   13  C6  UNL     1      27.373  10.518  46.780  1.00  0.00     0.019 A 
HETATM   14  C10 UNL     1      28.831   8.710  47.107  1.00  0.00     0.048 A 
HETATM   15  C7  UNL     1      27.117   9.989  45.518  1.00  0.00     0.001 A 
HETATM   16  C8  UNL     1      27.714   8.826  45.046  1.00  0.00     0.002 A 
HETATM   17  C9  UNL     1      28.615   8.142  45.861  1.00  0.00     0.030 A 
ENDBRANCH   3   4
ENDBRANCH   2   3
ENDBRANCH   1   2
BRANCH   1  18
HETATM   18  P1  UNL     1      26.108   4.878  49.453  1.00  0.00    -0.083 P 
HETATM   19  H16 UNL     1      24.947   5.320  48.667  1.00  0.00     0.066 HD
BRANCH  18  20
HETATM   20  C14 UNL     1      26.000   3.048  49.731  1.00  0.00     0.005 C 
HETATM   21  C15 UNL     1      25.602   2.597  50.947  1.00  0.00    -0.006 C 
BRANCH  21  22
HETATM   22  C16 UNL     1      25.363   1.337  51.636  1.00  0.00     0.153 C 
BRANCH  22  23
HETATM   23  N3  UNL     1      26.239   1.036  52.752  1.00  0.00    -0.345 N 
HETATM   24  C17 UNL     1      26.727   2.249  53.362  1.00  0.00     0.249 C 
HETATM   25  N4  UNL     1      27.781   2.000  54.334  1.00  0.00    -0.368 N 
HETATM   26  C18 UNL     1      28.905   1.510  53.589  1.00  0.00     0.203 C 
HETATM   27  H23 UNL     1      28.434   1.872  55.135  1.00  0.00     0.161 HD
HETATM   28  N5  UNL     1      29.792   0.728  53.109  1.00  0.00    -0.257 NA
HETATM   29  C19 UNL     1      29.904  -0.638  53.396  1.00  0.00     0.114 C 
HETATM   30  C20 UNL     1      28.799  -1.400  53.462  1.00  0.00     0.006 C 
HETATM   31  C21 UNL     1      27.753  -0.448  53.180  1.00  0.00     0.100 C 
HETATM   32  C22 UNL     1      26.448  -0.372  53.061  1.00  0.00     0.124 C 
BRANCH  32  33
HETATM   33  O2  UNL     1      25.140  -0.924  53.072  1.00  0.00    -0.349 OA
HETATM   34  H28 UNL     1      24.455  -0.292  52.630  1.00  0.00     0.219 HD
ENDBRANCH  32  33
ENDBRANCH  22  23
ENDBRANCH  21  22
ENDBRANCH  18  20
ENDBRANCH   1  18
TORSDOF 8
ENDMDL
MODEL 6
REMARK VINA RESULT:      -7.6      4.698      6.236
REMARK  8 active torsions:
REMARK  status: ('A' for Active; 'I' for Inactive)
REMARK    1  A    between atoms: N2_13  and  C11_14 
REMARK    2  A    between atoms: C11_14  and  C12_15 
REMARK    3  A    between atoms: C12_15  and  C13_16 
REMARK    4  A    between atoms: C13_16  and  P1_17 
REMARK    5  A    between atoms: P1_17  and  C14_18 
REMARK    6  A    between atoms: C15_19  and  C16_20 
REMARK    7  A    between atoms: C16_20  and  N3_21 
REMARK    8  A    between atoms: C22_29  and  O2_30 
ROOT
HETATM    1  C13 UNL     1      27.753   5.113  48.664  1.00  0.00     0.005 C 
ENDROOT
BRANCH   1   2
HETATM    2  C12 UNL     1      28.719   5.777  48.085  1.00  0.00    -0.006 C 
BRANCH   2   3
HETATM    3  C11 UNL     1      29.611   6.671  47.355  1.00  0.00     0.153 C 
BRANCH   3   4
HETATM    4  N2  UNL     1      30.986   6.650  47.740  1.00  0.00    -0.350 N 
HETATM    5  C2  UNL     1      31.373   7.757  48.619  1.00  0.00     0.101 C 
HETATM    6  C1  UNL     1      32.002   7.255  49.885  1.00  0.00     0.063 C 
HETATM    7  C3  UNL     1      30.273   8.696  48.949  1.00  0.00     0.063 C 
HETATM    8  N1  UNL     1      32.441   8.425  47.839  1.00  0.00    -0.331 N 
HETATM    9  C4  UNL     1      33.529   7.554  47.462  1.00  0.00     0.255 C 
HETATM   10  H7  UNL     1      32.595   9.411  47.487  1.00  0.00     0.165 HD
HETATM   11  O1  UNL     1      34.743   7.887  47.301  1.00  0.00    -0.268 OA
HETATM   12  C5  UNL     1      33.272   6.119  47.226  1.00  0.00     0.058 A 
HETATM   13  C6  UNL     1      34.197   5.166  46.881  1.00  0.00     0.019 A 
HETATM   14  C10 UNL     1      31.966   5.689  47.379  1.00  0.00     0.048 A 
HETATM   15  C7  UNL     1      33.774   3.850  46.711  1.00  0.00     0.001 A 
HETATM   16  C8  UNL     1      32.454   3.450  46.874  1.00  0.00     0.002 A 
HETATM   17  C9  UNL     1      31.491   4.396  47.225  1.00  0.00     0.030 A 
ENDBRANCH   3   4
ENDBRANCH   2   3
ENDBRANCH   1   2
BRANCH   1  18
HETATM   18  P1  UNL     1      26.194   4.693  49.455  1.00  0.00    -0.083 P 
HETATM   19  H16 UNL     1      25.043   4.915  48.569  1.00  0.00     0.066 HD
BRANCH  18  20
HETATM   20  C14 UNL     1      26.250   2.908  49.954  1.00  0.00     0.005 C 
HETATM   21  C15 UNL     1      25.522   2.509  51.026  1.00  0.00    -0.006 C 
BRANCH  21  22
HETATM   22  C16 UNL     1      25.236   1.297  51.780  1.00  0.00     0.153 C 
BRANCH  22  23
HETATM   23  N3  UNL     1      26.146   0.981  52.865  1.00  0.00    -0.345 N 
HETATM   24  C17 UNL     1      26.609   2.185  53.511  1.00  0.00     0.249 C 
HETATM   25  N4  UNL     1      27.692   1.933  54.450  1.00  0.00    -0.368 N 
HETATM   26  C18 UNL     1      28.813   1.508  53.662  1.00  0.00     0.203 C 
HETATM   27  H23 UNL     1      28.366   1.796  55.232  1.00  0.00     0.161 HD
HETATM   28  N5  UNL     1      29.713   0.774  53.134  1.00  0.00    -0.257 NA
HETATM   29  C19 UNL     1      29.875  -0.598  53.365  1.00  0.00     0.114 C 
HETATM   30  C20 UNL     1      28.795  -1.396  53.426  1.00  0.00     0.006 C 
HETATM   31  C21 UNL     1      27.715  -0.469  53.203  1.00  0.00     0.100 C 
HETATM   32  C22 UNL     1      26.406  -0.430  53.114  1.00  0.00     0.124 C 
BRANCH  32  33
HETATM   33  O2  UNL     1      25.116  -1.024  53.132  1.00  0.00    -0.349 OA
HETATM   34  H28 UNL     1      25.000  -1.660  53.936  1.00  0.00     0.219 HD
ENDBRANCH  32  33
ENDBRANCH  22  23
ENDBRANCH  21  22
ENDBRANCH  18  20
ENDBRANCH   1  18
TORSDOF 8
ENDMDL
MODEL 7
REMARK VINA RESULT:      -7.5      1.801      2.414
REMARK  8 active torsions:
REMARK  status: ('A' for Active; 'I' for Inactive)
REMARK    1  A    between atoms: N2_13  and  C11_14 
REMARK    2  A    between atoms: C11_14  and  C12_15 
REMARK    3  A    between atoms: C12_15  and  C13_16 
REMARK    4  A    between atoms: C13_16  and  P1_17 
REMARK    5  A    between atoms: P1_17  and  C14_18 
REMARK    6  A    between atoms: C15_19  and  C16_20 
REMARK    7  A    between atoms: C16_20  and  N3_21 
REMARK    8  A    between atoms: C22_29  and  O2_30 
ROOT
HETATM    1  C13 UNL     1      22.740   3.499  48.408  1.00  0.00     0.005 C 
ENDROOT
BRANCH   1   2
HETATM    2  C12 UNL     1      22.978   4.742  48.733  1.00  0.00    -0.006 C 
BRANCH   2   3
HETATM    3  C11 UNL     1      23.093   6.084  49.296  1.00  0.00     0.153 C 
BRANCH   3   4
HETATM    4  N2  UNL     1      24.349   6.741  49.122  1.00  0.00    -0.350 N 
HETATM    5  C2  UNL     1      24.267   8.203  49.175  1.00  0.00     0.101 C 
HETATM    6  C1  UNL     1      25.200   8.766  50.206  1.00  0.00     0.063 C 
HETATM    7  C3  UNL     1      22.900   8.736  49.396  1.00  0.00     0.063 C 
HETATM    8  N1  UNL     1      24.796   8.599  47.848  1.00  0.00    -0.331 N 
HETATM    9  C4  UNL     1      26.114   8.086  47.561  1.00  0.00     0.255 C 
HETATM   10  H7  UNL     1      24.424   9.182  47.047  1.00  0.00     0.165 HD
HETATM   11  O1  UNL     1      26.999   8.637  46.839  1.00  0.00    -0.268 OA
HETATM   12  C5  UNL     1      26.538   6.792  48.135  1.00  0.00     0.058 A 
HETATM   13  C6  UNL     1      27.757   6.183  47.970  1.00  0.00     0.019 A 
HETATM   14  C10 UNL     1      25.617   6.134  48.929  1.00  0.00     0.048 A 
HETATM   15  C7  UNL     1      27.988   4.964  48.601  1.00  0.00     0.001 A 
HETATM   16  C8  UNL     1      27.042   4.328  49.395  1.00  0.00     0.002 A 
HETATM   17  C9  UNL     1      25.794   4.924  49.581  1.00  0.00     0.030 A 
ENDBRANCH   3   4
ENDBRANCH   2   3
ENDBRANCH   1   2
BRANCH   1  18
HETATM   18  P1  UNL     1      21.910   1.989  47.893  1.00  0.00    -0.083 P 
HETATM   19  H16 UNL     1      22.763   1.149  47.040  1.00  0.00     0.066 HD
BRANCH  18  20
HETATM   20  C14 UNL     1      21.430   1.038  49.409  1.00  0.00     0.005 C 
HETATM   21  C15 UNL     1      22.107   1.265  50.563  1.00  0.00    -0.006 C 
BRANCH  21  22
HETATM   22  C16 UNL     1      22.119   0.813  51.946  1.00  0.00     0.153 C 
BRANCH  22  23
HETATM   23  N3  UNL     1      23.317   1.108  52.710  1.00  0.00    -0.345 N 
HETATM   24  C17 UNL     1      23.620   2.517  52.666  1.00  0.00     0.249 C 
HETATM   25  N4  UNL     1      24.929   2.825  53.223  1.00  0.00    -0.368 N 
HETATM   26  C18 UNL     1      25.890   2.234  52.337  1.00  0.00     0.203 C 
HETATM   27  H23 UNL     1      25.786   3.119  53.734  1.00  0.00     0.161 HD
HETATM   28  N5  UNL     1      26.782   1.454  51.865  1.00  0.00    -0.257 NA
HETATM   29  C19 UNL     1      27.321   0.347  52.532  1.00  0.00     0.114 C 
HETATM   30  C20 UNL     1      26.516  -0.466  53.237  1.00  0.00     0.006 C 
HETATM   31  C21 UNL     1      25.223   0.141  53.044  1.00  0.00     0.100 C 
HETATM   32  C22 UNL     1      23.963  -0.015  53.376  1.00  0.00     0.124 C 
BRANCH  32  33
HETATM   33  O2  UNL     1      22.900  -0.688  54.035  1.00  0.00    -0.349 OA
HETATM   34  H28 UNL     1      22.226  -1.087  53.364  1.00  0.00     0.219 HD
ENDBRANCH  32  33
ENDBRANCH  22  23
ENDBRANCH  21  22
ENDBRANCH  18  20
ENDBRANCH   1  18
TORSDOF 8
ENDMDL
MODEL 8
REMARK VINA RESULT:      -7.5      3.791      8.580
REMARK  8 active torsions:
REMARK  status: ('A' for Active; 'I' for Inactive)
REMARK    1  A    between atoms: N2_13  and  C11_14 
REMARK    2  A    between atoms: C11_14  and  C12_15 
REMARK    3  A    between atoms: C12_15  and  C13_16 
REMARK    4  A    between atoms: C13_16  and  P1_17 
REMARK    5  A    between atoms: P1_17  and  C14_18 
REMARK    6  A    between atoms: C15_19  and  C16_20 
REMARK    7  A    between atoms: C16_20  and  N3_21 
REMARK    8  A    between atoms: C22_29  and  O2_30 
ROOT
HETATM    1  C13 UNL     1      26.189   4.322  49.714  1.00  0.00     0.005 C 
ENDROOT
BRANCH   1   2
HETATM    2  C12 UNL     1      26.236   3.133  50.255  1.00  0.00    -0.006 C 
BRANCH   2   3
HETATM    3  C11 UNL     1      26.532   1.806  50.785  1.00  0.00     0.153 C 
BRANCH   3   4
HETATM    4  N2  UNL     1      25.875   1.445  52.000  1.00  0.00    -0.350 N 
HETATM    5  C2  UNL     1      26.707   1.606  53.196  1.00  0.00     0.101 C 
HETATM    6  C1  UNL     1      26.037   2.481  54.214  1.00  0.00     0.063 C 
HETATM    7  C3  UNL     1      28.077   2.112  52.930  1.00  0.00     0.063 C 
HETATM    8  N1  UNL     1      26.734   0.233  53.752  1.00  0.00    -0.331 N 
HETATM    9  C4  UNL     1      25.427  -0.326  54.006  1.00  0.00     0.255 C 
HETATM   10  H7  UNL     1      27.503  -0.445  54.012  1.00  0.00     0.165 HD
HETATM   11  O1  UNL     1      25.126  -1.162  54.911  1.00  0.00    -0.268 OA
HETATM   12  C5  UNL     1      24.282   0.075  53.163  1.00  0.00     0.058 A 
HETATM   13  C6  UNL     1      22.984  -0.352  53.289  1.00  0.00     0.019 A 
HETATM   14  C10 UNL     1      24.543   0.982  52.152  1.00  0.00     0.048 A 
HETATM   15  C7  UNL     1      22.026   0.145  52.408  1.00  0.00     0.001 A 
HETATM   16  C8  UNL     1      22.320   1.058  51.403  1.00  0.00     0.002 A 
HETATM   17  C9  UNL     1      23.631   1.509  51.252  1.00  0.00     0.030 A 
ENDBRANCH   3   4
ENDBRANCH   2   3
ENDBRANCH   1   2
BRANCH   1  18
HETATM   18  P1  UNL     1      25.711   6.011  49.322  1.00  0.00    -0.083 P 
HETATM   19  H16 UNL     1      25.349   6.779  50.522  1.00  0.00     0.066 HD
BRANCH  18  20
HETATM   20  C14 UNL     1      27.131   6.839  48.466  1.00  0.00     0.005 C 
HETATM   21  C15 UNL     1      27.405   8.134  48.765  1.00  0.00    -0.006 C 
BRANCH  21  22
HETATM   22  C16 UNL     1      28.352   9.177  48.399  1.00  0.00     0.153 C 
BRANCH  22  23
HETATM   23  N3  UNL     1      29.718   8.753  48.158  1.00  0.00    -0.345 N 
HETATM   24  C17 UNL     1      29.967   8.603  46.745  1.00  0.00     0.249 C 
HETATM   25  N4  UNL     1      31.245   7.964  46.468  1.00  0.00    -0.368 N 
HETATM   26  C18 UNL     1      31.130   6.616  46.945  1.00  0.00     0.203 C 
HETATM   27  H23 UNL     1      32.201   7.644  46.208  1.00  0.00     0.161 HD
HETATM   28  N5  UNL     1      31.279   5.566  47.655  1.00  0.00    -0.257 NA
HETATM   29  C19 UNL     1      32.063   5.478  48.812  1.00  0.00     0.114 C 
HETATM   30  C20 UNL     1      32.045   6.479  49.709  1.00  0.00     0.006 C 
HETATM   31  C21 UNL     1      31.117   7.408  49.113  1.00  0.00     0.100 C 
HETATM   32  C22 UNL     1      30.568   8.580  49.328  1.00  0.00     0.124 C 
BRANCH  32  33
HETATM   33  O2  UNL     1      30.361   9.763  50.087  1.00  0.00    -0.349 OA
HETATM   34  H28 UNL     1      29.466  10.217  49.848  1.00  0.00     0.219 HD
ENDBRANCH  32  33
ENDBRANCH  22  23
ENDBRANCH  21  22
ENDBRANCH  18  20
ENDBRANCH   1  18
TORSDOF 8
ENDMDL
MODEL 9
REMARK VINA RESULT:      -7.4      3.713      8.396
REMARK  8 active torsions:
REMARK  status: ('A' for Active; 'I' for Inactive)
REMARK    1  A    between atoms: N2_13  and  C11_14 
REMARK    2  A    between atoms: C11_14  and  C12_15 
REMARK    3  A    between atoms: C12_15  and  C13_16 
REMARK    4  A    between atoms: C13_16  and  P1_17 
REMARK    5  A    between atoms: P1_17  and  C14_18 
REMARK    6  A    between atoms: C15_19  and  C16_20 
REMARK    7  A    between atoms: C16_20  and  N3_21 
REMARK    8  A    between atoms: C22_29  and  O2_30 
ROOT
HETATM    1  C13 UNL     1      25.481   4.536  50.176  1.00  0.00     0.005 C 
ENDROOT
BRANCH   1   2
HETATM    2  C12 UNL     1      24.544   4.067  50.957  1.00  0.00    -0.006 C 
BRANCH   2   3
HETATM    3  C11 UNL     1      23.640   3.636  52.019  1.00  0.00     0.153 C 
BRANCH   3   4
HETATM    4  N2  UNL     1      23.415   2.230  52.130  1.00  0.00    -0.350 N 
HETATM    5  C2  UNL     1      22.020   1.833  51.918  1.00  0.00     0.101 C 
HETATM    6  C1  UNL     1      21.905   0.797  50.839  1.00  0.00     0.063 C 
HETATM    7  C3  UNL     1      21.097   2.958  51.628  1.00  0.00     0.063 C 
HETATM    8  N1  UNL     1      21.681   1.168  53.197  1.00  0.00    -0.331 N 
HETATM    9  C4  UNL     1      22.563   0.080  53.549  1.00  0.00     0.255 C 
HETATM   10  H7  UNL     1      20.927   1.306  53.927  1.00  0.00     0.165 HD
HETATM   11  O1  UNL     1      22.258  -0.956  54.214  1.00  0.00    -0.268 OA
HETATM   12  C5  UNL     1      23.977   0.116  53.123  1.00  0.00     0.058 A 
HETATM   13  C6  UNL     1      24.929  -0.842  53.363  1.00  0.00     0.019 A 
HETATM   14  C10 UNL     1      24.379   1.224  52.398  1.00  0.00     0.048 A 
HETATM   15  C7  UNL     1      26.217  -0.646  52.871  1.00  0.00     0.001 A 
HETATM   16  C8  UNL     1      26.589   0.478  52.143  1.00  0.00     0.002 A 
HETATM   17  C9  UNL     1      25.642   1.468  51.884  1.00  0.00     0.030 A 
ENDBRANCH   3   4
ENDBRANCH   2   3
ENDBRANCH   1   2
BRANCH   1  18
HETATM   18  P1  UNL     1      26.863   4.648  49.032  1.00  0.00    -0.083 P 
HETATM   19  H16 UNL     1      26.719   3.730  47.893  1.00  0.00     0.066 HD
BRANCH  18  20
HETATM   20  C14 UNL     1      26.968   6.390  48.407  1.00  0.00     0.005 C 
HETATM   21  C15 UNL     1      26.359   7.374  49.116  1.00  0.00    -0.006 C 
BRANCH  21  22
HETATM   22  C16 UNL     1      26.158   8.815  49.062  1.00  0.00     0.153 C 
BRANCH  22  23
HETATM   23  N3  UNL     1      27.345   9.624  48.861  1.00  0.00    -0.345 N 
HETATM   24  C17 UNL     1      27.263  10.355  47.620  1.00  0.00     0.249 C 
HETATM   25  N4  UNL     1      28.519  11.000  47.267  1.00  0.00    -0.368 N 
HETATM   26  C18 UNL     1      29.446   9.941  46.986  1.00  0.00     0.203 C 
HETATM   27  H23 UNL     1      29.342  11.594  47.037  1.00  0.00     0.161 HD
HETATM   28  N5  UNL     1      30.423   9.127  47.093  1.00  0.00    -0.257 NA
HETATM   29  C19 UNL     1      31.329   9.089  48.160  1.00  0.00     0.114 C 
HETATM   30  C20 UNL     1      30.884   9.233  49.420  1.00  0.00     0.006 C 
HETATM   31  C21 UNL     1      29.464   9.392  49.227  1.00  0.00     0.100 C 
HETATM   32  C22 UNL     1      28.357   9.578  49.907  1.00  0.00     0.124 C 
BRANCH  32  33
HETATM   33  O2  UNL     1      27.623   9.757  51.110  1.00  0.00    -0.349 OA
HETATM   34  H28 UNL     1      26.870   9.059  51.206  1.00  0.00     0.219 HD
ENDBRANCH  32  33
ENDBRANCH  22  23
ENDBRANCH  21  22
ENDBRANCH  18  20
ENDBRANCH   1  18
TORSDOF 8
ENDMDL
