MODEL 1
REMARK VINA RESULT:      -8.7      0.000      0.000
REMARK  5 active torsions:
REMARK  status: ('A' for Active; 'I' for Inactive)
REMARK    1  A    between atoms: N1_1  and  O1_2 
REMARK    2  A    between atoms: O1_2  and  C1_3 
REMARK    3  A    between atoms: C9_13  and  C10_14 
REMARK    4  A    between atoms: C10_14  and  C11_15 
REMARK    5  A    between atoms: C11_15  and  C12_17 
ROOT
HETATM    1  C1  UNL     1      23.131   4.696  51.880  1.00  0.00     0.211 C 
HETATM    2  C2  UNL     1      22.198   4.240  51.062  1.00  0.00     0.111 C 
HETATM    3  S1  UNL     1      21.174   2.808  50.903  1.00  0.00    -0.097 SA
HETATM    4  C3  UNL     1      21.528   1.553  52.123  1.00  0.00     0.016 A 
HETATM    5  C4  UNL     1      20.356   0.832  52.303  1.00  0.00     0.061 A 
HETATM    6  C5  UNL     1      20.304  -0.217  53.190  1.00  0.00     0.117 A 
HETATM    7  F1  UNL     1      19.176  -0.950  53.395  1.00  0.00    -0.206 F 
HETATM    8  C6  UNL     1      21.427  -0.587  53.936  1.00  0.00     0.043 A 
HETATM    9  C7  UNL     1      22.568   0.168  53.714  1.00  0.00     0.014 A 
HETATM   10  C8  UNL     1      22.665   1.229  52.835  1.00  0.00    -0.014 A 
HETATM   11  C9  UNL     1      24.032   1.737  52.913  1.00  0.00     0.171 C 
HETATM   12  N3  UNL     1      24.119   3.078  53.444  1.00  0.00    -0.180 NA
HETATM   13  N4  UNL     1      23.776   4.234  53.059  1.00  0.00    -0.127 NA
ENDROOT
BRANCH  11  14
HETATM   14  C10 UNL     1      24.798   1.694  51.637  1.00  0.00     0.093 C 
BRANCH  14  15
HETATM   15  C11 UNL     1      26.208   2.126  51.740  1.00  0.00     0.038 C 
HETATM   16  N2  UNL     1      26.446   3.306  51.274  1.00  0.00    -0.304 NA
HETATM   17  H10 UNL     1      27.429   3.649  51.327  1.00  0.00     0.186 HD
BRANCH  15  18
HETATM   18  C12 UNL     1      27.164   1.205  52.340  1.00  0.00    -0.012 A 
HETATM   19  C13 UNL     1      28.282   1.648  53.026  1.00  0.00     0.015 A 
HETATM   20  C14 UNL     1      29.157   0.740  53.577  1.00  0.00     0.024 A 
HETATM   21  C15 UNL     1      28.984  -0.626  53.486  1.00  0.00     0.034 A 
HETATM   22 CL1  UNL     1      30.203  -1.622  54.250  1.00  0.00    -0.084 Cl
HETATM   23  C16 UNL     1      27.879  -1.081  52.808  1.00  0.00     0.024 A 
HETATM   24  C17 UNL     1      27.009  -0.161  52.260  1.00  0.00     0.015 A 
ENDBRANCH  15  18
ENDBRANCH  14  15
ENDBRANCH  11  14
BRANCH   1  25
HETATM   25  O1  UNL     1      23.478   5.945  51.330  1.00  0.00    -0.244 OA
BRANCH  25  26
HETATM   26  N1  UNL     1      24.349   6.754  51.996  1.00  0.00    -0.207 NA
HETATM   27  H1  UNL     1      25.283   6.315  52.102  1.00  0.00     0.151 HD
HETATM   28  H2  UNL     1      24.402   7.690  51.543  1.00  0.00     0.151 HD
ENDBRANCH  25  26
ENDBRANCH   1  25
TORSDOF 5
ENDMDL
MODEL 2
REMARK VINA RESULT:      -8.4      3.548      5.028
REMARK  5 active torsions:
REMARK  status: ('A' for Active; 'I' for Inactive)
REMARK    1  A    between atoms: N1_1  and  O1_2 
REMARK    2  A    between atoms: O1_2  and  C1_3 
REMARK    3  A    between atoms: C9_13  and  C10_14 
REMARK    4  A    between atoms: C10_14  and  C11_15 
REMARK    5  A    between atoms: C11_15  and  C12_17 
ROOT
HETATM    1  C1  UNL     1      21.656   4.008  51.121  1.00  0.00     0.211 C 
HETATM    2  C2  UNL     1      22.122   5.211  51.405  1.00  0.00     0.111 C 
HETATM    3  S1  UNL     1      23.601   6.144  51.145  1.00  0.00    -0.097 SA
HETATM    4  C3  UNL     1      24.894   5.203  50.351  1.00  0.00     0.016 A 
HETATM    5  C4  UNL     1      25.690   6.114  49.672  1.00  0.00     0.061 A 
HETATM    6  C5  UNL     1      26.784   5.695  48.953  1.00  0.00     0.117 A 
HETATM    7  F1  UNL     1      27.590   6.555  48.274  1.00  0.00    -0.206 F 
HETATM    8  C6  UNL     1      27.127   4.341  48.884  1.00  0.00     0.043 A 
HETATM    9  C7  UNL     1      26.296   3.478  49.582  1.00  0.00     0.014 A 
HETATM   10  C8  UNL     1      25.189   3.855  50.316  1.00  0.00    -0.014 A 
HETATM   11  C9  UNL     1      24.607   2.641  50.883  1.00  0.00     0.171 C 
HETATM   12  N3  UNL     1      23.293   2.337  50.367  1.00  0.00    -0.180 NA
HETATM   13  N4  UNL     1      22.139   2.853  50.449  1.00  0.00    -0.127 NA
ENDROOT
BRANCH  11  14
HETATM   14  C10 UNL     1      24.541   2.605  52.369  1.00  0.00     0.093 C 
BRANCH  14  15
HETATM   15  C11 UNL     1      24.624   1.255  52.967  1.00  0.00     0.038 C 
HETATM   16  N2  UNL     1      23.484   0.721  53.254  1.00  0.00    -0.304 NA
HETATM   17  H10 UNL     1      23.498  -0.232  53.677  1.00  0.00     0.186 HD
BRANCH  15  18
HETATM   18  C12 UNL     1      25.946   0.675  53.166  1.00  0.00    -0.012 A 
HETATM   19  C13 UNL     1      26.257  -0.607  52.747  1.00  0.00     0.015 A 
HETATM   20  C14 UNL     1      27.520  -1.112  52.956  1.00  0.00     0.024 A 
HETATM   21  C15 UNL     1      28.525  -0.399  53.578  1.00  0.00     0.034 A 
HETATM   22 CL1  UNL     1      30.066  -1.210  53.755  1.00  0.00    -0.084 Cl
HETATM   23  C16 UNL     1      28.231   0.875  53.999  1.00  0.00     0.024 A 
HETATM   24  C17 UNL     1      26.961   1.370  53.783  1.00  0.00     0.015 A 
ENDBRANCH  15  18
ENDBRANCH  14  15
ENDBRANCH  11  14
BRANCH   1  25
HETATM   25  O1  UNL     1      20.363   4.008  51.677  1.00  0.00    -0.244 OA
BRANCH  25  26
HETATM   26  N1  UNL     1      20.054   3.123  52.666  1.00  0.00    -0.207 NA
HETATM   27  H1  UNL     1      19.522   2.309  52.304  1.00  0.00     0.151 HD
HETATM   28  H2  UNL     1      20.910   2.837  53.185  1.00  0.00     0.151 HD
ENDBRANCH  25  26
ENDBRANCH   1  25
TORSDOF 5
ENDMDL
MODEL 3
REMARK VINA RESULT:      -7.9      3.901      5.232
REMARK  5 active torsions:
REMARK  status: ('A' for Active; 'I' for Inactive)
REMARK    1  A    between atoms: N1_1  and  O1_2 
REMARK    2  A    between atoms: O1_2  and  C1_3 
REMARK    3  A    between atoms: C9_13  and  C10_14 
REMARK    4  A    between atoms: C10_14  and  C11_15 
REMARK    5  A    between atoms: C11_15  and  C12_17 
ROOT
HETATM    1  C1  UNL     1      21.110   3.512  51.887  1.00  0.00     0.211 C 
HETATM    2  C2  UNL     1      20.998   2.204  51.740  1.00  0.00     0.111 C 
HETATM    3  S1  UNL     1      21.974   0.759  52.029  1.00  0.00    -0.097 SA
HETATM    4  C3  UNL     1      23.624   1.130  52.602  1.00  0.00     0.016 A 
HETATM    5  C4  UNL     1      24.042   0.036  53.346  1.00  0.00     0.061 A 
HETATM    6  C5  UNL     1      25.286   0.016  53.930  1.00  0.00     0.117 A 
HETATM    7  F1  UNL     1      25.734  -1.037  54.666  1.00  0.00    -0.206 F 
HETATM    8  C6  UNL     1      26.166   1.094  53.792  1.00  0.00     0.043 A 
HETATM    9  C7  UNL     1      25.694   2.157  53.039  1.00  0.00     0.014 A 
HETATM   10  C8  UNL     1      24.454   2.220  52.436  1.00  0.00    -0.014 A 
HETATM   11  C9  UNL     1      24.368   3.507  51.748  1.00  0.00     0.171 C 
HETATM   12  N3  UNL     1      23.368   4.390  52.300  1.00  0.00    -0.180 NA
HETATM   13  N4  UNL     1      22.103   4.409  52.364  1.00  0.00    -0.127 NA
ENDROOT
BRANCH  11  14
HETATM   14  C10 UNL     1      24.151   3.425  50.277  1.00  0.00     0.093 C 
BRANCH  14  15
HETATM   15  C11 UNL     1      24.232   4.715  49.561  1.00  0.00     0.038 C 
HETATM   16  N2  UNL     1      23.102   5.322  49.413  1.00  0.00    -0.304 NA
HETATM   17  H10 UNL     1      23.115   6.237  48.913  1.00  0.00     0.186 HD
BRANCH  15  18
HETATM   18  C12 UNL     1      25.541   5.164  49.105  1.00  0.00    -0.012 A 
HETATM   19  C13 UNL     1      26.654   4.341  49.138  1.00  0.00     0.015 A 
HETATM   20  C14 UNL     1      27.870   4.809  48.695  1.00  0.00     0.024 A 
HETATM   21  C15 UNL     1      28.056   6.086  48.208  1.00  0.00     0.034 A 
HETATM   22 CL1  UNL     1      29.676   6.500  47.692  1.00  0.00    -0.084 Cl
HETATM   23  C16 UNL     1      26.960   6.915  48.169  1.00  0.00     0.024 A 
HETATM   24  C17 UNL     1      25.746   6.435  48.615  1.00  0.00     0.015 A 
ENDBRANCH  15  18
ENDBRANCH  14  15
ENDBRANCH  11  14
BRANCH   1  25
HETATM   25  O1  UNL     1      19.879   4.010  51.420  1.00  0.00    -0.244 OA
BRANCH  25  26
HETATM   26  N1  UNL     1      18.720   3.611  52.017  1.00  0.00    -0.207 NA
HETATM   27  H1  UNL     1      17.886   3.879  51.462  1.00  0.00     0.151 HD
HETATM   28  H2  UNL     1      18.745   2.592  52.226  1.00  0.00     0.151 HD
ENDBRANCH  25  26
ENDBRANCH   1  25
TORSDOF 5
ENDMDL
MODEL 4
REMARK VINA RESULT:      -7.8      3.684      4.908
REMARK  5 active torsions:
REMARK  status: ('A' for Active; 'I' for Inactive)
REMARK    1  A    between atoms: N1_1  and  O1_2 
REMARK    2  A    between atoms: O1_2  and  C1_3 
REMARK    3  A    between atoms: C9_13  and  C10_14 
REMARK    4  A    between atoms: C10_14  and  C11_15 
REMARK    5  A    between atoms: C11_15  and  C12_17 
ROOT
HETATM    1  C1  UNL     1      22.174   4.778  51.910  1.00  0.00     0.211 C 
HETATM    2  C2  UNL     1      21.292   3.954  51.372  1.00  0.00     0.111 C 
HETATM    3  S1  UNL     1      20.972   2.217  51.326  1.00  0.00    -0.097 SA
HETATM    4  C3  UNL     1      22.220   1.251  52.161  1.00  0.00     0.016 A 
HETATM    5  C4  UNL     1      21.600   0.086  52.590  1.00  0.00     0.061 A 
HETATM    6  C5  UNL     1      22.305  -0.876  53.275  1.00  0.00     0.117 A 
HETATM    7  F1  UNL     1      21.736  -2.031  53.712  1.00  0.00    -0.206 F 
HETATM    8  C6  UNL     1      23.664  -0.709  53.559  1.00  0.00     0.043 A 
HETATM    9  C7  UNL     1      24.228   0.473  53.106  1.00  0.00     0.014 A 
HETATM   10  C8  UNL     1      23.559   1.464  52.416  1.00  0.00    -0.014 A 
HETATM   11  C9  UNL     1      24.523   2.526  52.133  1.00  0.00     0.171 C 
HETATM   12  N3  UNL     1      24.226   3.768  52.809  1.00  0.00    -0.180 NA
HETATM   13  N4  UNL     1      23.323   4.652  52.737  1.00  0.00    -0.127 NA
ENDROOT
BRANCH  11  14
HETATM   14  C10 UNL     1      24.731   2.823  50.690  1.00  0.00     0.093 C 
BRANCH  14  15
HETATM   15  C11 UNL     1      25.906   3.669  50.389  1.00  0.00     0.038 C 
HETATM   16  N2  UNL     1      27.007   3.278  50.937  1.00  0.00    -0.304 NA
HETATM   17  H10 UNL     1      27.861   3.848  50.749  1.00  0.00     0.186 HD
BRANCH  15  18
HETATM   18  C12 UNL     1      25.711   4.829  49.528  1.00  0.00    -0.012 A 
HETATM   19  C13 UNL     1      26.775   5.546  49.009  1.00  0.00     0.015 A 
HETATM   20  C14 UNL     1      26.543   6.634  48.199  1.00  0.00     0.024 A 
HETATM   21  C15 UNL     1      25.277   7.069  47.863  1.00  0.00     0.034 A 
HETATM   22 CL1  UNL     1      25.181   8.472  46.822  1.00  0.00    -0.084 Cl
HETATM   23  C16 UNL     1      24.210   6.367  48.371  1.00  0.00     0.024 A 
HETATM   24  C17 UNL     1      24.456   5.278  49.182  1.00  0.00     0.015 A 
ENDBRANCH  15  18
ENDBRANCH  14  15
ENDBRANCH  11  14
BRANCH   1  25
HETATM   25  O1  UNL     1      21.753   6.050  51.479  1.00  0.00    -0.244 OA
BRANCH  25  26
HETATM   26  N1  UNL     1      20.990   6.163  50.355  1.00  0.00    -0.207 NA
HETATM   27  H1  UNL     1      21.180   7.046  49.846  1.00  0.00     0.151 HD
HETATM   28  H2  UNL     1      21.101   5.324  49.749  1.00  0.00     0.151 HD
ENDBRANCH  25  26
ENDBRANCH   1  25
TORSDOF 5
ENDMDL
MODEL 5
REMARK VINA RESULT:      -7.8      4.303      6.201
REMARK  5 active torsions:
REMARK  status: ('A' for Active; 'I' for Inactive)
REMARK    1  A    between atoms: N1_1  and  O1_2 
REMARK    2  A    between atoms: O1_2  and  C1_3 
REMARK    3  A    between atoms: C9_13  and  C10_14 
REMARK    4  A    between atoms: C10_14  and  C11_15 
REMARK    5  A    between atoms: C11_15  and  C12_17 
ROOT
HETATM    1  C1  UNL     1      22.975   1.567  52.909  1.00  0.00     0.211 C 
HETATM    2  C2  UNL     1      23.377   0.308  52.896  1.00  0.00     0.111 C 
HETATM    3  S1  UNL     1      24.888  -0.591  53.075  1.00  0.00    -0.097 SA
HETATM    4  C3  UNL     1      26.319   0.464  53.233  1.00  0.00     0.016 A 
HETATM    5  C4  UNL     1      27.266  -0.253  53.951  1.00  0.00     0.061 A 
HETATM    6  C5  UNL     1      28.493   0.294  54.241  1.00  0.00     0.117 A 
HETATM    7  F1  UNL     1      29.448  -0.376  54.941  1.00  0.00    -0.206 F 
HETATM    8  C6  UNL     1      28.823   1.587  53.824  1.00  0.00     0.043 A 
HETATM    9  C7  UNL     1      27.840   2.255  53.112  1.00  0.00     0.014 A 
HETATM   10  C8  UNL     1      26.595   1.745  52.798  1.00  0.00    -0.014 A 
HETATM   11  C9  UNL     1      25.880   2.772  52.046  1.00  0.00     0.171 C 
HETATM   12  N3  UNL     1      24.720   3.289  52.735  1.00  0.00    -0.180 NA
HETATM   13  N4  UNL     1      23.588   2.838  53.078  1.00  0.00    -0.127 NA
ENDROOT
BRANCH  11  14
HETATM   14  C10 UNL     1      25.463   2.377  50.673  1.00  0.00     0.093 C 
BRANCH  14  15
HETATM   15  C11 UNL     1      24.866   3.460  49.864  1.00  0.00     0.038 C 
HETATM   16  N2  UNL     1      23.582   3.399  49.743  1.00  0.00    -0.304 NA
HETATM   17  H10 UNL     1      23.121   4.146  49.179  1.00  0.00     0.186 HD
BRANCH  15  18
HETATM   18  C12 UNL     1      25.759   4.465  49.299  1.00  0.00    -0.012 A 
HETATM   19  C13 UNL     1      25.321   5.735  48.966  1.00  0.00     0.015 A 
HETATM   20  C14 UNL     1      26.201   6.650  48.437  1.00  0.00     0.024 A 
HETATM   21  C15 UNL     1      27.533   6.372  48.208  1.00  0.00     0.034 A 
HETATM   22 CL1  UNL     1      28.497   7.664  47.528  1.00  0.00    -0.084 Cl
HETATM   23  C16 UNL     1      27.983   5.115  48.534  1.00  0.00     0.024 A 
HETATM   24  C17 UNL     1      27.091   4.206  49.064  1.00  0.00     0.015 A 
ENDBRANCH  15  18
ENDBRANCH  14  15
ENDBRANCH  11  14
BRANCH   1  25
HETATM   25  O1  UNL     1      21.587   1.479  52.691  1.00  0.00    -0.244 OA
BRANCH  25  26
HETATM   26  N1  UNL     1      20.864   0.517  53.331  1.00  0.00    -0.207 NA
HETATM   27  H1  UNL     1      21.363  -0.391  53.355  1.00  0.00     0.151 HD
HETATM   28  H2  UNL     1      20.583   0.839  54.281  1.00  0.00     0.151 HD
ENDBRANCH  25  26
ENDBRANCH   1  25
TORSDOF 5
ENDMDL
MODEL 6
REMARK VINA RESULT:      -7.4      4.343      6.833
REMARK  5 active torsions:
REMARK  status: ('A' for Active; 'I' for Inactive)
REMARK    1  A    between atoms: N1_1  and  O1_2 
REMARK    2  A    between atoms: O1_2  and  C1_3 
REMARK    3  A    between atoms: C9_13  and  C10_14 
REMARK    4  A    between atoms: C10_14  and  C11_15 
REMARK    5  A    between atoms: C11_15  and  C12_17 
ROOT
HETATM    1  C1  UNL     1      26.871   2.180  51.941  1.00  0.00     0.211 C 
HETATM    2  C2  UNL     1      25.969   1.811  52.832  1.00  0.00     0.111 C 
HETATM    3  S1  UNL     1      24.234   1.478  52.887  1.00  0.00    -0.097 SA
HETATM    4  C3  UNL     1      23.407   1.805  51.339  1.00  0.00     0.016 A 
HETATM    5  C4  UNL     1      22.295   0.977  51.299  1.00  0.00     0.061 A 
HETATM    6  C5  UNL     1      21.442   0.993  50.220  1.00  0.00     0.117 A 
HETATM    7  F1  UNL     1      20.341   0.198  50.142  1.00  0.00    -0.206 F 
HETATM    8  C6  UNL     1      21.671   1.843  49.133  1.00  0.00     0.043 A 
HETATM    9  C7  UNL     1      22.795   2.647  49.229  1.00  0.00     0.014 A 
HETATM   10  C8  UNL     1      23.677   2.663  50.292  1.00  0.00    -0.014 A 
HETATM   11  C9  UNL     1      24.713   3.647  49.985  1.00  0.00     0.171 C 
HETATM   12  N3  UNL     1      26.025   3.068  49.811  1.00  0.00    -0.180 NA
HETATM   13  N4  UNL     1      26.875   2.497  50.555  1.00  0.00    -0.127 NA
ENDROOT
BRANCH  11  14
HETATM   14  C10 UNL     1      24.827   4.769  50.956  1.00  0.00     0.093 C 
BRANCH  14  15
HETATM   15  C11 UNL     1      25.026   6.103  50.351  1.00  0.00     0.038 C 
HETATM   16  N2  UNL     1      26.255   6.399  50.088  1.00  0.00    -0.304 NA
HETATM   17  H10 UNL     1      26.438   7.332  49.659  1.00  0.00     0.186 HD
BRANCH  15  18
HETATM   18  C12 UNL     1      23.849   6.929  50.114  1.00  0.00    -0.012 A 
HETATM   19  C13 UNL     1      22.617   6.632  50.670  1.00  0.00     0.015 A 
HETATM   20  C14 UNL     1      21.533   7.442  50.420  1.00  0.00     0.024 A 
HETATM   21  C15 UNL     1      21.600   8.567  49.623  1.00  0.00     0.034 A 
HETATM   22 CL1  UNL     1      20.117   9.473  49.420  1.00  0.00    -0.084 Cl
HETATM   23  C16 UNL     1      22.817   8.876  49.064  1.00  0.00     0.024 A 
HETATM   24  C17 UNL     1      23.895   8.055  49.323  1.00  0.00     0.015 A 
ENDBRANCH  15  18
ENDBRANCH  14  15
ENDBRANCH  11  14
BRANCH   1  25
HETATM   25  O1  UNL     1      28.070   2.234  52.677  1.00  0.00    -0.244 OA
BRANCH  25  26
HETATM   26  N1  UNL     1      28.058   2.729  53.947  1.00  0.00    -0.207 NA
HETATM   27  H1  UNL     1      27.126   2.631  54.392  1.00  0.00     0.151 HD
HETATM   28  H2  UNL     1      28.816   2.299  54.517  1.00  0.00     0.151 HD
ENDBRANCH  25  26
ENDBRANCH   1  25
TORSDOF 5
ENDMDL
MODEL 7
REMARK VINA RESULT:      -7.4      3.903      5.357
REMARK  5 active torsions:
REMARK  status: ('A' for Active; 'I' for Inactive)
REMARK    1  A    between atoms: N1_1  and  O1_2 
REMARK    2  A    between atoms: O1_2  and  C1_3 
REMARK    3  A    between atoms: C9_13  and  C10_14 
REMARK    4  A    between atoms: C10_14  and  C11_15 
REMARK    5  A    between atoms: C11_15  and  C12_17 
ROOT
HETATM    1  C1  UNL     1      19.403   2.466  51.985  1.00  0.00     0.211 C 
HETATM    2  C2  UNL     1      19.763   1.231  51.684  1.00  0.00     0.111 C 
HETATM    3  S1  UNL     1      21.226   0.240  51.727  1.00  0.00    -0.097 SA
HETATM    4  C3  UNL     1      22.676   1.151  52.234  1.00  0.00     0.016 A 
HETATM    5  C4  UNL     1      23.542   0.232  52.808  1.00  0.00     0.061 A 
HETATM    6  C5  UNL     1      24.762   0.627  53.304  1.00  0.00     0.117 A 
HETATM    7  F1  UNL     1      25.641  -0.242  53.873  1.00  0.00    -0.206 F 
HETATM    8  C6  UNL     1      25.165   1.965  53.244  1.00  0.00     0.043 A 
HETATM    9  C7  UNL     1      24.260   2.837  52.660  1.00  0.00     0.014 A 
HETATM   10  C8  UNL     1      23.026   2.483  52.151  1.00  0.00    -0.014 A 
HETATM   11  C9  UNL     1      22.402   3.699  51.635  1.00  0.00     0.171 C 
HETATM   12  N3  UNL     1      21.212   4.087  52.357  1.00  0.00    -0.180 NA
HETATM   13  N4  UNL     1      20.043   3.624  52.504  1.00  0.00    -0.127 NA
ENDROOT
BRANCH  11  14
HETATM   14  C10 UNL     1      22.075   3.676  50.183  1.00  0.00     0.093 C 
BRANCH  14  15
HETATM   15  C11 UNL     1      23.161   3.191  49.306  1.00  0.00     0.038 C 
HETATM   16  N2  UNL     1      22.942   2.041  48.761  1.00  0.00    -0.304 NA
HETATM   17  H10 UNL     1      23.685   1.662  48.135  1.00  0.00     0.186 HD
BRANCH  15  18
HETATM   18  C12 UNL     1      24.339   4.035  49.144  1.00  0.00    -0.012 A 
HETATM   19  C13 UNL     1      24.248   5.353  48.734  1.00  0.00     0.015 A 
HETATM   20  C14 UNL     1      25.388   6.112  48.596  1.00  0.00     0.024 A 
HETATM   21  C15 UNL     1      26.654   5.625  48.848  1.00  0.00     0.034 A 
HETATM   22 CL1  UNL     1      27.983   6.740  48.617  1.00  0.00    -0.084 Cl
HETATM   23  C16 UNL     1      26.760   4.317  49.257  1.00  0.00     0.024 A 
HETATM   24  C17 UNL     1      25.610   3.567  49.391  1.00  0.00     0.015 A 
ENDBRANCH  15  18
ENDBRANCH  14  15
ENDBRANCH  11  14
BRANCH   1  25
HETATM   25  O1  UNL     1      18.033   2.505  51.664  1.00  0.00    -0.244 OA
BRANCH  25  26
HETATM   26  N1  UNL     1      17.315   3.637  51.908  1.00  0.00    -0.207 NA
HETATM   27  H1  UNL     1      16.670   3.862  51.127  1.00  0.00     0.151 HD
HETATM   28  H2  UNL     1      16.822   3.570  52.822  1.00  0.00     0.151 HD
ENDBRANCH  25  26
ENDBRANCH   1  25
TORSDOF 5
ENDMDL
MODEL 8
REMARK VINA RESULT:      -7.4      4.251      5.749
REMARK  5 active torsions:
REMARK  status: ('A' for Active; 'I' for Inactive)
REMARK    1  A    between atoms: N1_1  and  O1_2 
REMARK    2  A    between atoms: O1_2  and  C1_3 
REMARK    3  A    between atoms: C9_13  and  C10_14 
REMARK    4  A    between atoms: C10_14  and  C11_15 
REMARK    5  A    between atoms: C11_15  and  C12_17 
ROOT
HETATM    1  C1  UNL     1      22.187   5.297  49.561  1.00  0.00     0.211 C 
HETATM    2  C2  UNL     1      22.651   6.412  50.097  1.00  0.00     0.111 C 
HETATM    3  S1  UNL     1      24.198   7.254  50.249  1.00  0.00    -0.097 SA
HETATM    4  C3  UNL     1      25.569   6.329  49.577  1.00  0.00     0.016 A 
HETATM    5  C4  UNL     1      26.525   7.259  49.193  1.00  0.00     0.061 A 
HETATM    6  C5  UNL     1      27.714   6.856  48.632  1.00  0.00     0.117 A 
HETATM    7  F1  UNL     1      28.678   7.734  48.244  1.00  0.00    -0.206 F 
HETATM    8  C6  UNL     1      27.994   5.501  48.432  1.00  0.00     0.043 A 
HETATM    9  C7  UNL     1      27.003   4.619  48.833  1.00  0.00     0.014 A 
HETATM   10  C8  UNL     1      25.796   4.980  49.400  1.00  0.00    -0.014 A 
HETATM   11  C9  UNL     1      25.056   3.749  49.668  1.00  0.00     0.171 C 
HETATM   12  N3  UNL     1      23.850   3.619  48.884  1.00  0.00    -0.180 NA
HETATM   13  N4  UNL     1      22.730   4.208  48.828  1.00  0.00    -0.127 NA
ENDROOT
BRANCH  11  14
HETATM   14  C10 UNL     1      24.704   3.521  51.097  1.00  0.00     0.093 C 
BRANCH  14  15
HETATM   15  C11 UNL     1      24.561   2.102  51.487  1.00  0.00     0.038 C 
HETATM   16  N2  UNL     1      23.423   1.572  51.187  1.00  0.00    -0.304 NA
HETATM   17  H10 UNL     1      23.281   0.572  51.446  1.00  0.00     0.186 HD
BRANCH  15  18
HETATM   18  C12 UNL     1      25.688   1.458  52.150  1.00  0.00    -0.012 A 
HETATM   19  C13 UNL     1      26.921   2.074  52.270  1.00  0.00     0.015 A 
HETATM   20  C14 UNL     1      27.956   1.427  52.907  1.00  0.00     0.024 A 
HETATM   21  C15 UNL     1      27.837   0.163  53.447  1.00  0.00     0.034 A 
HETATM   22 CL1  UNL     1      29.263  -0.497  54.217  1.00  0.00    -0.084 Cl
HETATM   23  C16 UNL     1      26.618  -0.461  53.336  1.00  0.00     0.024 A 
HETATM   24  C17 UNL     1      25.589   0.198  52.696  1.00  0.00     0.015 A 
ENDBRANCH  15  18
ENDBRANCH  14  15
ENDBRANCH  11  14
BRANCH   1  25
HETATM   25  O1  UNL     1      20.813   5.323  49.867  1.00  0.00    -0.244 OA
BRANCH  25  26
HETATM   26  N1  UNL     1      20.137   6.506  49.828  1.00  0.00    -0.207 NA
HETATM   27  H1  UNL     1      19.110   6.366  49.882  1.00  0.00     0.151 HD
HETATM   28  H2  UNL     1      20.487   7.155  50.563  1.00  0.00     0.151 HD
ENDBRANCH  25  26
ENDBRANCH   1  25
TORSDOF 5
ENDMDL
MODEL 9
REMARK VINA RESULT:      -7.3      8.456     10.830
REMARK  5 active torsions:
REMARK  status: ('A' for Active; 'I' for Inactive)
REMARK    1  A    between atoms: N1_1  and  O1_2 
REMARK    2  A    between atoms: O1_2  and  C1_3 
REMARK    3  A    between atoms: C9_13  and  C10_14 
REMARK    4  A    between atoms: C10_14  and  C11_15 
REMARK    5  A    between atoms: C11_15  and  C12_17 
ROOT
HETATM    1  C1  UNL     1      32.349   4.641  47.572  1.00  0.00     0.211 C 
HETATM    2  C2  UNL     1      32.569   5.298  46.447  1.00  0.00     0.111 C 
HETATM    3  S1  UNL     1      32.485   6.963  45.858  1.00  0.00    -0.097 SA
HETATM    4  C3  UNL     1      31.840   8.104  47.070  1.00  0.00     0.016 A 
HETATM    5  C4  UNL     1      32.374   9.348  46.769  1.00  0.00     0.061 A 
HETATM    6  C5  UNL     1      32.064  10.451  47.529  1.00  0.00     0.117 A 
HETATM    7  F1  UNL     1      32.566  11.688  47.267  1.00  0.00    -0.206 F 
HETATM    8  C6  UNL     1      31.203  10.352  48.626  1.00  0.00     0.043 A 
HETATM    9  C7  UNL     1      30.700   9.086  48.878  1.00  0.00     0.014 A 
HETATM   10  C8  UNL     1      30.984   7.952  48.143  1.00  0.00    -0.014 A 
HETATM   11  C9  UNL     1      30.251   6.843  48.748  1.00  0.00     0.171 C 
HETATM   12  N3  UNL     1      31.107   5.833  49.326  1.00  0.00    -0.180 NA
HETATM   13  N4  UNL     1      31.925   4.972  48.887  1.00  0.00    -0.127 NA
ENDROOT
BRANCH  11  14
HETATM   14  C10 UNL     1      29.275   6.165  47.851  1.00  0.00     0.093 C 
BRANCH  14  15
HETATM   15  C11 UNL     1      27.867   6.576  48.035  1.00  0.00     0.038 C 
HETATM   16  N2  UNL     1      27.600   7.778  47.644  1.00  0.00    -0.304 NA
HETATM   17  H10 UNL     1      26.617   8.107  47.756  1.00  0.00     0.186 HD
BRANCH  15  18
HETATM   18  C12 UNL     1      26.944   5.613  48.621  1.00  0.00    -0.012 A 
HETATM   19  C13 UNL     1      25.614   5.917  48.856  1.00  0.00     0.015 A 
HETATM   20  C14 UNL     1      24.779   4.975  49.410  1.00  0.00     0.024 A 
HETATM   21  C15 UNL     1      25.197   3.707  49.758  1.00  0.00     0.034 A 
HETATM   22 CL1  UNL     1      23.990   2.646  50.451  1.00  0.00    -0.084 Cl
HETATM   23  C16 UNL     1      26.515   3.390  49.531  1.00  0.00     0.024 A 
HETATM   24  C17 UNL     1      27.342   4.343  48.974  1.00  0.00     0.015 A 
ENDBRANCH  15  18
ENDBRANCH  14  15
ENDBRANCH  11  14
BRANCH   1  25
HETATM   25  O1  UNL     1      32.644   3.304  47.244  1.00  0.00    -0.244 OA
BRANCH  25  26
HETATM   26  N1  UNL     1      33.180   2.481  48.188  1.00  0.00    -0.207 NA
HETATM   27  H1  UNL     1      34.101   2.823  48.521  1.00  0.00     0.151 HD
HETATM   28  H2  UNL     1      32.509   2.329  48.969  1.00  0.00     0.151 HD
ENDBRANCH  25  26
ENDBRANCH   1  25
TORSDOF 5
ENDMDL
