MODEL 1
REMARK VINA RESULT:      -7.8      0.000      0.000
REMARK  5 active torsions:
REMARK  status: ('A' for Active; 'I' for Inactive)
REMARK    1  A    between atoms: N1_1  and  C1_2 
REMARK    2  A    between atoms: C1_2  and  O1_3 
REMARK    3  A    between atoms: O1_3  and  C2_4 
REMARK    4  A    between atoms: C2_4  and  C3_5 
REMARK    5  A    between atoms: C3_5  and  C4_6 
ROOT
HETATM    1  C4  UNL     1      26.074   0.437  53.343  1.00  0.00     0.016 C 
HETATM    2  C5  UNL     1      26.474   1.014  52.032  1.00  0.00     0.172 C 
HETATM    3  O2  UNL     1      26.568   2.423  52.085  1.00  0.00    -0.387 OA
HETATM    4  C6  UNL     1      26.480   2.931  50.767  1.00  0.00     0.194 C 
HETATM    5  C7  UNL     1      25.027   2.873  50.338  1.00  0.00    -0.005 C 
HETATM    6  C8  UNL     1      23.800   2.542  50.726  1.00  0.00    -0.027 C 
HETATM    7  C9  UNL     1      22.427   2.525  50.201  1.00  0.00     0.046 C 
HETATM    8  C10 UNL     1      21.726   1.221  50.167  1.00  0.00     0.123 C 
HETATM    9  N2  UNL     1      21.340   0.607  51.382  1.00  0.00    -0.390 N 
HETATM   10  C11 UNL     1      21.939   0.086  52.547  1.00  0.00     0.028 A 
HETATM   11  C12 UNL     1      21.273  -0.126  53.730  1.00  0.00     0.029 A 
HETATM   12  C13 UNL     1      21.895  -0.624  54.850  1.00  0.00     0.003 A 
HETATM   13  C14 UNL     1      23.218  -0.958  54.915  1.00  0.00     0.007 A 
HETATM   14  C15 UNL     1      23.975  -0.784  53.789  1.00  0.00    -0.056 A 
HETATM   15  C16 UNL     1      23.258  -0.271  52.683  1.00  0.00     0.036 A 
HETATM   16  C17 UNL     1      25.357  -0.893  53.266  1.00  0.00     0.045 C 
HETATM   17  H20 UNL     1      20.282   0.479  51.488  1.00  0.00     0.159 HD
ENDROOT
BRANCH   1  18
HETATM   18  C3  UNL     1      26.879   0.716  54.531  1.00  0.00     0.033 C 
BRANCH  18  19
HETATM   19  C2  UNL     1      28.356   0.443  54.417  1.00  0.00     0.170 C 
BRANCH  19  20
HETATM   20  O1  UNL     1      28.717  -0.872  54.562  1.00  0.00    -0.363 OA
BRANCH  20  21
HETATM   21  C1  UNL     1      29.269  -1.417  53.405  1.00  0.00     0.434 C 
BRANCH  21  22
HETATM   22  N1  UNL     1      28.958  -2.826  53.269  1.00  0.00     0.101 N 
HETATM   23  H1  UNL     1      28.093  -3.084  53.795  1.00  0.00     0.315 HD
HETATM   24  H2  UNL     1      28.813  -3.133  52.281  1.00  0.00     0.315 HD
ENDBRANCH  21  22
ENDBRANCH  20  21
ENDBRANCH  19  20
ENDBRANCH  18  19
ENDBRANCH   1  18
TORSDOF 5
ENDMDL
MODEL 2
REMARK VINA RESULT:      -7.5      2.272      2.708
REMARK  5 active torsions:
REMARK  status: ('A' for Active; 'I' for Inactive)
REMARK    1  A    between atoms: N1_1  and  C1_2 
REMARK    2  A    between atoms: C1_2  and  O1_3 
REMARK    3  A    between atoms: O1_3  and  C2_4 
REMARK    4  A    between atoms: C2_4  and  C3_5 
REMARK    5  A    between atoms: C3_5  and  C4_6 
ROOT
HETATM    1  C4  UNL     1      24.615   2.154  52.953  1.00  0.00     0.016 C 
HETATM    2  C5  UNL     1      24.171   3.199  51.991  1.00  0.00     0.172 C 
HETATM    3  O2  UNL     1      23.752   4.375  52.651  1.00  0.00    -0.387 OA
HETATM    4  C6  UNL     1      22.928   5.117  51.771  1.00  0.00     0.194 C 
HETATM    5  C7  UNL     1      21.567   4.450  51.729  1.00  0.00    -0.005 C 
HETATM    6  C8  UNL     1      20.842   3.446  52.210  1.00  0.00    -0.027 C 
HETATM    7  C9  UNL     1      19.491   2.881  52.085  1.00  0.00     0.046 C 
HETATM    8  C10 UNL     1      19.378   1.474  51.637  1.00  0.00     0.123 C 
HETATM    9  N2  UNL     1      19.806   0.434  52.496  1.00  0.00    -0.390 N 
HETATM   10  C11 UNL     1      20.992  -0.014  53.114  1.00  0.00     0.028 A 
HETATM   11  C12 UNL     1      21.025  -0.861  54.196  1.00  0.00     0.029 A 
HETATM   12  C13 UNL     1      22.202  -1.266  54.781  1.00  0.00     0.003 A 
HETATM   13  C14 UNL     1      23.445  -0.881  54.364  1.00  0.00     0.007 A 
HETATM   14  C15 UNL     1      23.523  -0.035  53.292  1.00  0.00    -0.056 A 
HETATM   15  C16 UNL     1      22.269   0.330  52.750  1.00  0.00     0.036 A 
HETATM   16  C17 UNL     1      24.481   0.730  52.459  1.00  0.00     0.045 C 
HETATM   17  H20 UNL     1      19.026  -0.240  52.786  1.00  0.00     0.159 HD
ENDROOT
BRANCH   1  18
HETATM   18  C3  UNL     1      25.684   2.454  53.903  1.00  0.00     0.033 C 
BRANCH  18  19
HETATM   19  C2  UNL     1      27.014   1.794  53.644  1.00  0.00     0.170 C 
BRANCH  19  20
HETATM   20  O1  UNL     1      27.455   0.964  54.642  1.00  0.00    -0.363 OA
BRANCH  20  21
HETATM   21  C1  UNL     1      28.841   0.830  54.667  1.00  0.00     0.434 C 
BRANCH  21  22
HETATM   22  N1  UNL     1      29.511   2.107  54.522  1.00  0.00     0.101 N 
HETATM   23  H1  UNL     1      28.883   2.828  54.102  1.00  0.00     0.315 HD
HETATM   24  H2  UNL     1      29.866   2.502  55.422  1.00  0.00     0.315 HD
ENDBRANCH  21  22
ENDBRANCH  20  21
ENDBRANCH  19  20
ENDBRANCH  18  19
ENDBRANCH   1  18
TORSDOF 5
ENDMDL
MODEL 3
REMARK VINA RESULT:      -7.5      1.793      4.121
REMARK  5 active torsions:
REMARK  status: ('A' for Active; 'I' for Inactive)
REMARK    1  A    between atoms: N1_1  and  C1_2 
REMARK    2  A    between atoms: C1_2  and  O1_3 
REMARK    3  A    between atoms: O1_3  and  C2_4 
REMARK    4  A    between atoms: C2_4  and  C3_5 
REMARK    5  A    between atoms: C3_5  and  C4_6 
ROOT
HETATM    1  C4  UNL     1      25.564   0.587  52.760  1.00  0.00     0.016 C 
HETATM    2  C5  UNL     1      24.523   0.208  53.752  1.00  0.00     0.172 C 
HETATM    3  O2  UNL     1      23.742  -0.880  53.304  1.00  0.00    -0.387 OA
HETATM    4  C6  UNL     1      22.524  -0.889  54.024  1.00  0.00     0.194 C 
HETATM    5  C7  UNL     1      21.637   0.202  53.458  1.00  0.00    -0.005 C 
HETATM    6  C8  UNL     1      21.555   1.156  52.536  1.00  0.00    -0.027 C 
HETATM    7  C9  UNL     1      20.614   2.187  52.074  1.00  0.00     0.046 C 
HETATM    8  C10 UNL     1      21.077   3.594  52.100  1.00  0.00     0.123 C 
HETATM    9  N2  UNL     1      22.083   4.012  51.198  1.00  0.00    -0.390 N 
HETATM   10  C11 UNL     1      23.433   3.730  50.906  1.00  0.00     0.028 A 
HETATM   11  C12 UNL     1      24.050   4.049  49.720  1.00  0.00     0.029 A 
HETATM   12  C13 UNL     1      25.367   3.745  49.466  1.00  0.00     0.003 A 
HETATM   13  C14 UNL     1      26.195   3.105  50.344  1.00  0.00     0.007 A 
HETATM   14  C15 UNL     1      25.678   2.741  51.557  1.00  0.00    -0.056 A 
HETATM   15  C16 UNL     1      24.320   3.092  51.737  1.00  0.00     0.036 A 
HETATM   16  C17 UNL     1      26.007   2.032  52.816  1.00  0.00     0.045 C 
HETATM   17  H20 UNL     1      21.766   4.773  50.514  1.00  0.00     0.159 HD
ENDROOT
BRANCH   1  18
HETATM   18  C3  UNL     1      26.533  -0.411  52.312  1.00  0.00     0.033 C 
BRANCH  18  19
HETATM   19  C2  UNL     1      27.944  -0.247  52.814  1.00  0.00     0.170 C 
BRANCH  19  20
HETATM   20  O1  UNL     1      28.315  -1.124  53.801  1.00  0.00    -0.363 OA
BRANCH  20  21
HETATM   21  C1  UNL     1      29.226  -2.083  53.365  1.00  0.00     0.434 C 
BRANCH  21  22
HETATM   22  N1  UNL     1      28.594  -3.368  53.142  1.00  0.00     0.101 N 
HETATM   23  H1  UNL     1      28.861  -4.063  53.875  1.00  0.00     0.315 HD
HETATM   24  H2  UNL     1      27.550  -3.328  53.129  1.00  0.00     0.315 HD
ENDBRANCH  21  22
ENDBRANCH  20  21
ENDBRANCH  19  20
ENDBRANCH  18  19
ENDBRANCH   1  18
TORSDOF 5
ENDMDL
MODEL 4
REMARK VINA RESULT:      -7.0      1.978      4.285
REMARK  5 active torsions:
REMARK  status: ('A' for Active; 'I' for Inactive)
REMARK    1  A    between atoms: N1_1  and  C1_2 
REMARK    2  A    between atoms: C1_2  and  O1_3 
REMARK    3  A    between atoms: O1_3  and  C2_4 
REMARK    4  A    between atoms: C2_4  and  C3_5 
REMARK    5  A    between atoms: C3_5  and  C4_6 
ROOT
HETATM    1  C4  UNL     1      24.029   0.892  53.249  1.00  0.00     0.016 C 
HETATM    2  C5  UNL     1      22.550   0.739  53.268  1.00  0.00     0.172 C 
HETATM    3  O2  UNL     1      22.141  -0.478  52.679  1.00  0.00    -0.387 OA
HETATM    4  C6  UNL     1      20.782  -0.363  52.301  1.00  0.00     0.194 C 
HETATM    5  C7  UNL     1      20.715   0.470  51.036  1.00  0.00    -0.005 C 
HETATM    6  C8  UNL     1      21.442   1.122  50.135  1.00  0.00    -0.027 C 
HETATM    7  C9  UNL     1      21.256   1.923  48.915  1.00  0.00     0.046 C 
HETATM    8  C10 UNL     1      21.781   3.308  48.922  1.00  0.00     0.123 C 
HETATM    9  N2  UNL     1      23.180   3.521  48.930  1.00  0.00    -0.390 N 
HETATM   10  C11 UNL     1      24.291   3.255  49.756  1.00  0.00     0.028 A 
HETATM   11  C12 UNL     1      25.596   3.271  49.324  1.00  0.00     0.029 A 
HETATM   12  C13 UNL     1      26.654   2.992  50.157  1.00  0.00     0.003 A 
HETATM   13  C14 UNL     1      26.533   2.674  51.480  1.00  0.00     0.007 A 
HETATM   14  C15 UNL     1      25.273   2.630  52.011  1.00  0.00    -0.056 A 
HETATM   15  C16 UNL     1      24.244   2.931  51.089  1.00  0.00     0.036 A 
HETATM   16  C17 UNL     1      24.525   2.322  53.253  1.00  0.00     0.045 C 
HETATM   17  H20 UNL     1      23.546   4.041  48.068  1.00  0.00     0.159 HD
ENDROOT
BRANCH   1  18
HETATM   18  C3  UNL     1      24.869  -0.128  53.874  1.00  0.00     0.033 C 
BRANCH  18  19
HETATM   19  C2  UNL     1      25.897  -0.782  52.988  1.00  0.00     0.170 C 
BRANCH  19  20
HETATM   20  O1  UNL     1      26.857  -1.506  53.647  1.00  0.00    -0.363 OA
BRANCH  20  21
HETATM   21  C1  UNL     1      27.941  -1.839  52.839  1.00  0.00     0.434 C 
BRANCH  21  22
HETATM   22  N1  UNL     1      28.411  -3.186  53.093  1.00  0.00     0.101 N 
HETATM   23  H1  UNL     1      29.014  -3.539  52.316  1.00  0.00     0.315 HD
HETATM   24  H2  UNL     1      28.967  -3.281  53.972  1.00  0.00     0.315 HD
ENDBRANCH  21  22
ENDBRANCH  20  21
ENDBRANCH  19  20
ENDBRANCH  18  19
ENDBRANCH   1  18
TORSDOF 5
ENDMDL
MODEL 5
REMARK VINA RESULT:      -6.7      2.391      4.544
REMARK  5 active torsions:
REMARK  status: ('A' for Active; 'I' for Inactive)
REMARK    1  A    between atoms: N1_1  and  C1_2 
REMARK    2  A    between atoms: C1_2  and  O1_3 
REMARK    3  A    between atoms: O1_3  and  C2_4 
REMARK    4  A    between atoms: C2_4  and  C3_5 
REMARK    5  A    between atoms: C3_5  and  C4_6 
ROOT
HETATM    1  C4  UNL     1      24.007   0.625  53.112  1.00  0.00     0.016 C 
HETATM    2  C5  UNL     1      22.965   0.136  54.055  1.00  0.00     0.172 C 
HETATM    3  O2  UNL     1      22.562  -1.184  53.753  1.00  0.00    -0.387 OA
HETATM    4  C6  UNL     1      21.296  -1.415  54.341  1.00  0.00     0.194 C 
HETATM    5  C7  UNL     1      20.251  -0.719  53.492  1.00  0.00    -0.005 C 
HETATM    6  C8  UNL     1      20.061   0.012  52.398  1.00  0.00    -0.027 C 
HETATM    7  C9  UNL     1      18.965   0.652  51.656  1.00  0.00     0.046 C 
HETATM    8  C10 UNL     1      19.043   2.118  51.454  1.00  0.00     0.123 C 
HETATM    9  N2  UNL     1      20.028   2.648  50.588  1.00  0.00    -0.390 N 
HETATM   10  C11 UNL     1      21.434   2.709  50.487  1.00  0.00     0.028 A 
HETATM   11  C12 UNL     1      22.113   2.993  49.326  1.00  0.00     0.029 A 
HETATM   12  C13 UNL     1      23.486   3.030  49.264  1.00  0.00     0.003 A 
HETATM   13  C14 UNL     1      24.315   2.795  50.325  1.00  0.00     0.007 A 
HETATM   14  C15 UNL     1      23.738   2.502  51.530  1.00  0.00    -0.056 A 
HETATM   15  C16 UNL     1      22.324   2.486  51.508  1.00  0.00     0.036 A 
HETATM   16  C17 UNL     1      24.052   2.126  52.929  1.00  0.00     0.045 C 
HETATM   17  H20 UNL     1      19.629   3.171  49.742  1.00  0.00     0.159 HD
ENDROOT
BRANCH   1  18
HETATM   18  C3  UNL     1      25.253  -0.123  52.961  1.00  0.00     0.033 C 
BRANCH  18  19
HETATM   19  C2  UNL     1      26.308   0.117  54.010  1.00  0.00     0.170 C 
BRANCH  19  20
HETATM   20  O1  UNL     1      27.577   0.307  53.525  1.00  0.00    -0.363 OA
BRANCH  20  21
HETATM   21  C1  UNL     1      27.781   1.587  53.016  1.00  0.00     0.434 C 
BRANCH  21  22
HETATM   22  N1  UNL     1      27.519   2.611  54.007  1.00  0.00     0.101 N 
HETATM   23  H1  UNL     1      27.567   3.570  53.595  1.00  0.00     0.315 HD
HETATM   24  H2  UNL     1      26.584   2.526  54.465  1.00  0.00     0.315 HD
ENDBRANCH  21  22
ENDBRANCH  20  21
ENDBRANCH  19  20
ENDBRANCH  18  19
ENDBRANCH   1  18
TORSDOF 5
ENDMDL
MODEL 6
REMARK VINA RESULT:      -6.7      3.316      7.069
REMARK  5 active torsions:
REMARK  status: ('A' for Active; 'I' for Inactive)
REMARK    1  A    between atoms: N1_1  and  C1_2 
REMARK    2  A    between atoms: C1_2  and  O1_3 
REMARK    3  A    between atoms: O1_3  and  C2_4 
REMARK    4  A    between atoms: C2_4  and  C3_5 
REMARK    5  A    between atoms: C3_5  and  C4_6 
ROOT
HETATM    1  C4  UNL     1      21.773   2.304  50.005  1.00  0.00     0.016 C 
HETATM    2  C5  UNL     1      22.011   1.096  50.839  1.00  0.00     0.172 C 
HETATM    3  O2  UNL     1      21.626   1.301  52.182  1.00  0.00    -0.387 OA
HETATM    4  C6  UNL     1      22.285   0.346  52.992  1.00  0.00     0.194 C 
HETATM    5  C7  UNL     1      23.726   0.787  53.158  1.00  0.00    -0.005 C 
HETATM    6  C8  UNL     1      24.607   1.733  52.849  1.00  0.00    -0.027 C 
HETATM    7  C9  UNL     1      26.024   2.058  53.072  1.00  0.00     0.046 C 
HETATM    8  C10 UNL     1      26.883   2.219  51.875  1.00  0.00     0.123 C 
HETATM    9  N2  UNL     1      26.690   3.336  51.027  1.00  0.00    -0.390 N 
HETATM   10  C11 UNL     1      25.688   3.881  50.198  1.00  0.00     0.028 A 
HETATM   11  C12 UNL     1      25.666   5.187  49.771  1.00  0.00     0.029 A 
HETATM   12  C13 UNL     1      24.664   5.686  48.973  1.00  0.00     0.003 A 
HETATM   13  C14 UNL     1      23.598   4.958  48.523  1.00  0.00     0.007 A 
HETATM   14  C15 UNL     1      23.524   3.644  48.893  1.00  0.00    -0.056 A 
HETATM   15  C16 UNL     1      24.595   3.210  49.711  1.00  0.00     0.036 A 
HETATM   16  C17 UNL     1      22.672   2.435  48.795  1.00  0.00     0.045 C 
HETATM   17  H20 UNL     1      27.538   3.987  50.967  1.00  0.00     0.159 HD
ENDROOT
BRANCH   1  18
HETATM   18  C3  UNL     1      20.430   2.876  49.928  1.00  0.00     0.033 C 
BRANCH  18  19
HETATM   19  C2  UNL     1      20.237   4.221  50.579  1.00  0.00     0.170 C 
BRANCH  19  20
HETATM   20  O1  UNL     1      21.027   4.455  51.676  1.00  0.00    -0.363 OA
BRANCH  20  21
HETATM   21  C1  UNL     1      21.803   5.605  51.555  1.00  0.00     0.434 C 
BRANCH  21  22
HETATM   22  N1  UNL     1      23.043   5.501  52.297  1.00  0.00     0.101 N 
HETATM   23  H1  UNL     1      22.874   5.288  53.306  1.00  0.00     0.315 HD
HETATM   24  H2  UNL     1      23.691   4.765  51.938  1.00  0.00     0.315 HD
ENDBRANCH  21  22
ENDBRANCH  20  21
ENDBRANCH  19  20
ENDBRANCH  18  19
ENDBRANCH   1  18
TORSDOF 5
ENDMDL
MODEL 7
REMARK VINA RESULT:      -6.6      3.308      5.878
REMARK  5 active torsions:
REMARK  status: ('A' for Active; 'I' for Inactive)
REMARK    1  A    between atoms: N1_1  and  C1_2 
REMARK    2  A    between atoms: C1_2  and  O1_3 
REMARK    3  A    between atoms: O1_3  and  C2_4 
REMARK    4  A    between atoms: C2_4  and  C3_5 
REMARK    5  A    between atoms: C3_5  and  C4_6 
ROOT
HETATM    1  C4  UNL     1      22.115   0.762  52.240  1.00  0.00     0.016 C 
HETATM    2  C5  UNL     1      21.590   2.007  51.616  1.00  0.00     0.172 C 
HETATM    3  O2  UNL     1      21.230   1.804  50.265  1.00  0.00    -0.387 OA
HETATM    4  C6  UNL     1      21.197   3.059  49.613  1.00  0.00     0.194 C 
HETATM    5  C7  UNL     1      22.627   3.487  49.347  1.00  0.00    -0.005 C 
HETATM    6  C8  UNL     1      23.901   3.132  49.475  1.00  0.00    -0.027 C 
HETATM    7  C9  UNL     1      25.243   3.651  49.173  1.00  0.00     0.046 C 
HETATM    8  C10 UNL     1      26.180   3.821  50.308  1.00  0.00     0.123 C 
HETATM    9  N2  UNL     1      26.696   2.677  50.961  1.00  0.00    -0.390 N 
HETATM   10  C11 UNL     1      26.227   1.576  51.707  1.00  0.00     0.028 A 
HETATM   11  C12 UNL     1      26.941   0.420  51.910  1.00  0.00     0.029 A 
HETATM   12  C13 UNL     1      26.444  -0.639  52.634  1.00  0.00     0.003 A 
HETATM   13  C14 UNL     1      25.210  -0.663  53.220  1.00  0.00     0.007 A 
HETATM   14  C15 UNL     1      24.416   0.442  53.077  1.00  0.00    -0.056 A 
HETATM   15  C16 UNL     1      25.003   1.484  52.322  1.00  0.00     0.036 A 
HETATM   16  C17 UNL     1      23.071   0.978  53.393  1.00  0.00     0.045 C 
HETATM   17  H20 UNL     1      27.761   2.581  50.894  1.00  0.00     0.159 HD
ENDROOT
BRANCH   1  18
HETATM   18  C3  UNL     1      21.292  -0.445  52.248  1.00  0.00     0.033 C 
BRANCH  18  19
HETATM   19  C2  UNL     1      20.689  -0.836  53.572  1.00  0.00     0.170 C 
BRANCH  19  20
HETATM   20  O1  UNL     1      19.434  -0.339  53.809  1.00  0.00    -0.363 OA
BRANCH  20  21
HETATM   21  C1  UNL     1      18.452  -0.941  53.027  1.00  0.00     0.434 C 
BRANCH  21  22
HETATM   22  N1  UNL     1      17.499  -1.681  53.830  1.00  0.00     0.101 N 
HETATM   23  H1  UNL     1      16.681  -1.090  54.103  1.00  0.00     0.315 HD
HETATM   24  H2  UNL     1      17.114  -2.528  53.356  1.00  0.00     0.315 HD
ENDBRANCH  21  22
ENDBRANCH  20  21
ENDBRANCH  19  20
ENDBRANCH  18  19
ENDBRANCH   1  18
TORSDOF 5
ENDMDL
MODEL 8
REMARK VINA RESULT:      -6.6      3.334      6.028
REMARK  5 active torsions:
REMARK  status: ('A' for Active; 'I' for Inactive)
REMARK    1  A    between atoms: N1_1  and  C1_2 
REMARK    2  A    between atoms: C1_2  and  O1_3 
REMARK    3  A    between atoms: O1_3  and  C2_4 
REMARK    4  A    between atoms: C2_4  and  C3_5 
REMARK    5  A    between atoms: C3_5  and  C4_6 
ROOT
HETATM    1  C4  UNL     1      23.341   3.698  51.470  1.00  0.00     0.016 C 
HETATM    2  C5  UNL     1      21.937   3.317  51.159  1.00  0.00     0.172 C 
HETATM    3  O2  UNL     1      21.035   3.802  52.132  1.00  0.00    -0.387 OA
HETATM    4  C6  UNL     1      19.842   3.045  52.059  1.00  0.00     0.194 C 
HETATM    5  C7  UNL     1      20.098   1.703  52.718  1.00  0.00    -0.005 C 
HETATM    6  C8  UNL     1      21.005   0.968  53.351  1.00  0.00    -0.027 C 
HETATM    7  C9  UNL     1      21.141  -0.365  53.957  1.00  0.00     0.046 C 
HETATM    8  C10 UNL     1      22.203  -1.251  53.426  1.00  0.00     0.123 C 
HETATM    9  N2  UNL     1      23.560  -0.931  53.665  1.00  0.00    -0.390 N 
HETATM   10  C11 UNL     1      24.477   0.098  53.369  1.00  0.00     0.028 A 
HETATM   11  C12 UNL     1      25.653   0.304  54.051  1.00  0.00     0.029 A 
HETATM   12  C13 UNL     1      26.517   1.328  53.741  1.00  0.00     0.003 A 
HETATM   13  C14 UNL     1      26.312   2.238  52.743  1.00  0.00     0.007 A 
HETATM   14  C15 UNL     1      25.167   2.123  52.003  1.00  0.00    -0.056 A 
HETATM   15  C16 UNL     1      24.336   1.044  52.384  1.00  0.00     0.036 A 
HETATM   16  C17 UNL     1      24.396   2.766  50.913  1.00  0.00     0.045 C 
HETATM   17  H20 UNL     1      24.086  -1.666  54.239  1.00  0.00     0.159 HD
ENDROOT
BRANCH   1  18
HETATM   18  C3  UNL     1      23.688   5.108  51.633  1.00  0.00     0.033 C 
BRANCH  18  19
HETATM   19  C2  UNL     1      24.569   5.708  50.568  1.00  0.00     0.170 C 
BRANCH  19  20
HETATM   20  O1  UNL     1      25.038   6.967  50.843  1.00  0.00    -0.363 OA
BRANCH  20  21
HETATM   21  C1  UNL     1      26.028   7.386  49.958  1.00  0.00     0.434 C 
BRANCH  21  22
HETATM   22  N1  UNL     1      26.885   8.398  50.544  1.00  0.00     0.101 N 
HETATM   23  H1  UNL     1      26.404   9.323  50.607  1.00  0.00     0.315 HD
HETATM   24  H2  UNL     1      27.217   8.165  51.507  1.00  0.00     0.315 HD
ENDBRANCH  21  22
ENDBRANCH  20  21
ENDBRANCH  19  20
ENDBRANCH  18  19
ENDBRANCH   1  18
TORSDOF 5
ENDMDL
MODEL 9
REMARK VINA RESULT:      -6.5      7.721      9.736
REMARK  5 active torsions:
REMARK  status: ('A' for Active; 'I' for Inactive)
REMARK    1  A    between atoms: N1_1  and  C1_2 
REMARK    2  A    between atoms: C1_2  and  O1_3 
REMARK    3  A    between atoms: O1_3  and  C2_4 
REMARK    4  A    between atoms: C2_4  and  C3_5 
REMARK    5  A    between atoms: C3_5  and  C4_6 
ROOT
HETATM    1  C4  UNL     1      30.697   7.484  48.624  1.00  0.00     0.016 C 
HETATM    2  C5  UNL     1      30.881   8.920  48.283  1.00  0.00     0.172 C 
HETATM    3  O2  UNL     1      30.914   9.733  49.438  1.00  0.00    -0.387 OA
HETATM    4  C6  UNL     1      30.617  11.065  49.061  1.00  0.00     0.194 C 
HETATM    5  C7  UNL     1      29.123  11.164  48.825  1.00  0.00    -0.005 C 
HETATM    6  C8  UNL     1      27.980  10.487  48.850  1.00  0.00    -0.027 C 
HETATM    7  C9  UNL     1      26.549  10.698  48.586  1.00  0.00     0.046 C 
HETATM    8  C10 UNL     1      25.912   9.846  47.555  1.00  0.00     0.123 C 
HETATM    9  N2  UNL     1      25.731   8.466  47.808  1.00  0.00    -0.390 N 
HETATM   10  C11 UNL     1      26.513   7.320  48.059  1.00  0.00     0.028 A 
HETATM   11  C12 UNL     1      26.030   6.165  48.628  1.00  0.00     0.029 A 
HETATM   12  C13 UNL     1      26.827   5.071  48.870  1.00  0.00     0.003 A 
HETATM   13  C14 UNL     1      28.160   5.007  48.580  1.00  0.00     0.007 A 
HETATM   14  C15 UNL     1      28.741   6.106  48.011  1.00  0.00    -0.056 A 
HETATM   15  C16 UNL     1      27.852   7.185  47.794  1.00  0.00     0.036 A 
HETATM   16  C17 UNL     1      30.040   6.649  47.547  1.00  0.00     0.045 C 
HETATM   17  H20 UNL     1      24.706   8.156  47.818  1.00  0.00     0.159 HD
ENDROOT
BRANCH   1  18
HETATM   18  C3  UNL     1      31.646   6.826  49.520  1.00  0.00     0.033 C 
BRANCH  18  19
HETATM   19  C2  UNL     1      32.634   5.888  48.876  1.00  0.00     0.170 C 
BRANCH  19  20
HETATM   20  O1  UNL     1      33.909   6.379  48.757  1.00  0.00    -0.363 OA
BRANCH  20  21
HETATM   21  C1  UNL     1      34.855   5.386  48.515  1.00  0.00     0.434 C 
BRANCH  21  22
HETATM   22  N1  UNL     1      35.522   4.967  49.731  1.00  0.00     0.101 N 
HETATM   23  H1  UNL     1      34.880   4.436  50.362  1.00  0.00     0.315 HD
HETATM   24  H2  UNL     1      36.356   4.358  49.568  1.00  0.00     0.315 HD
ENDBRANCH  21  22
ENDBRANCH  20  21
ENDBRANCH  19  20
ENDBRANCH  18  19
ENDBRANCH   1  18
TORSDOF 5
ENDMDL
