MODEL 1
REMARK VINA RESULT:      -7.5      0.000      0.000
REMARK  9 active torsions:
REMARK  status: ('A' for Active; 'I' for Inactive)
REMARK    1  A    between atoms: O1_1  and  C1_2 
REMARK    2  A    between atoms: C1_2  and  C2_3 
REMARK    3  A    between atoms: C2_3  and  C3_4 
REMARK    4  A    between atoms: C3_4  and  C4_5 
REMARK    5  A    between atoms: C4_5  and  N1_6 
REMARK    6  A    between atoms: N1_6  and  C5_7 
REMARK    7  A    between atoms: C8_11  and  C9_12 
REMARK    8  A    between atoms: C12_16  and  N4_17 
REMARK    9  A    between atoms: N4_17  and  C13_18 
ROOT
HETATM    1  C5  UNL     1      25.107  -0.285  53.695  1.00  0.00     0.046 A 
HETATM    2  C6  UNL     1      23.982  -0.765  54.336  1.00  0.00     0.145 A 
HETATM    3  N2  UNL     1      22.710  -0.453  54.027  1.00  0.00    -0.270 NA
HETATM    4  C7  UNL     1      22.433   0.404  53.004  1.00  0.00     0.130 A 
HETATM    5  C8  UNL     1      23.503   0.930  52.309  1.00  0.00     0.014 A 
HETATM    6  C18 UNL     1      24.787   0.577  52.667  1.00  0.00     0.046 A 
ENDROOT
BRANCH   5   7
HETATM    7  C9  UNL     1      23.331   1.856  51.196  1.00  0.00     0.088 A 
HETATM    8  C10 UNL     1      22.488   1.608  50.136  1.00  0.00     0.148 A 
HETATM    9  N3  UNL     1      22.330   2.466  49.108  1.00  0.00    -0.267 NA
HETATM   10  C11 UNL     1      23.008   3.628  49.074  1.00  0.00     0.166 A 
HETATM   11  C12 UNL     1      23.857   3.889  50.128  1.00  0.00     0.146 A 
HETATM   12  N5  UNL     1      23.989   3.011  51.136  1.00  0.00    -0.228 NA
BRANCH  11  13
HETATM   13  N4  UNL     1      24.573   5.118  50.090  1.00  0.00    -0.340 N 
HETATM   14  H15 UNL     1      24.445   6.106  50.396  1.00  0.00     0.167 HD
BRANCH  13  15
HETATM   15  C13 UNL     1      25.868   5.107  49.464  1.00  0.00     0.031 A 
HETATM   16  C14 UNL     1      26.891   4.260  49.264  1.00  0.00     0.008 A 
HETATM   17  C15 UNL     1      27.986   4.923  48.497  1.00  0.00     0.081 A 
HETATM   18  C16 UNL     1      27.426   6.281  48.289  1.00  0.00     0.017 A 
HETATM   19 CL1  UNL     1      28.514   7.315  47.395  1.00  0.00    -0.089 Cl
HETATM   20  C17 UNL     1      26.229   6.375  48.840  1.00  0.00     0.049 A 
ENDBRANCH  13  15
ENDBRANCH  11  13
ENDBRANCH   5   7
BRANCH   1  21
HETATM   21  N1  UNL     1      26.421  -0.619  54.046  1.00  0.00    -0.389 N 
HETATM   22  H10 UNL     1      26.620  -0.514  55.088  1.00  0.00     0.159 HD
BRANCH  21  23
HETATM   23  C4  UNL     1      27.478  -1.064  53.203  1.00  0.00     0.120 C 
BRANCH  23  24
HETATM   24  C3  UNL     1      28.802  -0.435  53.500  1.00  0.00     0.022 C 
BRANCH  24  25
HETATM   25  C2  UNL     1      28.663   0.663  54.565  1.00  0.00     0.028 C 
BRANCH  25  26
HETATM   26  C1  UNL     1      28.884   1.984  53.839  1.00  0.00     0.164 C 
BRANCH  26  27
HETATM   27  O1  UNL     1      27.803   2.841  54.105  1.00  0.00    -0.401 OA
HETATM   28  H1  UNL     1      26.949   2.325  54.079  1.00  0.00     0.209 HD
ENDBRANCH  26  27
ENDBRANCH  25  26
ENDBRANCH  24  25
ENDBRANCH  23  24
ENDBRANCH  21  23
ENDBRANCH   1  21
TORSDOF 9
ENDMDL
MODEL 2
REMARK VINA RESULT:      -7.4      1.431      1.819
REMARK  9 active torsions:
REMARK  status: ('A' for Active; 'I' for Inactive)
REMARK    1  A    between atoms: O1_1  and  C1_2 
REMARK    2  A    between atoms: C1_2  and  C2_3 
REMARK    3  A    between atoms: C2_3  and  C3_4 
REMARK    4  A    between atoms: C3_4  and  C4_5 
REMARK    5  A    between atoms: C4_5  and  N1_6 
REMARK    6  A    between atoms: N1_6  and  C5_7 
REMARK    7  A    between atoms: C8_11  and  C9_12 
REMARK    8  A    between atoms: C12_16  and  N4_17 
REMARK    9  A    between atoms: N4_17  and  C13_18 
ROOT
HETATM    1  C5  UNL     1      24.247  -0.797  54.708  1.00  0.00     0.046 A 
HETATM    2  C6  UNL     1      23.211  -1.418  55.375  1.00  0.00     0.145 A 
HETATM    3  N2  UNL     1      21.915  -1.388  55.014  1.00  0.00    -0.270 NA
HETATM    4  C7  UNL     1      21.518  -0.704  53.904  1.00  0.00     0.130 A 
HETATM    5  C8  UNL     1      22.494  -0.053  53.177  1.00  0.00     0.014 A 
HETATM    6  C18 UNL     1      23.808  -0.116  53.591  1.00  0.00     0.046 A 
ENDROOT
BRANCH   5   7
HETATM    7  C9  UNL     1      22.191   0.709  51.972  1.00  0.00     0.088 A 
HETATM    8  C10 UNL     1      21.316   0.269  51.004  1.00  0.00     0.148 A 
HETATM    9  N3  UNL     1      21.037   0.976  49.890  1.00  0.00    -0.267 NA
HETATM   10  C11 UNL     1      21.617   2.171  49.673  1.00  0.00     0.166 A 
HETATM   11  C12 UNL     1      22.495   2.625  50.634  1.00  0.00     0.146 A 
HETATM   12  N5  UNL     1      22.749   1.893  51.731  1.00  0.00    -0.228 NA
BRANCH  11  13
HETATM   13  N4  UNL     1      23.107   3.888  50.402  1.00  0.00    -0.340 N 
HETATM   14  H15 UNL     1      22.845   4.897  50.415  1.00  0.00     0.167 HD
BRANCH  13  15
HETATM   15  C13 UNL     1      24.497   3.889  50.033  1.00  0.00     0.031 A 
HETATM   16  C14 UNL     1      25.562   3.073  50.089  1.00  0.00     0.008 A 
HETATM   17  C15 UNL     1      26.765   3.730  49.498  1.00  0.00     0.081 A 
HETATM   18  C16 UNL     1      26.218   5.049  49.095  1.00  0.00     0.017 A 
HETATM   19 CL1  UNL     1      27.428   6.067  48.351  1.00  0.00    -0.089 Cl
HETATM   20  C17 UNL     1      24.936   5.129  49.402  1.00  0.00     0.049 A 
ENDBRANCH  13  15
ENDBRANCH  11  13
ENDBRANCH   5   7
BRANCH   1  21
HETATM   21  N1  UNL     1      25.587  -0.836  55.113  1.00  0.00    -0.389 N 
HETATM   22  H10 UNL     1      25.832  -1.703  55.684  1.00  0.00     0.159 HD
BRANCH  21  23
HETATM   23  C4  UNL     1      26.619   0.112  54.859  1.00  0.00     0.120 C 
BRANCH  23  24
HETATM   24  C3  UNL     1      27.474  -0.219  53.677  1.00  0.00     0.022 C 
BRANCH  24  25
HETATM   25  C2  UNL     1      27.300   0.823  52.562  1.00  0.00     0.028 C 
BRANCH  25  26
HETATM   26  C1  UNL     1      27.660   2.167  53.182  1.00  0.00     0.164 C 
BRANCH  26  27
HETATM   27  O1  UNL     1      29.045   2.372  53.062  1.00  0.00    -0.401 OA
HETATM   28  H1  UNL     1      29.250   2.780  52.175  1.00  0.00     0.209 HD
ENDBRANCH  26  27
ENDBRANCH  25  26
ENDBRANCH  24  25
ENDBRANCH  23  24
ENDBRANCH  21  23
ENDBRANCH   1  21
TORSDOF 9
ENDMDL
MODEL 3
REMARK VINA RESULT:      -7.4      2.529      2.918
REMARK  9 active torsions:
REMARK  status: ('A' for Active; 'I' for Inactive)
REMARK    1  A    between atoms: O1_1  and  C1_2 
REMARK    2  A    between atoms: C1_2  and  C2_3 
REMARK    3  A    between atoms: C2_3  and  C3_4 
REMARK    4  A    between atoms: C3_4  and  C4_5 
REMARK    5  A    between atoms: C4_5  and  N1_6 
REMARK    6  A    between atoms: N1_6  and  C5_7 
REMARK    7  A    between atoms: C8_11  and  C9_12 
REMARK    8  A    between atoms: C12_16  and  N4_17 
REMARK    9  A    between atoms: N4_17  and  C13_18 
ROOT
HETATM    1  C5  UNL     1      26.233   0.844  54.059  1.00  0.00     0.046 A 
HETATM    2  C6  UNL     1      25.600  -0.379  53.961  1.00  0.00     0.145 A 
HETATM    3  N2  UNL     1      24.372  -0.588  53.453  1.00  0.00    -0.270 NA
HETATM    4  C7  UNL     1      23.630   0.451  52.975  1.00  0.00     0.130 A 
HETATM    5  C8  UNL     1      24.191   1.710  53.035  1.00  0.00     0.014 A 
HETATM    6  C18 UNL     1      25.454   1.870  53.565  1.00  0.00     0.046 A 
ENDROOT
BRANCH   5   7
HETATM    7  C9  UNL     1      23.495   2.898  52.554  1.00  0.00     0.088 A 
HETATM    8  C10 UNL     1      22.189   2.878  52.118  1.00  0.00     0.148 A 
HETATM    9  N3  UNL     1      21.546   3.977  51.674  1.00  0.00    -0.267 NA
HETATM   10  C11 UNL     1      22.171   5.169  51.637  1.00  0.00     0.166 A 
HETATM   11  C12 UNL     1      23.480   5.204  52.070  1.00  0.00     0.146 A 
HETATM   12  N5  UNL     1      24.088   4.088  52.506  1.00  0.00    -0.228 NA
BRANCH  11  13
HETATM   13  N4  UNL     1      24.138   6.464  52.030  1.00  0.00    -0.340 N 
HETATM   14  H15 UNL     1      24.414   7.222  52.690  1.00  0.00     0.167 HD
BRANCH  13  15
HETATM   15  C13 UNL     1      24.599   6.926  50.748  1.00  0.00     0.031 A 
HETATM   16  C14 UNL     1      25.366   6.499  49.732  1.00  0.00     0.008 A 
HETATM   17  C15 UNL     1      25.432   7.525  48.650  1.00  0.00     0.081 A 
HETATM   18  C16 UNL     1      24.581   8.605  49.209  1.00  0.00     0.017 A 
HETATM   19 CL1  UNL     1      24.467   9.978  48.135  1.00  0.00    -0.089 Cl
HETATM   20  C17 UNL     1      24.116   8.257  50.395  1.00  0.00     0.049 A 
ENDBRANCH  13  15
ENDBRANCH  11  13
ENDBRANCH   5   7
BRANCH   1  21
HETATM   21  N1  UNL     1      27.510   1.034  54.603  1.00  0.00    -0.389 N 
HETATM   22  H10 UNL     1      27.679   2.029  54.948  1.00  0.00     0.159 HD
BRANCH  21  23
HETATM   23  C4  UNL     1      28.564   0.088  54.743  1.00  0.00     0.120 C 
BRANCH  23  24
HETATM   24  C3  UNL     1      29.423  -0.052  53.527  1.00  0.00     0.022 C 
BRANCH  24  25
HETATM   25  C2  UNL     1      29.900  -1.502  53.354  1.00  0.00     0.028 C 
BRANCH  25  26
HETATM   26  C1  UNL     1      28.679  -2.297  52.912  1.00  0.00     0.164 C 
BRANCH  26  27
HETATM   27  O1  UNL     1      28.795  -3.617  53.380  1.00  0.00    -0.401 OA
HETATM   28  H1  UNL     1      28.393  -3.689  54.290  1.00  0.00     0.209 HD
ENDBRANCH  26  27
ENDBRANCH  25  26
ENDBRANCH  24  25
ENDBRANCH  23  24
ENDBRANCH  21  23
ENDBRANCH   1  21
TORSDOF 9
ENDMDL
MODEL 4
REMARK VINA RESULT:      -7.4      1.986      2.447
REMARK  9 active torsions:
REMARK  status: ('A' for Active; 'I' for Inactive)
REMARK    1  A    between atoms: O1_1  and  C1_2 
REMARK    2  A    between atoms: C1_2  and  C2_3 
REMARK    3  A    between atoms: C2_3  and  C3_4 
REMARK    4  A    between atoms: C3_4  and  C4_5 
REMARK    5  A    between atoms: C4_5  and  N1_6 
REMARK    6  A    between atoms: N1_6  and  C5_7 
REMARK    7  A    between atoms: C8_11  and  C9_12 
REMARK    8  A    between atoms: C12_16  and  N4_17 
REMARK    9  A    between atoms: N4_17  and  C13_18 
ROOT
HETATM    1  C5  UNL     1      24.504  -0.691  54.580  1.00  0.00     0.046 A 
HETATM    2  C6  UNL     1      23.601  -1.406  55.340  1.00  0.00     0.145 A 
HETATM    3  N2  UNL     1      22.261  -1.316  55.258  1.00  0.00    -0.270 NA
HETATM    4  C7  UNL     1      21.674  -0.465  54.369  1.00  0.00     0.130 A 
HETATM    5  C8  UNL     1      22.507   0.288  53.568  1.00  0.00     0.014 A 
HETATM    6  C18 UNL     1      23.874   0.158  53.693  1.00  0.00     0.046 A 
ENDROOT
BRANCH   5   7
HETATM    7  C9  UNL     1      21.996   1.231  52.579  1.00  0.00     0.088 A 
HETATM    8  C10 UNL     1      20.733   1.141  52.038  1.00  0.00     0.148 A 
HETATM    9  N3  UNL     1      20.261   2.014  51.125  1.00  0.00    -0.267 NA
HETATM   10  C11 UNL     1      21.026   3.034  50.693  1.00  0.00     0.166 A 
HETATM   11  C12 UNL     1      22.293   3.137  51.227  1.00  0.00     0.146 A 
HETATM   12  N5  UNL     1      22.729   2.249  52.136  1.00  0.00    -0.228 NA
BRANCH  11  13
HETATM   13  N4  UNL     1      23.098   4.217  50.770  1.00  0.00    -0.340 N 
HETATM   14  H15 UNL     1      23.023   5.248  50.645  1.00  0.00     0.167 HD
BRANCH  13  15
HETATM   15  C13 UNL     1      24.430   3.903  50.324  1.00  0.00     0.031 A 
HETATM   16  C14 UNL     1      25.283   2.866  50.329  1.00  0.00     0.008 A 
HETATM   17  C15 UNL     1      26.568   3.233  49.663  1.00  0.00     0.081 A 
HETATM   18  C16 UNL     1      26.312   4.643  49.277  1.00  0.00     0.017 A 
HETATM   19 CL1  UNL     1      27.677   5.361  48.455  1.00  0.00    -0.089 Cl
HETATM   20  C17 UNL     1      25.101   5.012  49.655  1.00  0.00     0.049 A 
ENDBRANCH  13  15
ENDBRANCH  11  13
ENDBRANCH   5   7
BRANCH   1  21
HETATM   21  N1  UNL     1      25.896  -0.796  54.694  1.00  0.00    -0.389 N 
HETATM   22  H10 UNL     1      26.228  -1.783  54.924  1.00  0.00     0.159 HD
BRANCH  21  23
HETATM   23  C4  UNL     1      26.878   0.224  54.545  1.00  0.00     0.120 C 
BRANCH  23  24
HETATM   24  C3  UNL     1      28.280  -0.289  54.449  1.00  0.00     0.022 C 
BRANCH  24  25
HETATM   25  C2  UNL     1      28.517  -0.993  53.105  1.00  0.00     0.028 C 
BRANCH  25  26
HETATM   26  C1  UNL     1      29.369  -2.217  53.415  1.00  0.00     0.164 C 
BRANCH  26  27
HETATM   27  O1  UNL     1      28.562  -3.365  53.363  1.00  0.00    -0.401 OA
HETATM   28  H1  UNL     1      28.280  -3.537  52.421  1.00  0.00     0.209 HD
ENDBRANCH  26  27
ENDBRANCH  25  26
ENDBRANCH  24  25
ENDBRANCH  23  24
ENDBRANCH  21  23
ENDBRANCH   1  21
TORSDOF 9
ENDMDL
MODEL 5
REMARK VINA RESULT:      -7.4      5.748      8.552
REMARK  9 active torsions:
REMARK  status: ('A' for Active; 'I' for Inactive)
REMARK    1  A    between atoms: O1_1  and  C1_2 
REMARK    2  A    between atoms: C1_2  and  C2_3 
REMARK    3  A    between atoms: C2_3  and  C3_4 
REMARK    4  A    between atoms: C3_4  and  C4_5 
REMARK    5  A    between atoms: C4_5  and  N1_6 
REMARK    6  A    between atoms: N1_6  and  C5_7 
REMARK    7  A    between atoms: C8_11  and  C9_12 
REMARK    8  A    between atoms: C12_16  and  N4_17 
REMARK    9  A    between atoms: N4_17  and  C13_18 
ROOT
HETATM    1  C5  UNL     1      24.274  -0.204  53.754  1.00  0.00     0.046 A 
HETATM    2  C6  UNL     1      24.237  -0.917  54.935  1.00  0.00     0.145 A 
HETATM    3  N2  UNL     1      23.136  -1.455  55.492  1.00  0.00    -0.270 NA
HETATM    4  C7  UNL     1      21.918  -1.324  54.893  1.00  0.00     0.130 A 
HETATM    5  C8  UNL     1      21.868  -0.625  53.706  1.00  0.00     0.014 A 
HETATM    6  C18 UNL     1      23.026  -0.093  53.178  1.00  0.00     0.046 A 
ENDROOT
BRANCH   5   7
HETATM    7  C9  UNL     1      20.624  -0.420  52.973  1.00  0.00     0.088 A 
HETATM    8  C10 UNL     1      20.565   0.226  51.758  1.00  0.00     0.148 A 
HETATM    9  N3  UNL     1      19.414   0.414  51.081  1.00  0.00    -0.267 NA
HETATM   10  C11 UNL     1      18.246  -0.033  51.579  1.00  0.00     0.166 A 
HETATM   11  C12 UNL     1      18.289  -0.682  52.794  1.00  0.00     0.146 A 
HETATM   12  N5  UNL     1      19.455  -0.852  53.440  1.00  0.00    -0.228 NA
BRANCH  11  13
HETATM   13  N4  UNL     1      17.053  -1.153  53.317  1.00  0.00    -0.340 N 
HETATM   14  H15 UNL     1      16.198  -0.766  53.770  1.00  0.00     0.167 HD
BRANCH  13  15
HETATM   15  C13 UNL     1      16.808  -2.570  53.252  1.00  0.00     0.031 A 
HETATM   16  C14 UNL     1      17.340  -3.713  53.713  1.00  0.00     0.008 A 
HETATM   17  C15 UNL     1      16.549  -4.891  53.249  1.00  0.00     0.081 A 
HETATM   18  C16 UNL     1      15.481  -4.238  52.452  1.00  0.00     0.017 A 
HETATM   19 CL1  UNL     1      14.369  -5.397  51.762  1.00  0.00    -0.089 Cl
HETATM   20  C17 UNL     1      15.636  -2.926  52.460  1.00  0.00     0.049 A 
ENDBRANCH  13  15
ENDBRANCH  11  13
ENDBRANCH   5   7
BRANCH   1  21
HETATM   21  N1  UNL     1      25.434   0.355  53.202  1.00  0.00    -0.389 N 
HETATM   22  H10 UNL     1      25.632   1.345  53.547  1.00  0.00     0.159 HD
BRANCH  21  23
HETATM   23  C4  UNL     1      26.342  -0.225  52.272  1.00  0.00     0.120 C 
BRANCH  23  24
HETATM   24  C3  UNL     1      27.066  -1.425  52.793  1.00  0.00     0.022 C 
BRANCH  24  25
HETATM   25  C2  UNL     1      28.461  -1.045  53.310  1.00  0.00     0.028 C 
BRANCH  25  26
HETATM   26  C1  UNL     1      29.290  -2.322  53.263  1.00  0.00     0.164 C 
BRANCH  26  27
HETATM   27  O1  UNL     1      28.455  -3.400  52.927  1.00  0.00    -0.401 OA
HETATM   28  H1  UNL     1      27.530  -3.069  52.752  1.00  0.00     0.209 HD
ENDBRANCH  26  27
ENDBRANCH  25  26
ENDBRANCH  24  25
ENDBRANCH  23  24
ENDBRANCH  21  23
ENDBRANCH   1  21
TORSDOF 9
ENDMDL
MODEL 6
REMARK VINA RESULT:      -7.4      4.120      6.727
REMARK  9 active torsions:
REMARK  status: ('A' for Active; 'I' for Inactive)
REMARK    1  A    between atoms: O1_1  and  C1_2 
REMARK    2  A    between atoms: C1_2  and  C2_3 
REMARK    3  A    between atoms: C2_3  and  C3_4 
REMARK    4  A    between atoms: C3_4  and  C4_5 
REMARK    5  A    between atoms: C4_5  and  N1_6 
REMARK    6  A    between atoms: N1_6  and  C5_7 
REMARK    7  A    between atoms: C8_11  and  C9_12 
REMARK    8  A    between atoms: C12_16  and  N4_17 
REMARK    9  A    between atoms: N4_17  and  C13_18 
ROOT
HETATM    1  C5  UNL     1      26.659   1.844  53.182  1.00  0.00     0.046 A 
HETATM    2  C6  UNL     1      26.391   2.363  51.931  1.00  0.00     0.145 A 
HETATM    3  N2  UNL     1      25.253   2.188  51.236  1.00  0.00    -0.270 NA
HETATM    4  C7  UNL     1      24.231   1.445  51.750  1.00  0.00     0.130 A 
HETATM    5  C8  UNL     1      24.417   0.890  52.999  1.00  0.00     0.014 A 
HETATM    6  C18 UNL     1      25.604   1.100  53.669  1.00  0.00     0.046 A 
ENDROOT
BRANCH   5   7
HETATM    7  C9  UNL     1      23.397   0.077  53.651  1.00  0.00     0.088 A 
HETATM    8  C10 UNL     1      23.696  -0.939  54.531  1.00  0.00     0.148 A 
HETATM    9  N3  UNL     1      22.751  -1.690  55.134  1.00  0.00    -0.267 NA
HETATM   10  C11 UNL     1      21.445  -1.470  54.894  1.00  0.00     0.166 A 
HETATM   11  C12 UNL     1      21.131  -0.455  54.016  1.00  0.00     0.146 A 
HETATM   12  N5  UNL     1      22.099   0.272  53.433  1.00  0.00    -0.228 NA
BRANCH  11  13
HETATM   13  N4  UNL     1      19.750  -0.225  53.765  1.00  0.00    -0.340 N 
HETATM   14  H15 UNL     1      18.851  -0.221  54.291  1.00  0.00     0.167 HD
BRANCH  13  15
HETATM   15  C13 UNL     1      19.371   0.105  52.416  1.00  0.00     0.031 A 
HETATM   16  C14 UNL     1      19.837   0.817  51.378  1.00  0.00     0.008 A 
HETATM   17  C15 UNL     1      18.904   0.733  50.216  1.00  0.00     0.081 A 
HETATM   18  C16 UNL     1      17.832  -0.139  50.756  1.00  0.00     0.017 A 
HETATM   19 CL1  UNL     1      16.562  -0.425  49.590  1.00  0.00    -0.089 Cl
HETATM   20  C17 UNL     1      18.105  -0.489  52.000  1.00  0.00     0.049 A 
ENDBRANCH  13  15
ENDBRANCH  11  13
ENDBRANCH   5   7
BRANCH   1  21
HETATM   21  N1  UNL     1      27.859   2.034  53.878  1.00  0.00    -0.389 N 
HETATM   22  H10 UNL     1      27.868   2.919  54.473  1.00  0.00     0.159 HD
BRANCH  21  23
HETATM   23  C4  UNL     1      29.021   1.211  53.883  1.00  0.00     0.120 C 
BRANCH  23  24
HETATM   24  C3  UNL     1      28.792  -0.165  54.422  1.00  0.00     0.022 C 
BRANCH  24  25
HETATM   25  C2  UNL     1      29.578  -1.210  53.617  1.00  0.00     0.028 C 
BRANCH  25  26
HETATM   26  C1  UNL     1      28.537  -2.124  52.983  1.00  0.00     0.164 C 
BRANCH  26  27
HETATM   27  O1  UNL     1      28.729  -3.434  53.452  1.00  0.00    -0.401 OA
HETATM   28  H1  UNL     1      27.848  -3.841  53.685  1.00  0.00     0.209 HD
ENDBRANCH  26  27
ENDBRANCH  25  26
ENDBRANCH  24  25
ENDBRANCH  23  24
ENDBRANCH  21  23
ENDBRANCH   1  21
TORSDOF 9
ENDMDL
MODEL 7
REMARK VINA RESULT:      -7.3      2.614      6.538
REMARK  9 active torsions:
REMARK  status: ('A' for Active; 'I' for Inactive)
REMARK    1  A    between atoms: O1_1  and  C1_2 
REMARK    2  A    between atoms: C1_2  and  C2_3 
REMARK    3  A    between atoms: C2_3  and  C3_4 
REMARK    4  A    between atoms: C3_4  and  C4_5 
REMARK    5  A    between atoms: C4_5  and  N1_6 
REMARK    6  A    between atoms: N1_6  and  C5_7 
REMARK    7  A    between atoms: C8_11  and  C9_12 
REMARK    8  A    between atoms: C12_16  and  N4_17 
REMARK    9  A    between atoms: N4_17  and  C13_18 
ROOT
HETATM    1  C5  UNL     1      24.670   4.553  50.146  1.00  0.00     0.046 A 
HETATM    2  C6  UNL     1      23.785   4.600  49.088  1.00  0.00     0.145 A 
HETATM    3  N2  UNL     1      22.730   3.783  48.911  1.00  0.00    -0.270 NA
HETATM    4  C7  UNL     1      22.450   2.802  49.815  1.00  0.00     0.130 A 
HETATM    5  C8  UNL     1      23.288   2.687  50.905  1.00  0.00     0.014 A 
HETATM    6  C18 UNL     1      24.355   3.550  51.039  1.00  0.00     0.046 A 
ENDROOT
BRANCH   5   7
HETATM    7  C9  UNL     1      23.090   1.677  51.938  1.00  0.00     0.088 A 
HETATM    8  C10 UNL     1      21.924   1.562  52.663  1.00  0.00     0.148 A 
HETATM    9  N3  UNL     1      21.742   0.627  53.617  1.00  0.00    -0.267 NA
HETATM   10  C11 UNL     1      22.718  -0.253  53.910  1.00  0.00     0.166 A 
HETATM   11  C12 UNL     1      23.891  -0.150  53.192  1.00  0.00     0.146 A 
HETATM   12  N5  UNL     1      24.036   0.794  52.248  1.00  0.00    -0.228 NA
BRANCH  11  13
HETATM   13  N4  UNL     1      24.919  -1.082  53.503  1.00  0.00    -0.340 N 
HETATM   14  H15 UNL     1      25.061  -2.114  53.514  1.00  0.00     0.167 HD
BRANCH  13  15
HETATM   15  C13 UNL     1      26.181  -0.548  53.944  1.00  0.00     0.031 A 
HETATM   16  C14 UNL     1      26.656   0.291  54.878  1.00  0.00     0.008 A 
HETATM   17  C15 UNL     1      28.141   0.406  54.781  1.00  0.00     0.081 A 
HETATM   18  C16 UNL     1      28.438  -0.501  53.645  1.00  0.00     0.017 A 
HETATM   19 CL1  UNL     1      30.147  -0.575  53.287  1.00  0.00    -0.089 Cl
HETATM   20  C17 UNL     1      27.323  -1.035  53.179  1.00  0.00     0.049 A 
ENDBRANCH  13  15
ENDBRANCH  11  13
ENDBRANCH   5   7
BRANCH   1  21
HETATM   21  N1  UNL     1      25.767   5.410  50.299  1.00  0.00    -0.389 N 
HETATM   22  H10 UNL     1      26.448   5.095  51.057  1.00  0.00     0.159 HD
BRANCH  21  23
HETATM   23  C4  UNL     1      26.066   6.605  49.585  1.00  0.00     0.120 C 
BRANCH  23  24
HETATM   24  C3  UNL     1      26.946   6.400  48.393  1.00  0.00     0.022 C 
BRANCH  24  25
HETATM   25  C2  UNL     1      27.835   5.161  48.572  1.00  0.00     0.028 C 
BRANCH  25  26
HETATM   26  C1  UNL     1      29.248   5.601  48.209  1.00  0.00     0.164 C 
BRANCH  26  27
HETATM   27  O1  UNL     1      30.051   5.564  49.360  1.00  0.00    -0.401 OA
HETATM   28  H1  UNL     1      30.970   5.886  49.141  1.00  0.00     0.209 HD
ENDBRANCH  26  27
ENDBRANCH  25  26
ENDBRANCH  24  25
ENDBRANCH  23  24
ENDBRANCH  21  23
ENDBRANCH   1  21
TORSDOF 9
ENDMDL
MODEL 8
REMARK VINA RESULT:      -7.1      2.366      3.138
REMARK  9 active torsions:
REMARK  status: ('A' for Active; 'I' for Inactive)
REMARK    1  A    between atoms: O1_1  and  C1_2 
REMARK    2  A    between atoms: C1_2  and  C2_3 
REMARK    3  A    between atoms: C2_3  and  C3_4 
REMARK    4  A    between atoms: C3_4  and  C4_5 
REMARK    5  A    between atoms: C4_5  and  N1_6 
REMARK    6  A    between atoms: N1_6  and  C5_7 
REMARK    7  A    between atoms: C8_11  and  C9_12 
REMARK    8  A    between atoms: C12_16  and  N4_17 
REMARK    9  A    between atoms: N4_17  and  C13_18 
ROOT
HETATM    1  C5  UNL     1      24.885  -0.792  54.429  1.00  0.00     0.046 A 
HETATM    2  C6  UNL     1      24.232  -1.363  55.503  1.00  0.00     0.145 A 
HETATM    3  N2  UNL     1      22.898  -1.480  55.639  1.00  0.00    -0.270 NA
HETATM    4  C7  UNL     1      22.057  -1.018  54.670  1.00  0.00     0.130 A 
HETATM    5  C8  UNL     1      22.629  -0.433  53.560  1.00  0.00     0.014 A 
HETATM    6  C18 UNL     1      24.002  -0.337  53.471  1.00  0.00     0.046 A 
ENDROOT
BRANCH   5   7
HETATM    7  C9  UNL     1      21.833   0.097  52.459  1.00  0.00     0.088 A 
HETATM    8  C10 UNL     1      20.459   0.022  52.422  1.00  0.00     0.148 A 
HETATM    9  N3  UNL     1      19.723   0.513  51.404  1.00  0.00    -0.267 NA
HETATM   10  C11 UNL     1      20.318   1.112  50.355  1.00  0.00     0.166 A 
HETATM   11  C12 UNL     1      21.694   1.194  50.379  1.00  0.00     0.146 A 
HETATM   12  N5  UNL     1      22.394   0.694  51.410  1.00  0.00    -0.228 NA
BRANCH  11  13
HETATM   13  N4  UNL     1      22.320   1.827  49.269  1.00  0.00    -0.340 N 
HETATM   14  H15 UNL     1      22.379   1.712  48.235  1.00  0.00     0.167 HD
BRANCH  13  15
HETATM   15  C13 UNL     1      23.139   2.978  49.543  1.00  0.00     0.031 A 
HETATM   16  C14 UNL     1      24.426   3.350  49.460  1.00  0.00     0.008 A 
HETATM   17  C15 UNL     1      24.605   4.755  49.931  1.00  0.00     0.081 A 
HETATM   18  C16 UNL     1      23.215   5.126  50.296  1.00  0.00     0.017 A 
HETATM   19 CL1  UNL     1      23.105   6.763  50.899  1.00  0.00    -0.089 Cl
HETATM   20  C17 UNL     1      22.395   4.115  50.074  1.00  0.00     0.049 A 
ENDBRANCH  13  15
ENDBRANCH  11  13
ENDBRANCH   5   7
BRANCH   1  21
HETATM   21  N1  UNL     1      26.276  -0.673  54.319  1.00  0.00    -0.389 N 
HETATM   22  H10 UNL     1      26.730  -1.485  53.799  1.00  0.00     0.159 HD
BRANCH  21  23
HETATM   23  C4  UNL     1      27.117   0.368  54.803  1.00  0.00     0.120 C 
BRANCH  23  24
HETATM   24  C3  UNL     1      28.290   0.664  53.922  1.00  0.00     0.022 C 
BRANCH  24  25
HETATM   25  C2  UNL     1      28.201   2.084  53.345  1.00  0.00     0.028 C 
BRANCH  25  26
HETATM   26  C1  UNL     1      27.159   2.024  52.236  1.00  0.00     0.164 C 
BRANCH  26  27
HETATM   27  O1  UNL     1      27.322   3.133  51.390  1.00  0.00    -0.401 OA
HETATM   28  H1  UNL     1      26.885   3.934  51.795  1.00  0.00     0.209 HD
ENDBRANCH  26  27
ENDBRANCH  25  26
ENDBRANCH  24  25
ENDBRANCH  23  24
ENDBRANCH  21  23
ENDBRANCH   1  21
TORSDOF 9
ENDMDL
MODEL 9
REMARK VINA RESULT:      -7.1      2.799      5.919
REMARK  9 active torsions:
REMARK  status: ('A' for Active; 'I' for Inactive)
REMARK    1  A    between atoms: O1_1  and  C1_2 
REMARK    2  A    between atoms: C1_2  and  C2_3 
REMARK    3  A    between atoms: C2_3  and  C3_4 
REMARK    4  A    between atoms: C3_4  and  C4_5 
REMARK    5  A    between atoms: C4_5  and  N1_6 
REMARK    6  A    between atoms: N1_6  and  C5_7 
REMARK    7  A    between atoms: C8_11  and  C9_12 
REMARK    8  A    between atoms: C12_16  and  N4_17 
REMARK    9  A    between atoms: N4_17  and  C13_18 
ROOT
HETATM    1  C5  UNL     1      26.883   1.880  52.669  1.00  0.00     0.046 A 
HETATM    2  C6  UNL     1      27.923   1.398  53.438  1.00  0.00     0.145 A 
HETATM    3  N2  UNL     1      27.823   0.449  54.387  1.00  0.00    -0.270 NA
HETATM    4  C7  UNL     1      26.621  -0.132  54.666  1.00  0.00     0.130 A 
HETATM    5  C8  UNL     1      25.528   0.293  53.940  1.00  0.00     0.014 A 
HETATM    6  C18 UNL     1      25.685   1.270  52.980  1.00  0.00     0.046 A 
ENDROOT
BRANCH   5   7
HETATM    7  C9  UNL     1      24.192  -0.254  54.149  1.00  0.00     0.088 A 
HETATM    8  C10 UNL     1      23.890  -1.129  55.169  1.00  0.00     0.148 A 
HETATM    9  N3  UNL     1      22.654  -1.634  55.361  1.00  0.00    -0.267 NA
HETATM   10  C11 UNL     1      21.641  -1.296  54.542  1.00  0.00     0.166 A 
HETATM   11  C12 UNL     1      21.929  -0.421  53.516  1.00  0.00     0.146 A 
HETATM   12  N5  UNL     1      23.172   0.063  53.355  1.00  0.00    -0.228 NA
BRANCH  11  13
HETATM   13  N4  UNL     1      20.856  -0.065  52.653  1.00  0.00    -0.340 N 
HETATM   14  H15 UNL     1      19.868  -0.347  52.477  1.00  0.00     0.167 HD
BRANCH  13  15
HETATM   15  C13 UNL     1      21.098   0.984  51.698  1.00  0.00     0.031 A 
HETATM   16  C14 UNL     1      21.071   2.324  51.635  1.00  0.00     0.008 A 
HETATM   17  C15 UNL     1      21.453   2.800  50.272  1.00  0.00     0.081 A 
HETATM   18  C16 UNL     1      21.704   1.518  49.568  1.00  0.00     0.017 A 
HETATM   19 CL1  UNL     1      22.182   1.760  47.905  1.00  0.00    -0.089 Cl
HETATM   20  C17 UNL     1      21.501   0.498  50.382  1.00  0.00     0.049 A 
ENDBRANCH  13  15
ENDBRANCH  11  13
ENDBRANCH   5   7
BRANCH   1  21
HETATM   21  N1  UNL     1      27.014   2.878  51.696  1.00  0.00    -0.389 N 
HETATM   22  H10 UNL     1      27.951   3.386  51.733  1.00  0.00     0.159 HD
BRANCH  21  23
HETATM   23  C4  UNL     1      26.075   3.275  50.701  1.00  0.00     0.120 C 
BRANCH  23  24
HETATM   24  C3  UNL     1      26.683   3.537  49.359  1.00  0.00     0.022 C 
BRANCH  24  25
HETATM   25  C2  UNL     1      26.601   5.028  48.999  1.00  0.00     0.028 C 
BRANCH  25  26
HETATM   26  C1  UNL     1      25.567   5.632  49.940  1.00  0.00     0.164 C 
BRANCH  26  27
HETATM   27  O1  UNL     1      26.098   6.796  50.521  1.00  0.00    -0.401 OA
HETATM   28  H1  UNL     1      25.708   7.601  50.079  1.00  0.00     0.209 HD
ENDBRANCH  26  27
ENDBRANCH  25  26
ENDBRANCH  24  25
ENDBRANCH  23  24
ENDBRANCH  21  23
ENDBRANCH   1  21
TORSDOF 9
ENDMDL
