MODEL 1
REMARK VINA RESULT:      -7.2      0.000      0.000
REMARK  5 active torsions:
REMARK  status: ('A' for Active; 'I' for Inactive)
REMARK    1  A    between atoms: O1_2  and  C2_3 
REMARK    2  A    between atoms: C6_9  and  N3_10 
REMARK    3  A    between atoms: N3_10  and  C7_11 
REMARK    4  A    between atoms: C13_18  and  O2_19 
REMARK    5  A    between atoms: O2_19  and  P1_20 
ROOT
HETATM    1  C2  UNL     1      20.726  -0.121  53.046  1.00  0.00     0.104 A 
HETATM    2  C3  UNL     1      21.189  -0.737  54.193  1.00  0.00     0.072 A 
HETATM    3  C4  UNL     1      22.536  -0.824  54.483  1.00  0.00     0.075 A 
HETATM    4  N1  UNL     1      22.956  -1.435  55.614  1.00  0.00    -0.241 NA
HETATM    5  C5  UNL     1      24.284  -1.533  55.922  1.00  0.00     0.236 A 
HETATM    6  N2  UNL     1      25.174  -0.999  55.061  1.00  0.00    -0.224 NA
HETATM    7  C6  UNL     1      24.765  -0.398  53.947  1.00  0.00     0.141 A 
HETATM    8  C11 UNL     1      23.438  -0.275  53.594  1.00  0.00     0.042 A 
HETATM    9  C12 UNL     1      23.016   0.348  52.439  1.00  0.00     0.057 A 
HETATM   10  C13 UNL     1      21.659   0.429  52.159  1.00  0.00     0.107 A 
ENDROOT
BRANCH   7  11
HETATM   11  N3  UNL     1      25.769   0.132  53.101  1.00  0.00    -0.343 N 
HETATM   12  H6  UNL     1      25.750   0.582  52.183  1.00  0.00     0.167 HD
BRANCH  11  13
HETATM   13  C7  UNL     1      27.139   0.095  53.493  1.00  0.00     0.026 A 
HETATM   14  C8  UNL     1      27.987  -0.839  53.114  1.00  0.00     0.002 A 
HETATM   15  C9  UNL     1      29.110  -0.246  53.858  1.00  0.00     0.055 A 
HETATM   16  C10 UNL     1      28.135   0.812  54.283  1.00  0.00     0.135 A 
HETATM   17 CL1  UNL     1      28.613   2.399  53.639  1.00  0.00    -0.118 Cl
ENDBRANCH  11  13
ENDBRANCH   7  11
BRANCH  10  18
HETATM   18  O2  UNL     1      21.338   1.075  50.973  1.00  0.00    -0.327 OA
BRANCH  18  19
HETATM   19  P1  UNL     1      22.533   2.100  50.194  1.00  0.00     0.009 P 
HETATM   20  H12 UNL     1      23.232   1.426  49.113  1.00  0.00     0.085 HD
HETATM   21  H13 UNL     1      22.004   3.388  49.821  1.00  0.00     0.085 HD
ENDBRANCH  18  19
ENDBRANCH  10  18
BRANCH   1  22
HETATM   22  O1  UNL     1      19.388  -0.001  52.699  1.00  0.00    -0.353 OA
HETATM   23  C1  UNL     1      18.524  -1.030  53.180  1.00  0.00     0.210 C 
ENDBRANCH   1  22
TORSDOF 5
ENDMDL
MODEL 2
REMARK VINA RESULT:      -6.8      3.582      6.126
REMARK  5 active torsions:
REMARK  status: ('A' for Active; 'I' for Inactive)
REMARK    1  A    between atoms: O1_2  and  C2_3 
REMARK    2  A    between atoms: C6_9  and  N3_10 
REMARK    3  A    between atoms: N3_10  and  C7_11 
REMARK    4  A    between atoms: C13_18  and  O2_19 
REMARK    5  A    between atoms: O2_19  and  P1_20 
ROOT
HETATM    1  C2  UNL     1      27.464   0.732  53.921  1.00  0.00     0.104 A 
HETATM    2  C3  UNL     1      26.777  -0.047  54.832  1.00  0.00     0.072 A 
HETATM    3  C4  UNL     1      25.449  -0.376  54.657  1.00  0.00     0.075 A 
HETATM    4  N1  UNL     1      24.805  -1.141  55.568  1.00  0.00    -0.241 NA
HETATM    5  C5  UNL     1      23.489  -1.480  55.415  1.00  0.00     0.236 A 
HETATM    6  N2  UNL     1      22.843  -1.028  54.322  1.00  0.00    -0.224 NA
HETATM    7  C6  UNL     1      23.472  -0.275  53.423  1.00  0.00     0.141 A 
HETATM    8  C11 UNL     1      24.796   0.092  53.534  1.00  0.00     0.042 A 
HETATM    9  C12 UNL     1      25.447   0.872  52.601  1.00  0.00     0.057 A 
HETATM   10  C13 UNL     1      26.784   1.196  52.790  1.00  0.00     0.107 A 
ENDROOT
BRANCH   7  11
HETATM   11  N3  UNL     1      22.715   0.156  52.307  1.00  0.00    -0.343 N 
HETATM   12  H6  UNL     1      22.761  -0.046  51.305  1.00  0.00     0.167 HD
BRANCH  11  13
HETATM   13  C7  UNL     1      21.627   1.062  52.476  1.00  0.00     0.026 A 
HETATM   14  C8  UNL     1      21.702   2.354  52.229  1.00  0.00     0.002 A 
HETATM   15  C9  UNL     1      20.301   2.597  52.607  1.00  0.00     0.055 A 
HETATM   16  C10 UNL     1      20.227   1.124  52.886  1.00  0.00     0.135 A 
HETATM   17 CL1  UNL     1      19.080   0.334  51.781  1.00  0.00    -0.118 Cl
ENDBRANCH  11  13
ENDBRANCH   7  11
BRANCH  10  18
HETATM   18  O2  UNL     1      27.346   1.985  51.796  1.00  0.00    -0.327 OA
BRANCH  18  19
HETATM   19  P1  UNL     1      26.300   2.886  50.710  1.00  0.00     0.009 P 
HETATM   20  H12 UNL     1      25.280   3.644  51.414  1.00  0.00     0.085 HD
HETATM   21  H13 UNL     1      27.037   3.668  49.749  1.00  0.00     0.085 HD
ENDBRANCH  18  19
ENDBRANCH  10  18
BRANCH   1  22
HETATM   22  O1  UNL     1      28.798   1.096  54.041  1.00  0.00    -0.353 OA
HETATM   23  C1  UNL     1      29.753   0.104  53.665  1.00  0.00     0.210 C 
ENDBRANCH   1  22
TORSDOF 5
ENDMDL
MODEL 3
REMARK VINA RESULT:      -6.8      2.343      3.458
REMARK  5 active torsions:
REMARK  status: ('A' for Active; 'I' for Inactive)
REMARK    1  A    between atoms: O1_2  and  C2_3 
REMARK    2  A    between atoms: C6_9  and  N3_10 
REMARK    3  A    between atoms: N3_10  and  C7_11 
REMARK    4  A    between atoms: C13_18  and  O2_19 
REMARK    5  A    between atoms: O2_19  and  P1_20 
ROOT
HETATM    1  C2  UNL     1      21.850   1.635  51.730  1.00  0.00     0.104 A 
HETATM    2  C3  UNL     1      22.871   2.317  51.095  1.00  0.00     0.072 A 
HETATM    3  C4  UNL     1      24.200   2.057  51.361  1.00  0.00     0.075 A 
HETATM    4  N1  UNL     1      25.175   2.743  50.722  1.00  0.00    -0.241 NA
HETATM    5  C5  UNL     1      26.497   2.502  50.969  1.00  0.00     0.236 A 
HETATM    6  N2  UNL     1      26.809   1.553  51.874  1.00  0.00    -0.224 NA
HETATM    7  C6  UNL     1      25.853   0.875  52.505  1.00  0.00     0.141 A 
HETATM    8  C11 UNL     1      24.507   1.083  52.289  1.00  0.00     0.042 A 
HETATM    9  C12 UNL     1      23.518   0.380  52.944  1.00  0.00     0.057 A 
HETATM   10  C13 UNL     1      22.185   0.652  52.667  1.00  0.00     0.107 A 
ENDROOT
BRANCH   7  11
HETATM   11  N3  UNL     1      26.272  -0.102  53.439  1.00  0.00    -0.343 N 
HETATM   12  H6  UNL     1      25.774  -0.787  54.012  1.00  0.00     0.167 HD
BRANCH  11  13
HETATM   13  C7  UNL     1      27.656  -0.273  53.737  1.00  0.00     0.026 A 
HETATM   14  C8  UNL     1      28.441  -1.127  53.113  1.00  0.00     0.002 A 
HETATM   15  C9  UNL     1      29.624  -0.756  53.908  1.00  0.00     0.055 A 
HETATM   16  C10 UNL     1      28.719   0.214  54.611  1.00  0.00     0.135 A 
HETATM   17 CL1  UNL     1      29.240   1.887  54.310  1.00  0.00    -0.118 Cl
ENDBRANCH  11  13
ENDBRANCH   7  11
BRANCH  10  18
HETATM   18  O2  UNL     1      21.267  -0.109  53.378  1.00  0.00    -0.327 OA
BRANCH  18  19
HETATM   19  P1  UNL     1      21.841  -1.323  54.512  1.00  0.00     0.009 P 
HETATM   20  H12 UNL     1      21.960  -0.813  55.867  1.00  0.00     0.085 HD
HETATM   21  H13 UNL     1      21.104  -2.558  54.425  1.00  0.00     0.085 HD
ENDBRANCH  18  19
ENDBRANCH  10  18
BRANCH   1  22
HETATM   22  O1  UNL     1      20.498   1.851  51.506  1.00  0.00    -0.353 OA
HETATM   23  C1  UNL     1      19.983   3.105  51.953  1.00  0.00     0.210 C 
ENDBRANCH   1  22
TORSDOF 5
ENDMDL
MODEL 4
REMARK VINA RESULT:      -6.8      3.893      6.573
REMARK  5 active torsions:
REMARK  status: ('A' for Active; 'I' for Inactive)
REMARK    1  A    between atoms: O1_2  and  C2_3 
REMARK    2  A    between atoms: C6_9  and  N3_10 
REMARK    3  A    between atoms: N3_10  and  C7_11 
REMARK    4  A    between atoms: C13_18  and  O2_19 
REMARK    5  A    between atoms: O2_19  and  P1_20 
ROOT
HETATM    1  C2  UNL     1      26.341   1.208  54.049  1.00  0.00     0.104 A 
HETATM    2  C3  UNL     1      25.779   2.447  53.811  1.00  0.00     0.072 A 
HETATM    3  C4  UNL     1      24.565   2.588  53.170  1.00  0.00     0.075 A 
HETATM    4  N1  UNL     1      24.043   3.817  52.952  1.00  0.00    -0.241 NA
HETATM    5  C5  UNL     1      22.842   3.981  52.320  1.00  0.00     0.236 A 
HETATM    6  N2  UNL     1      22.184   2.876  51.916  1.00  0.00    -0.224 NA
HETATM    7  C6  UNL     1      22.694   1.665  52.128  1.00  0.00     0.141 A 
HETATM    8  C11 UNL     1      23.900   1.451  52.761  1.00  0.00     0.042 A 
HETATM    9  C12 UNL     1      24.427   0.195  52.980  1.00  0.00     0.057 A 
HETATM   10  C13 UNL     1      25.650   0.068  53.625  1.00  0.00     0.107 A 
ENDROOT
BRANCH   7  11
HETATM   11  N3  UNL     1      21.935   0.562  51.669  1.00  0.00    -0.343 N 
HETATM   12  H6  UNL     1      22.009  -0.053  50.855  1.00  0.00     0.167 HD
BRANCH  11  13
HETATM   13  C7  UNL     1      20.801   0.107  52.404  1.00  0.00     0.026 A 
HETATM   14  C8  UNL     1      19.627  -0.143  51.861  1.00  0.00     0.002 A 
HETATM   15  C9  UNL     1      19.020  -0.538  53.143  1.00  0.00     0.055 A 
HETATM   16  C10 UNL     1      20.362  -0.249  53.750  1.00  0.00     0.135 A 
HETATM   17 CL1  UNL     1      21.083  -1.735  54.412  1.00  0.00    -0.118 Cl
ENDBRANCH  11  13
ENDBRANCH   7  11
BRANCH  10  18
HETATM   18  O2  UNL     1      26.093  -1.237  53.798  1.00  0.00    -0.327 OA
BRANCH  18  19
HETATM   19  P1  UNL     1      27.032  -2.008  52.528  1.00  0.00     0.009 P 
HETATM   20  H12 UNL     1      26.537  -3.332  52.191  1.00  0.00     0.085 HD
HETATM   21  H13 UNL     1      27.223  -1.155  51.382  1.00  0.00     0.085 HD
ENDBRANCH  18  19
ENDBRANCH  10  18
BRANCH   1  22
HETATM   22  O1  UNL     1      27.556   1.001  54.687  1.00  0.00    -0.353 OA
HETATM   23  C1  UNL     1      28.719   1.393  53.958  1.00  0.00     0.210 C 
ENDBRANCH   1  22
TORSDOF 5
ENDMDL
MODEL 5
REMARK VINA RESULT:      -6.7      3.659      6.096
REMARK  5 active torsions:
REMARK  status: ('A' for Active; 'I' for Inactive)
REMARK    1  A    between atoms: O1_2  and  C2_3 
REMARK    2  A    between atoms: C6_9  and  N3_10 
REMARK    3  A    between atoms: N3_10  and  C7_11 
REMARK    4  A    between atoms: C13_18  and  O2_19 
REMARK    5  A    between atoms: O2_19  and  P1_20 
ROOT
HETATM    1  C2  UNL     1      26.835   0.243  53.136  1.00  0.00     0.104 A 
HETATM    2  C3  UNL     1      25.941  -0.510  53.872  1.00  0.00     0.072 A 
HETATM    3  C4  UNL     1      24.582  -0.267  53.842  1.00  0.00     0.075 A 
HETATM    4  N1  UNL     1      23.733  -1.023  54.575  1.00  0.00    -0.241 NA
HETATM    5  C5  UNL     1      22.385  -0.800  54.561  1.00  0.00     0.236 A 
HETATM    6  N2  UNL     1      21.917   0.201  53.789  1.00  0.00    -0.224 NA
HETATM    7  C6  UNL     1      22.748   0.948  53.066  1.00  0.00     0.141 A 
HETATM    8  C11 UNL     1      24.114   0.761  53.049  1.00  0.00     0.042 A 
HETATM    9  C12 UNL     1      24.974   1.535  52.299  1.00  0.00     0.057 A 
HETATM   10  C13 UNL     1      26.339   1.280  52.339  1.00  0.00     0.107 A 
ENDROOT
BRANCH   7  11
HETATM   11  N3  UNL     1      22.170   1.977  52.287  1.00  0.00    -0.343 N 
HETATM   12  H6  UNL     1      22.146   2.996  52.373  1.00  0.00     0.167 HD
BRANCH  11  13
HETATM   13  C7  UNL     1      21.438   1.666  51.103  1.00  0.00     0.026 A 
HETATM   14  C8  UNL     1      22.000   1.355  49.953  1.00  0.00     0.002 A 
HETATM   15  C9  UNL     1      20.709   1.180  49.268  1.00  0.00     0.055 A 
HETATM   16  C10 UNL     1      20.080   1.535  50.584  1.00  0.00     0.135 A 
HETATM   17 CL1  UNL     1      19.154   0.160  51.227  1.00  0.00    -0.118 Cl
ENDBRANCH  11  13
ENDBRANCH   7  11
BRANCH  10  18
HETATM   18  O2  UNL     1      27.119   2.115  51.549  1.00  0.00    -0.327 OA
BRANCH  18  19
HETATM   19  P1  UNL     1      26.348   3.145  50.353  1.00  0.00     0.009 P 
HETATM   20  H12 UNL     1      25.775   4.348  50.934  1.00  0.00     0.085 HD
HETATM   21  H13 UNL     1      27.192   3.403  49.213  1.00  0.00     0.085 HD
ENDBRANCH  18  19
ENDBRANCH  10  18
BRANCH   1  22
HETATM   22  O1  UNL     1      28.209   0.048  53.124  1.00  0.00    -0.353 OA
HETATM   23  C1  UNL     1      28.881   0.263  54.365  1.00  0.00     0.210 C 
ENDBRANCH   1  22
TORSDOF 5
ENDMDL
MODEL 6
REMARK VINA RESULT:      -6.7      2.690      3.404
REMARK  5 active torsions:
REMARK  status: ('A' for Active; 'I' for Inactive)
REMARK    1  A    between atoms: O1_2  and  C2_3 
REMARK    2  A    between atoms: C6_9  and  N3_10 
REMARK    3  A    between atoms: N3_10  and  C7_11 
REMARK    4  A    between atoms: C13_18  and  O2_19 
REMARK    5  A    between atoms: O2_19  and  P1_20 
ROOT
HETATM    1  C2  UNL     1      22.944   3.767  51.663  1.00  0.00     0.104 A 
HETATM    2  C3  UNL     1      22.393   2.747  52.413  1.00  0.00     0.072 A 
HETATM    3  C4  UNL     1      23.099   1.601  52.720  1.00  0.00     0.075 A 
HETATM    4  N1  UNL     1      22.529   0.621  53.457  1.00  0.00    -0.241 NA
HETATM    5  C5  UNL     1      23.209  -0.522  53.772  1.00  0.00     0.236 A 
HETATM    6  N2  UNL     1      24.475  -0.649  53.326  1.00  0.00    -0.224 NA
HETATM    7  C6  UNL     1      25.039   0.313  52.601  1.00  0.00     0.141 A 
HETATM    8  C11 UNL     1      24.393   1.482  52.258  1.00  0.00     0.042 A 
HETATM    9  C12 UNL     1      24.980   2.478  51.506  1.00  0.00     0.057 A 
HETATM   10  C13 UNL     1      24.259   3.626  51.204  1.00  0.00     0.107 A 
ENDROOT
BRANCH   7  11
HETATM   11  N3  UNL     1      26.371   0.095  52.174  1.00  0.00    -0.343 N 
HETATM   12  H6  UNL     1      26.794  -0.108  51.265  1.00  0.00     0.167 HD
BRANCH  11  13
HETATM   13  C7  UNL     1      27.447   0.140  53.108  1.00  0.00     0.026 A 
HETATM   14  C8  UNL     1      28.362  -0.801  53.221  1.00  0.00     0.002 A 
HETATM   15  C9  UNL     1      29.074  -0.102  54.303  1.00  0.00     0.055 A 
HETATM   16  C10 UNL     1      28.027   0.964  54.165  1.00  0.00     0.135 A 
HETATM   17 CL1  UNL     1      28.756   2.491  53.620  1.00  0.00    -0.118 Cl
ENDBRANCH  11  13
ENDBRANCH   7  11
BRANCH  10  18
HETATM   18  O2  UNL     1      24.938   4.567  50.443  1.00  0.00    -0.327 OA
BRANCH  18  19
HETATM   19  P1  UNL     1      26.390   4.095  49.575  1.00  0.00     0.009 P 
HETATM   20  H12 UNL     1      27.543   3.950  50.447  1.00  0.00     0.085 HD
HETATM   21  H13 UNL     1      26.178   2.963  48.709  1.00  0.00     0.085 HD
ENDBRANCH  18  19
ENDBRANCH  10  18
BRANCH   1  22
HETATM   22  O1  UNL     1      22.287   4.941  51.322  1.00  0.00    -0.353 OA
HETATM   23  C1  UNL     1      21.112   4.791  50.526  1.00  0.00     0.210 C 
ENDBRANCH   1  22
TORSDOF 5
ENDMDL
MODEL 7
REMARK VINA RESULT:      -6.6      3.197      5.517
REMARK  5 active torsions:
REMARK  status: ('A' for Active; 'I' for Inactive)
REMARK    1  A    between atoms: O1_2  and  C2_3 
REMARK    2  A    between atoms: C6_9  and  N3_10 
REMARK    3  A    between atoms: N3_10  and  C7_11 
REMARK    4  A    between atoms: C13_18  and  O2_19 
REMARK    5  A    between atoms: O2_19  and  P1_20 
ROOT
HETATM    1  C2  UNL     1      26.174  -0.423  53.691  1.00  0.00     0.104 A 
HETATM    2  C3  UNL     1      25.146  -0.889  54.487  1.00  0.00     0.072 A 
HETATM    3  C4  UNL     1      23.823  -0.615  54.207  1.00  0.00     0.075 A 
HETATM    4  N1  UNL     1      22.840  -1.087  55.007  1.00  0.00    -0.241 NA
HETATM    5  C5  UNL     1      21.523  -0.828  54.749  1.00  0.00     0.236 A 
HETATM    6  N2  UNL     1      21.225  -0.084  53.665  1.00  0.00    -0.224 NA
HETATM    7  C6  UNL     1      22.189   0.382  52.874  1.00  0.00     0.141 A 
HETATM    8  C11 UNL     1      23.529   0.147  53.095  1.00  0.00     0.042 A 
HETATM    9  C12 UNL     1      24.527   0.631  52.274  1.00  0.00     0.057 A 
HETATM   10  C13 UNL     1      25.854   0.348  52.568  1.00  0.00     0.107 A 
ENDROOT
BRANCH   7  11
HETATM   11  N3  UNL     1      21.784   1.154  51.760  1.00  0.00    -0.343 N 
HETATM   12  H6  UNL     1      21.508   0.919  50.803  1.00  0.00     0.167 HD
BRANCH  11  13
HETATM   13  C7  UNL     1      21.699   2.574  51.856  1.00  0.00     0.026 A 
HETATM   14  C8  UNL     1      20.595   3.225  52.163  1.00  0.00     0.002 A 
HETATM   15  C9  UNL     1      21.243   4.544  52.072  1.00  0.00     0.055 A 
HETATM   16  C10 UNL     1      22.494   3.792  51.723  1.00  0.00     0.135 A 
HETATM   17 CL1  UNL     1      23.735   4.025  52.975  1.00  0.00    -0.118 Cl
ENDBRANCH  11  13
ENDBRANCH   7  11
BRANCH  10  18
HETATM   18  O2  UNL     1      26.781   0.881  51.683  1.00  0.00    -0.327 OA
BRANCH  18  19
HETATM   19  P1  UNL     1      26.516   2.482  51.009  1.00  0.00     0.009 P 
HETATM   20  H12 UNL     1      26.244   3.481  52.028  1.00  0.00     0.085 HD
HETATM   21  H13 UNL     1      27.547   2.872  50.080  1.00  0.00     0.085 HD
ENDBRANCH  18  19
ENDBRANCH  10  18
BRANCH   1  22
HETATM   22  O1  UNL     1      27.522  -0.664  53.920  1.00  0.00    -0.353 OA
HETATM   23  C1  UNL     1      28.162   0.205  54.853  1.00  0.00     0.210 C 
ENDBRANCH   1  22
TORSDOF 5
ENDMDL
MODEL 8
REMARK VINA RESULT:      -6.5      3.898      6.606
REMARK  5 active torsions:
REMARK  status: ('A' for Active; 'I' for Inactive)
REMARK    1  A    between atoms: O1_2  and  C2_3 
REMARK    2  A    between atoms: C6_9  and  N3_10 
REMARK    3  A    between atoms: N3_10  and  C7_11 
REMARK    4  A    between atoms: C13_18  and  O2_19 
REMARK    5  A    between atoms: O2_19  and  P1_20 
ROOT
HETATM    1  C2  UNL     1      27.198  -0.221  53.391  1.00  0.00     0.104 A 
HETATM    2  C3  UNL     1      27.484   0.683  52.386  1.00  0.00     0.072 A 
HETATM    3  C4  UNL     1      26.558   1.610  51.952  1.00  0.00     0.075 A 
HETATM    4  N1  UNL     1      26.870   2.482  50.966  1.00  0.00    -0.241 NA
HETATM    5  C5  UNL     1      25.969   3.409  50.520  1.00  0.00     0.236 A 
HETATM    6  N2  UNL     1      24.750   3.433  51.096  1.00  0.00    -0.224 NA
HETATM    7  C6  UNL     1      24.439   2.578  52.067  1.00  0.00     0.141 A 
HETATM    8  C11 UNL     1      25.314   1.627  52.548  1.00  0.00     0.042 A 
HETATM    9  C12 UNL     1      24.989   0.741  53.554  1.00  0.00     0.057 A 
HETATM   10  C13 UNL     1      25.930  -0.187  53.981  1.00  0.00     0.107 A 
ENDROOT
BRANCH   7  11
HETATM   11  N3  UNL     1      23.137   2.676  52.612  1.00  0.00    -0.343 N 
HETATM   12  H6  UNL     1      22.720   3.261  53.340  1.00  0.00     0.167 HD
BRANCH  11  13
HETATM   13  C7  UNL     1      22.087   1.838  52.133  1.00  0.00     0.026 A 
HETATM   14  C8  UNL     1      22.167   1.116  51.034  1.00  0.00     0.002 A 
HETATM   15  C9  UNL     1      20.809   0.569  51.189  1.00  0.00     0.055 A 
HETATM   16  C10 UNL     1      20.729   1.397  52.438  1.00  0.00     0.135 A 
HETATM   17 CL1  UNL     1      20.577   0.355  53.872  1.00  0.00    -0.118 Cl
ENDBRANCH  11  13
ENDBRANCH   7  11
BRANCH  10  18
HETATM   18  O2  UNL     1      25.507  -1.032  54.997  1.00  0.00    -0.327 OA
BRANCH  18  19
HETATM   19  P1  UNL     1      23.787  -1.252  55.282  1.00  0.00     0.009 P 
HETATM   20  H12 UNL     1      23.360  -0.730  56.569  1.00  0.00     0.085 HD
HETATM   21  H13 UNL     1      22.978  -0.797  54.179  1.00  0.00     0.085 HD
ENDBRANCH  18  19
ENDBRANCH  10  18
BRANCH   1  22
HETATM   22  O1  UNL     1      28.085  -1.176  53.869  1.00  0.00    -0.353 OA
HETATM   23  C1  UNL     1      29.467  -0.924  53.621  1.00  0.00     0.210 C 
ENDBRANCH   1  22
TORSDOF 5
ENDMDL
MODEL 9
REMARK VINA RESULT:      -6.5      3.200      5.538
REMARK  5 active torsions:
REMARK  status: ('A' for Active; 'I' for Inactive)
REMARK    1  A    between atoms: O1_2  and  C2_3 
REMARK    2  A    between atoms: C6_9  and  N3_10 
REMARK    3  A    between atoms: N3_10  and  C7_11 
REMARK    4  A    between atoms: C13_18  and  O2_19 
REMARK    5  A    between atoms: O2_19  and  P1_20 
ROOT
HETATM    1  C2  UNL     1      25.590   3.039  51.228  1.00  0.00     0.104 A 
HETATM    2  C3  UNL     1      26.403   1.925  51.149  1.00  0.00     0.072 A 
HETATM    3  C4  UNL     1      26.231   0.835  51.977  1.00  0.00     0.075 A 
HETATM    4  N1  UNL     1      27.045  -0.241  51.873  1.00  0.00    -0.241 NA
HETATM    5  C5  UNL     1      26.894  -1.332  52.683  1.00  0.00     0.236 A 
HETATM    6  N2  UNL     1      25.901  -1.309  53.595  1.00  0.00    -0.224 NA
HETATM    7  C6  UNL     1      25.098  -0.254  53.700  1.00  0.00     0.141 A 
HETATM    8  C11 UNL     1      25.213   0.868  52.907  1.00  0.00     0.042 A 
HETATM    9  C12 UNL     1      24.379   1.961  53.017  1.00  0.00     0.057 A 
HETATM   10  C13 UNL     1      24.563   3.052  52.178  1.00  0.00     0.107 A 
ENDROOT
BRANCH   7  11
HETATM   11  N3  UNL     1      24.085  -0.317  54.686  1.00  0.00    -0.343 N 
HETATM   12  H6  UNL     1      24.055  -0.082  55.681  1.00  0.00     0.167 HD
BRANCH  11  13
HETATM   13  C7  UNL     1      22.781  -0.790  54.356  1.00  0.00     0.026 A 
HETATM   14  C8  UNL     1      22.126  -1.691  55.059  1.00  0.00     0.002 A 
HETATM   15  C9  UNL     1      20.954  -1.662  54.169  1.00  0.00     0.055 A 
HETATM   16  C10 UNL     1      21.709  -0.636  53.376  1.00  0.00     0.135 A 
HETATM   17 CL1  UNL     1      20.867   0.930  53.415  1.00  0.00    -0.118 Cl
ENDBRANCH  11  13
ENDBRANCH   7  11
BRANCH  10  18
HETATM   18  O2  UNL     1      23.673   4.100  52.369  1.00  0.00    -0.327 OA
BRANCH  18  19
HETATM   19  P1  UNL     1      22.101   4.055  51.586  1.00  0.00     0.009 P 
HETATM   20  H12 UNL     1      21.299   5.233  51.869  1.00  0.00     0.085 HD
HETATM   21  H13 UNL     1      22.187   3.741  50.182  1.00  0.00     0.085 HD
ENDBRANCH  18  19
ENDBRANCH  10  18
BRANCH   1  22
HETATM   22  O1  UNL     1      25.712   4.165  50.425  1.00  0.00    -0.353 OA
HETATM   23  C1  UNL     1      26.717   4.104  49.413  1.00  0.00     0.210 C 
ENDBRANCH   1  22
TORSDOF 5
ENDMDL
