MODEL 1
REMARK VINA RESULT:      -7.7      0.000      0.000
REMARK  3 active torsions:
REMARK  status: ('A' for Active; 'I' for Inactive)
REMARK    1  A    between atoms: C2_2  and  C3_3 
REMARK    2  A    between atoms: N1_4  and  C4_5 
REMARK    3  A    between atoms: C4_5  and  C5_6 
ROOT
HETATM    1  C5  UNL     1      26.147   0.472  54.065  1.00  0.00    -0.051 C 
HETATM    2  C6  UNL     1      25.770  -0.260  55.127  1.00  0.00     0.026 C 
HETATM    3  C7  UNL     1      24.607  -1.030  55.613  1.00  0.00     0.148 C 
HETATM    4  N2  UNL     1      23.792  -0.909  54.681  1.00  0.00    -0.068 NA
HETATM    5  N3  UNL     1      22.475  -1.470  54.635  1.00  0.00     0.233 N 
HETATM    6  C8  UNL     1      21.122  -1.188  54.195  1.00  0.00     0.312 A 
HETATM    7  O1  UNL     1      22.147  -0.418  54.078  1.00  0.00     0.000 OA
HETATM    8  C9  UNL     1      20.651  -0.026  53.554  1.00  0.00     0.049 A 
HETATM    9  C10 UNL     1      20.286   0.930  53.030  1.00  0.00    -0.118 C 
HETATM   10  C11 UNL     1      19.859   2.122  52.384  1.00  0.00     0.255 C 
HETATM   11  O2  UNL     1      20.853   3.126  52.601  1.00  0.00    -0.356 OA
HETATM   12  C12 UNL     1      22.066   2.664  52.096  1.00  0.00     0.344 C 
HETATM   13  O3  UNL     1      23.059   3.640  52.331  1.00  0.00    -0.338 OA
HETATM   14  C13 UNL     1      24.399   3.165  52.367  1.00  0.00     0.134 C 
HETATM   15  C14 UNL     1      25.366   2.243  52.512  1.00  0.00     0.006 C 
HETATM   16  C15 UNL     1      25.394   0.814  52.805  1.00  0.00     0.036 C 
HETATM   17  C16 UNL     1      26.271   0.188  51.699  1.00  0.00     0.019 C 
HETATM   18  H11 UNL     1      22.366  -2.457  55.061  1.00  0.00     0.353 HD
ENDROOT
BRANCH   1  19
HETATM   19  C4  UNL     1      27.519   1.106  54.007  1.00  0.00     0.182 C 
BRANCH  19  20
HETATM   20  N1  UNL     1      28.378   0.582  55.041  1.00  0.00    -0.301 NA
HETATM   21  C3  UNL     1      29.269  -0.249  54.692  1.00  0.00     0.083 C 
BRANCH  21  22
HETATM   22  C2  UNL     1      29.462  -0.699  53.288  1.00  0.00     0.042 C 
HETATM   23  C1  UNL     1      29.097  -2.180  53.180  1.00  0.00     0.010 C 
ENDBRANCH  21  22
ENDBRANCH  19  20
ENDBRANCH   1  19
TORSDOF 3
ENDMDL
MODEL 2
REMARK VINA RESULT:      -7.5      2.877      7.314
REMARK  3 active torsions:
REMARK  status: ('A' for Active; 'I' for Inactive)
REMARK    1  A    between atoms: C2_2  and  C3_3 
REMARK    2  A    between atoms: N1_4  and  C4_5 
REMARK    3  A    between atoms: C4_5  and  C5_6 
ROOT
HETATM    1  C5  UNL     1      21.606   2.349  52.296  1.00  0.00    -0.051 C 
HETATM    2  C6  UNL     1      22.108   3.588  52.176  1.00  0.00     0.026 C 
HETATM    3  C7  UNL     1      23.371   4.266  51.817  1.00  0.00     0.148 C 
HETATM    4  N2  UNL     1      24.126   3.313  51.557  1.00  0.00    -0.068 NA
HETATM    5  N3  UNL     1      25.496   3.410  51.148  1.00  0.00     0.233 N 
HETATM    6  C8  UNL     1      26.788   2.769  51.302  1.00  0.00     0.312 A 
HETATM    7  O1  UNL     1      25.678   2.405  51.843  1.00  0.00     0.000 OA
HETATM    8  C9  UNL     1      27.096   1.628  52.067  1.00  0.00     0.049 A 
HETATM    9  C10 UNL     1      27.327   0.693  52.696  1.00  0.00    -0.118 C 
HETATM   10  C11 UNL     1      27.587  -0.463  53.481  1.00  0.00     0.255 C 
HETATM   11  O2  UNL     1      26.496  -0.641  54.386  1.00  0.00    -0.356 OA
HETATM   12  C12 UNL     1      25.322  -0.766  53.644  1.00  0.00     0.344 C 
HETATM   13  O3  UNL     1      24.235  -0.916  54.533  1.00  0.00    -0.338 OA
HETATM   14  C13 UNL     1      22.962  -0.545  54.023  1.00  0.00     0.134 C 
HETATM   15  C14 UNL     1      22.112   0.093  53.198  1.00  0.00     0.006 C 
HETATM   16  C15 UNL     1      22.260   1.009  52.073  1.00  0.00     0.036 C 
HETATM   17  C16 UNL     1      21.414   0.398  50.935  1.00  0.00     0.019 C 
HETATM   18  H11 UNL     1      25.735   4.229  50.485  1.00  0.00     0.353 HD
ENDROOT
BRANCH   1  19
HETATM   19  C4  UNL     1      20.170   2.130  52.716  1.00  0.00     0.182 C 
BRANCH  19  20
HETATM   20  N1  UNL     1      19.297   3.107  52.111  1.00  0.00    -0.301 NA
HETATM   21  C3  UNL     1      18.243   2.678  51.551  1.00  0.00     0.083 C 
BRANCH  21  22
HETATM   22  C2  UNL     1      17.877   1.239  51.492  1.00  0.00     0.042 C 
HETATM   23  C1  UNL     1      17.852   0.785  50.032  1.00  0.00     0.010 C 
ENDBRANCH  21  22
ENDBRANCH  19  20
ENDBRANCH   1  19
TORSDOF 3
ENDMDL
MODEL 3
REMARK VINA RESULT:      -7.3      2.947      6.210
REMARK  3 active torsions:
REMARK  status: ('A' for Active; 'I' for Inactive)
REMARK    1  A    between atoms: C2_2  and  C3_3 
REMARK    2  A    between atoms: N1_4  and  C4_5 
REMARK    3  A    between atoms: C4_5  and  C5_6 
ROOT
HETATM    1  C5  UNL     1      22.444   1.429  51.548  1.00  0.00    -0.051 C 
HETATM    2  C6  UNL     1      22.118   0.185  51.934  1.00  0.00     0.026 C 
HETATM    3  C7  UNL     1      22.492  -0.817  52.955  1.00  0.00     0.148 C 
HETATM    4  N2  UNL     1      23.373  -0.225  53.605  1.00  0.00    -0.068 NA
HETATM    5  N3  UNL     1      24.088  -0.753  54.728  1.00  0.00     0.233 N 
HETATM    6  C8  UNL     1      25.398  -0.772  55.349  1.00  0.00     0.312 A 
HETATM    7  O1  UNL     1      25.067  -0.158  54.267  1.00  0.00     0.000 OA
HETATM    8  C9  UNL     1      26.570  -0.130  54.904  1.00  0.00     0.049 A 
HETATM    9  C10 UNL     1      27.516   0.404  54.525  1.00  0.00    -0.118 C 
HETATM   10  C11 UNL     1      28.671   1.073  54.036  1.00  0.00     0.255 C 
HETATM   11  O2  UNL     1      28.441   1.413  52.667  1.00  0.00    -0.356 OA
HETATM   12  C12 UNL     1      27.304   2.216  52.596  1.00  0.00     0.344 C 
HETATM   13  O3  UNL     1      27.055   2.534  51.243  1.00  0.00    -0.338 OA
HETATM   14  C13 UNL     1      25.714   2.882  50.925  1.00  0.00     0.134 C 
HETATM   15  C14 UNL     1      24.382   2.915  51.107  1.00  0.00     0.006 C 
HETATM   16  C15 UNL     1      23.465   2.385  52.110  1.00  0.00     0.036 C 
HETATM   17  C16 UNL     1      22.604   3.588  52.552  1.00  0.00     0.019 C 
HETATM   18  H11 UNL     1      23.515  -1.369  55.407  1.00  0.00     0.353 HD
ENDROOT
BRANCH   1  19
HETATM   19  C4  UNL     1      21.748   2.086  50.377  1.00  0.00     0.182 C 
BRANCH  19  20
HETATM   20  N1  UNL     1      21.395   1.113  49.371  1.00  0.00    -0.301 NA
HETATM   21  C3  UNL     1      21.814   1.317  48.192  1.00  0.00     0.083 C 
BRANCH  21  22
HETATM   22  C2  UNL     1      22.637   2.495  47.809  1.00  0.00     0.042 C 
HETATM   23  C1  UNL     1      21.882   3.319  46.766  1.00  0.00     0.010 C 
ENDBRANCH  21  22
ENDBRANCH  19  20
ENDBRANCH   1  19
TORSDOF 3
ENDMDL
MODEL 4
REMARK VINA RESULT:      -6.9      3.330      5.332
REMARK  3 active torsions:
REMARK  status: ('A' for Active; 'I' for Inactive)
REMARK    1  A    between atoms: C2_2  and  C3_3 
REMARK    2  A    between atoms: N1_4  and  C4_5 
REMARK    3  A    between atoms: C4_5  and  C5_6 
ROOT
HETATM    1  C5  UNL     1      24.550   3.664  50.285  1.00  0.00    -0.051 C 
HETATM    2  C6  UNL     1      25.727   3.410  50.881  1.00  0.00     0.026 C 
HETATM    3  C7  UNL     1      26.388   2.354  51.674  1.00  0.00     0.148 C 
HETATM    4  N2  UNL     1      25.507   1.478  51.747  1.00  0.00    -0.068 NA
HETATM    5  N3  UNL     1      25.624   0.219  52.420  1.00  0.00     0.233 N 
HETATM    6  C8  UNL     1      24.875  -0.727  53.225  1.00  0.00     0.312 A 
HETATM    7  O1  UNL     1      24.445   0.388  52.745  1.00  0.00     0.000 OA
HETATM    8  C9  UNL     1      23.535  -0.626  53.645  1.00  0.00     0.049 A 
HETATM    9  C10 UNL     1      22.438  -0.525  53.977  1.00  0.00    -0.118 C 
HETATM   10  C11 UNL     1      21.081  -0.378  54.374  1.00  0.00     0.255 C 
HETATM   11  O2  UNL     1      20.715   0.993  54.207  1.00  0.00    -0.356 OA
HETATM   12  C12 UNL     1      20.909   1.343  52.872  1.00  0.00     0.344 C 
HETATM   13  O3  UNL     1      20.574   2.705  52.704  1.00  0.00    -0.338 OA
HETATM   14  C13 UNL     1      21.176   3.358  51.595  1.00  0.00     0.134 C 
HETATM   15  C14 UNL     1      22.096   3.535  50.630  1.00  0.00     0.006 C 
HETATM   16  C15 UNL     1      23.299   2.826  50.210  1.00  0.00     0.036 C 
HETATM   17  C16 UNL     1      23.129   2.597  48.692  1.00  0.00     0.019 C 
HETATM   18  H11 UNL     1      26.587  -0.267  52.351  1.00  0.00     0.353 HD
ENDROOT
BRANCH   1  19
HETATM   19  C4  UNL     1      24.319   4.960  49.542  1.00  0.00     0.182 C 
BRANCH  19  20
HETATM   20  N1  UNL     1      24.876   6.079  50.264  1.00  0.00    -0.301 NA
HETATM   21  C3  UNL     1      25.808   6.728  49.701  1.00  0.00     0.083 C 
BRANCH  21  22
HETATM   22  C2  UNL     1      26.342   6.391  48.355  1.00  0.00     0.042 C 
HETATM   23  C1  UNL     1      27.696   5.698  48.510  1.00  0.00     0.010 C 
ENDBRANCH  21  22
ENDBRANCH  19  20
ENDBRANCH   1  19
TORSDOF 3
ENDMDL
MODEL 5
REMARK VINA RESULT:      -6.8      4.488      6.746
REMARK  3 active torsions:
REMARK  status: ('A' for Active; 'I' for Inactive)
REMARK    1  A    between atoms: C2_2  and  C3_3 
REMARK    2  A    between atoms: N1_4  and  C4_5 
REMARK    3  A    between atoms: C4_5  and  C5_6 
ROOT
HETATM    1  C5  UNL     1      23.840   2.911  51.459  1.00  0.00    -0.051 C 
HETATM    2  C6  UNL     1      23.390   3.679  52.465  1.00  0.00     0.026 C 
HETATM    3  C7  UNL     1      23.083   5.095  52.757  1.00  0.00     0.148 C 
HETATM    4  N2  UNL     1      23.346   5.657  51.679  1.00  0.00    -0.068 NA
HETATM    5  N3  UNL     1      23.225   7.059  51.409  1.00  0.00     0.233 N 
HETATM    6  C8  UNL     1      23.865   8.150  50.700  1.00  0.00     0.312 A 
HETATM    7  O1  UNL     1      24.257   6.925  50.742  1.00  0.00     0.000 OA
HETATM    8  C9  UNL     1      25.035   8.099  49.918  1.00  0.00     0.049 A 
HETATM    9  C10 UNL     1      25.992   8.037  49.282  1.00  0.00    -0.118 C 
HETATM   10  C11 UNL     1      27.175   7.934  48.502  1.00  0.00     0.255 C 
HETATM   11  O2  UNL     1      27.835   6.716  48.854  1.00  0.00    -0.356 OA
HETATM   12  C12 UNL     1      26.961   5.656  48.619  1.00  0.00     0.344 C 
HETATM   13  O3  UNL     1      27.597   4.451  48.990  1.00  0.00    -0.338 OA
HETATM   14  C13 UNL     1      26.733   3.368  49.312  1.00  0.00     0.134 C 
HETATM   15  C14 UNL     1      25.577   2.796  49.690  1.00  0.00     0.006 C 
HETATM   16  C15 UNL     1      24.255   3.289  50.060  1.00  0.00     0.036 C 
HETATM   17  C16 UNL     1      23.264   2.496  49.181  1.00  0.00     0.019 C 
HETATM   18  H11 UNL     1      22.377   7.556  51.857  1.00  0.00     0.353 HD
ENDROOT
BRANCH   1  19
HETATM   19  C4  UNL     1      24.002   1.418  51.634  1.00  0.00     0.182 C 
BRANCH  19  20
HETATM   20  N1  UNL     1      24.203   1.076  53.022  1.00  0.00    -0.301 NA
HETATM   21  C3  UNL     1      25.334   0.604  53.345  1.00  0.00     0.083 C 
BRANCH  21  22
HETATM   22  C2  UNL     1      26.440   0.391  52.374  1.00  0.00     0.042 C 
HETATM   23  C1  UNL     1      27.548   1.410  52.642  1.00  0.00     0.010 C 
ENDBRANCH  21  22
ENDBRANCH  19  20
ENDBRANCH   1  19
TORSDOF 3
ENDMDL
MODEL 6
REMARK VINA RESULT:      -6.7      3.123      5.926
REMARK  3 active torsions:
REMARK  status: ('A' for Active; 'I' for Inactive)
REMARK    1  A    between atoms: C2_2  and  C3_3 
REMARK    2  A    between atoms: N1_4  and  C4_5 
REMARK    3  A    between atoms: C4_5  and  C5_6 
ROOT
HETATM    1  C5  UNL     1      23.076   2.302  50.370  1.00  0.00    -0.051 C 
HETATM    2  C6  UNL     1      22.028   1.535  50.030  1.00  0.00     0.026 C 
HETATM    3  C7  UNL     1      21.051   0.616  50.649  1.00  0.00     0.148 C 
HETATM    4  N2  UNL     1      21.380   0.639  51.849  1.00  0.00    -0.068 NA
HETATM    5  N3  UNL     1      20.750  -0.090  52.909  1.00  0.00     0.233 N 
HETATM    6  C8  UNL     1      21.037  -0.812  54.134  1.00  0.00     0.312 A 
HETATM    7  O1  UNL     1      21.890  -0.236  53.361  1.00  0.00     0.000 OA
HETATM    8  C9  UNL     1      22.295  -1.032  54.728  1.00  0.00     0.049 A 
HETATM    9  C10 UNL     1      23.331  -1.199  55.199  1.00  0.00    -0.118 C 
HETATM   10  C11 UNL     1      24.622  -1.392  55.761  1.00  0.00     0.255 C 
HETATM   11  O2  UNL     1      25.593  -1.124  54.747  1.00  0.00    -0.356 OA
HETATM   12  C12 UNL     1      25.410   0.181  54.294  1.00  0.00     0.344 C 
HETATM   13  O3  UNL     1      26.349   0.445  53.272  1.00  0.00    -0.338 OA
HETATM   14  C13 UNL     1      26.000   1.480  52.362  1.00  0.00     0.134 C 
HETATM   15  C14 UNL     1      25.163   2.308  51.714  1.00  0.00     0.006 C 
HETATM   16  C15 UNL     1      23.721   2.525  51.715  1.00  0.00     0.036 C 
HETATM   17  C16 UNL     1      23.536   4.042  51.937  1.00  0.00     0.019 C 
HETATM   18  H11 UNL     1      19.675  -0.178  52.850  1.00  0.00     0.353 HD
ENDROOT
BRANCH   1  19
HETATM   19  C4  UNL     1      23.812   3.117  49.331  1.00  0.00     0.182 C 
BRANCH  19  20
HETATM   20  N1  UNL     1      22.889   3.782  48.443  1.00  0.00    -0.301 NA
HETATM   21  C3  UNL     1      23.134   4.990  48.148  1.00  0.00     0.083 C 
BRANCH  21  22
HETATM   22  C2  UNL     1      24.310   5.737  48.668  1.00  0.00     0.042 C 
HETATM   23  C1  UNL     1      23.826   6.866  49.578  1.00  0.00     0.010 C 
ENDBRANCH  21  22
ENDBRANCH  19  20
ENDBRANCH   1  19
TORSDOF 3
ENDMDL
MODEL 7
REMARK VINA RESULT:      -6.7      2.663      4.103
REMARK  3 active torsions:
REMARK  status: ('A' for Active; 'I' for Inactive)
REMARK    1  A    between atoms: C2_2  and  C3_3 
REMARK    2  A    between atoms: N1_4  and  C4_5 
REMARK    3  A    between atoms: C4_5  and  C5_6 
ROOT
HETATM    1  C5  UNL     1      26.049   1.870  51.850  1.00  0.00    -0.051 C 
HETATM    2  C6  UNL     1      26.186   2.519  50.682  1.00  0.00     0.026 C 
HETATM    3  C7  UNL     1      25.415   3.403  49.783  1.00  0.00     0.148 C 
HETATM    4  N2  UNL     1      24.334   3.528  50.387  1.00  0.00    -0.068 NA
HETATM    5  N3  UNL     1      23.207   4.296  49.947  1.00  0.00     0.233 N 
HETATM    6  C8  UNL     1      21.758   4.291  49.915  1.00  0.00     0.312 A 
HETATM    7  O1  UNL     1      22.520   3.385  50.420  1.00  0.00     0.000 OA
HETATM    8  C9  UNL     1      20.889   3.306  50.424  1.00  0.00     0.049 A 
HETATM    9  C10 UNL     1      20.197   2.491  50.847  1.00  0.00    -0.118 C 
HETATM   10  C11 UNL     1      19.362   1.471  51.379  1.00  0.00     0.255 C 
HETATM   11  O2  UNL     1      20.160   0.300  51.574  1.00  0.00    -0.356 OA
HETATM   12  C12 UNL     1      21.209   0.619  52.435  1.00  0.00     0.344 C 
HETATM   13  O3  UNL     1      22.017  -0.526  52.611  1.00  0.00    -0.338 OA
HETATM   14  C13 UNL     1      23.360  -0.281  53.006  1.00  0.00     0.134 C 
HETATM   15  C14 UNL     1      24.481   0.449  53.146  1.00  0.00     0.006 C 
HETATM   16  C15 UNL     1      24.876   1.808  52.796  1.00  0.00     0.036 C 
HETATM   17  C16 UNL     1      25.450   2.414  54.095  1.00  0.00     0.019 C 
HETATM   18  H11 UNL     1      23.434   5.229  49.452  1.00  0.00     0.353 HD
ENDROOT
BRANCH   1  19
HETATM   19  C4  UNL     1      27.178   1.035  52.411  1.00  0.00     0.182 C 
BRANCH  19  20
HETATM   20  N1  UNL     1      28.272   1.868  52.849  1.00  0.00    -0.301 NA
HETATM   21  C3  UNL     1      29.058   1.384  53.718  1.00  0.00     0.083 C 
BRANCH  21  22
HETATM   22  C2  UNL     1      28.902   0.023  54.295  1.00  0.00     0.042 C 
HETATM   23  C1  UNL     1      29.974  -0.897  53.711  1.00  0.00     0.010 C 
ENDBRANCH  21  22
ENDBRANCH  19  20
ENDBRANCH   1  19
TORSDOF 3
ENDMDL
MODEL 8
REMARK VINA RESULT:      -6.4      3.426      4.872
REMARK  3 active torsions:
REMARK  status: ('A' for Active; 'I' for Inactive)
REMARK    1  A    between atoms: C2_2  and  C3_3 
REMARK    2  A    between atoms: N1_4  and  C4_5 
REMARK    3  A    between atoms: C4_5  and  C5_6 
ROOT
HETATM    1  C5  UNL     1      21.745   1.305  52.700  1.00  0.00    -0.051 C 
HETATM    2  C6  UNL     1      21.842   0.535  53.796  1.00  0.00     0.026 C 
HETATM    3  C7  UNL     1      21.149  -0.595  54.448  1.00  0.00     0.148 C 
HETATM    4  N2  UNL     1      20.216  -0.833  53.660  1.00  0.00    -0.068 NA
HETATM    5  N3  UNL     1      19.221  -1.851  53.816  1.00  0.00     0.233 N 
HETATM    6  C8  UNL     1      17.812  -2.121  53.602  1.00  0.00     0.312 A 
HETATM    7  O1  UNL     1      18.436  -1.027  53.336  1.00  0.00     0.000 OA
HETATM    8  C9  UNL     1      16.842  -1.253  53.064  1.00  0.00     0.049 A 
HETATM    9  C10 UNL     1      16.065  -0.530  52.621  1.00  0.00    -0.118 C 
HETATM   10  C11 UNL     1      15.124   0.381  52.070  1.00  0.00     0.255 C 
HETATM   11  O2  UNL     1      15.682   1.695  52.143  1.00  0.00    -0.356 OA
HETATM   12  C12 UNL     1      16.887   1.702  51.443  1.00  0.00     0.344 C 
HETATM   13  O3  UNL     1      17.458   2.991  51.533  1.00  0.00    -0.338 OA
HETATM   14  C13 UNL     1      18.866   3.058  51.347  1.00  0.00     0.134 C 
HETATM   15  C14 UNL     1      20.121   2.578  51.320  1.00  0.00     0.006 C 
HETATM   16  C15 UNL     1      20.734   1.280  51.581  1.00  0.00     0.036 C 
HETATM   17  C16 UNL     1      21.602   0.982  50.340  1.00  0.00     0.019 C 
HETATM   18  H11 UNL     1      19.562  -2.786  54.237  1.00  0.00     0.353 HD
ENDROOT
BRANCH   1  19
HETATM   19  C4  UNL     1      22.746   2.407  52.433  1.00  0.00     0.182 C 
BRANCH  19  20
HETATM   20  N1  UNL     1      24.005   2.134  53.085  1.00  0.00    -0.301 NA
HETATM   21  C3  UNL     1      25.054   2.211  52.378  1.00  0.00     0.083 C 
BRANCH  21  22
HETATM   22  C2  UNL     1      25.043   2.563  50.934  1.00  0.00     0.042 C 
HETATM   23  C1  UNL     1      26.470   2.875  50.481  1.00  0.00     0.010 C 
ENDBRANCH  21  22
ENDBRANCH  19  20
ENDBRANCH   1  19
TORSDOF 3
ENDMDL
MODEL 9
REMARK VINA RESULT:      -6.4      4.735      7.185
REMARK  3 active torsions:
REMARK  status: ('A' for Active; 'I' for Inactive)
REMARK    1  A    between atoms: C2_2  and  C3_3 
REMARK    2  A    between atoms: N1_4  and  C4_5 
REMARK    3  A    between atoms: C4_5  and  C5_6 
ROOT
HETATM    1  C5  UNL     1      18.995   0.220  51.996  1.00  0.00    -0.051 C 
HETATM    2  C6  UNL     1      18.646  -0.741  52.867  1.00  0.00     0.026 C 
HETATM    3  C7  UNL     1      17.435  -1.329  53.477  1.00  0.00     0.148 C 
HETATM    4  N2  UNL     1      16.520  -0.670  52.951  1.00  0.00    -0.068 NA
HETATM    5  N3  UNL     1      15.118  -0.832  53.196  1.00  0.00     0.233 N 
HETATM    6  C8  UNL     1      13.884  -0.084  53.340  1.00  0.00     0.312 A 
HETATM    7  O1  UNL     1      15.054   0.398  53.108  1.00  0.00     0.000 OA
HETATM    8  C9  UNL     1      13.709   1.311  53.256  1.00  0.00     0.049 A 
HETATM    9  C10 UNL     1      13.587   2.452  53.182  1.00  0.00    -0.118 C 
HETATM   10  C11 UNL     1      13.462   3.865  53.087  1.00  0.00     0.255 C 
HETATM   11  O2  UNL     1      14.763   4.438  53.232  1.00  0.00    -0.356 OA
HETATM   12  C12 UNL     1      15.588   3.918  52.236  1.00  0.00     0.344 C 
HETATM   13  O3  UNL     1      16.884   4.459  52.389  1.00  0.00    -0.338 OA
HETATM   14  C13 UNL     1      17.944   3.693  51.833  1.00  0.00     0.134 C 
HETATM   15  C14 UNL     1      18.538   2.578  51.372  1.00  0.00     0.006 C 
HETATM   16  C15 UNL     1      18.136   1.185  51.218  1.00  0.00     0.036 C 
HETATM   17  C16 UNL     1      18.459   0.826  49.751  1.00  0.00     0.019 C 
HETATM   18  H11 UNL     1      14.775  -1.848  53.333  1.00  0.00     0.353 HD
ENDROOT
BRANCH   1  19
HETATM   19  C4  UNL     1      20.447   0.474  51.660  1.00  0.00     0.182 C 
BRANCH  19  20
HETATM   20  N1  UNL     1      21.098   1.229  52.704  1.00  0.00    -0.301 NA
HETATM   21  C3  UNL     1      21.952   0.621  53.415  1.00  0.00     0.083 C 
BRANCH  21  22
HETATM   22  C2  UNL     1      22.305  -0.811  53.225  1.00  0.00     0.042 C 
HETATM   23  C1  UNL     1      21.949  -1.590  54.491  1.00  0.00     0.010 C 
ENDBRANCH  21  22
ENDBRANCH  19  20
ENDBRANCH   1  19
TORSDOF 3
ENDMDL
