MODEL 1
REMARK VINA RESULT:      -8.0      0.000      0.000
REMARK  3 active torsions:
REMARK  status: ('A' for Active; 'I' for Inactive)
REMARK    1  A    between atoms: C4_4  and  C5_5 
REMARK    2  A    between atoms: C5_5  and  O1_6 
REMARK    3  A    between atoms: O1_6  and  C6_7 
ROOT
HETATM    1  C6  UNL     1      26.081  -0.539  52.310  1.00  0.00     0.146 C 
HETATM    2  C7  UNL     1      25.304   0.315  52.926  1.00  0.00    -0.008 C 
HETATM    3  C8  UNL     1      24.807  -0.139  54.212  1.00  0.00     0.026 C 
HETATM    4  C9  UNL     1      23.630  -0.700  54.088  1.00  0.00    -0.021 C 
HETATM    5  C10 UNL     1      23.120  -0.763  52.891  1.00  0.00     0.062 C 
HETATM    6  C11 UNL     1      22.546   0.477  52.442  1.00  0.00     0.151 C 
HETATM    7  O2  UNL     1      22.328   0.702  51.192  1.00  0.00    -0.293 OA
HETATM    8  C12 UNL     1      22.004   1.813  52.756  1.00  0.00     0.102 C 
HETATM    9  C13 UNL     1      21.866   2.793  51.673  1.00  0.00     0.125 C 
HETATM   10  N1  UNL     1      22.882   3.340  50.934  1.00  0.00    -0.401 N 
HETATM   11  C14 UNL     1      23.037   2.904  49.574  1.00  0.00     0.143 C 
HETATM   12  C15 UNL     1      23.523   4.140  48.802  1.00  0.00     0.187 C 
HETATM   13  O3  UNL     1      24.785   4.424  49.319  1.00  0.00    -0.387 OA
HETATM   14  C16 UNL     1      24.761   4.755  50.650  1.00  0.00     0.196 C 
HETATM   15  C17 UNL     1      24.183   3.650  51.482  1.00  0.00     0.126 C 
HETATM   16  C18 UNL     1      25.013   2.412  51.189  1.00  0.00     0.007 C 
HETATM   17  C19 UNL     1      25.121   1.437  52.056  1.00  0.00    -0.052 C 
HETATM   18  C20 UNL     1      25.350   2.257  53.300  1.00  0.00     0.049 C 
ENDROOT
BRANCH   1  19
HETATM   19  O1  UNL     1      26.656  -1.796  52.412  1.00  0.00    -0.358 OA
BRANCH  19  20
HETATM   20  C5  UNL     1      27.895  -1.956  53.049  1.00  0.00     0.209 C 
BRANCH  20  21
HETATM   21  C4  UNL     1      28.426  -0.663  53.592  1.00  0.00    -0.051 A 
HETATM   22  C3  UNL     1      29.079   0.333  52.969  1.00  0.00     0.012 A 
HETATM   23  C2  UNL     1      29.168   1.083  54.218  1.00  0.00    -0.063 A 
HETATM   24  C1  UNL     1      29.688   2.261  54.580  1.00  0.00     0.019 C 
HETATM   25  C21 UNL     1      28.443  -0.013  54.910  1.00  0.00     0.074 A 
ENDBRANCH  20  21
ENDBRANCH  19  20
ENDBRANCH   1  19
TORSDOF 3
ENDMDL
MODEL 2
REMARK VINA RESULT:      -7.6      3.525      5.158
REMARK  3 active torsions:
REMARK  status: ('A' for Active; 'I' for Inactive)
REMARK    1  A    between atoms: C4_4  and  C5_5 
REMARK    2  A    between atoms: C5_5  and  O1_6 
REMARK    3  A    between atoms: O1_6  and  C6_7 
ROOT
HETATM    1  C6  UNL     1      22.023   1.532  50.138  1.00  0.00     0.146 C 
HETATM    2  C7  UNL     1      23.006   2.378  50.307  1.00  0.00    -0.008 C 
HETATM    3  C8  UNL     1      23.978   1.982  51.310  1.00  0.00     0.026 C 
HETATM    4  C9  UNL     1      23.690   2.508  52.475  1.00  0.00    -0.021 C 
HETATM    5  C10 UNL     1      22.629   3.260  52.546  1.00  0.00     0.062 C 
HETATM    6  C11 UNL     1      22.826   4.587  52.025  1.00  0.00     0.151 C 
HETATM    7  O2  UNL     1      21.829   5.331  51.689  1.00  0.00    -0.293 OA
HETATM    8  C12 UNL     1      23.743   5.674  51.633  1.00  0.00     0.102 C 
HETATM    9  C13 UNL     1      23.231   6.764  50.797  1.00  0.00     0.125 C 
HETATM   10  N1  UNL     1      22.756   6.656  49.516  1.00  0.00    -0.401 N 
HETATM   11  C14 UNL     1      21.338   6.771  49.311  1.00  0.00     0.143 C 
HETATM   12  C15 UNL     1      21.178   7.469  47.951  1.00  0.00     0.187 C 
HETATM   13  O3  UNL     1      21.686   6.572  47.015  1.00  0.00    -0.387 OA
HETATM   14  C16 UNL     1      23.021   6.310  47.187  1.00  0.00     0.196 C 
HETATM   15  C17 UNL     1      23.300   5.735  48.543  1.00  0.00     0.126 C 
HETATM   16  C18 UNL     1      22.427   4.499  48.675  1.00  0.00     0.007 C 
HETATM   17  C19 UNL     1      22.750   3.510  49.469  1.00  0.00    -0.052 C 
HETATM   18  C20 UNL     1      24.214   3.403  49.121  1.00  0.00     0.049 C 
ENDROOT
BRANCH   1  19
HETATM   19  O1  UNL     1      21.509   0.321  50.571  1.00  0.00    -0.358 OA
BRANCH  19  20
HETATM   20  C5  UNL     1      20.660   0.272  51.686  1.00  0.00     0.209 C 
BRANCH  20  21
HETATM   21  C4  UNL     1      21.369  -0.204  52.919  1.00  0.00    -0.051 A 
HETATM   22  C3  UNL     1      22.439  -1.007  53.045  1.00  0.00     0.012 A 
HETATM   23  C2  UNL     1      22.379  -0.892  54.499  1.00  0.00    -0.063 A 
HETATM   24  C1  UNL     1      23.091  -1.386  55.519  1.00  0.00     0.019 C 
HETATM   25  C21 UNL     1      21.199  -0.002  54.365  1.00  0.00     0.074 A 
ENDBRANCH  20  21
ENDBRANCH  19  20
ENDBRANCH   1  19
TORSDOF 3
ENDMDL
MODEL 3
REMARK VINA RESULT:      -7.6      1.825      3.290
REMARK  3 active torsions:
REMARK  status: ('A' for Active; 'I' for Inactive)
REMARK    1  A    between atoms: C4_4  and  C5_5 
REMARK    2  A    between atoms: C5_5  and  O1_6 
REMARK    3  A    between atoms: O1_6  and  C6_7 
ROOT
HETATM    1  C6  UNL     1      23.953   2.044  53.008  1.00  0.00     0.146 C 
HETATM    2  C7  UNL     1      23.017   2.727  52.401  1.00  0.00    -0.008 C 
HETATM    3  C8  UNL     1      21.717   2.081  52.377  1.00  0.00     0.026 C 
HETATM    4  C9  UNL     1      21.554   1.398  51.270  1.00  0.00    -0.021 C 
HETATM    5  C10 UNL     1      22.535   1.403  50.414  1.00  0.00     0.062 C 
HETATM    6  C11 UNL     1      22.610   2.607  49.629  1.00  0.00     0.151 C 
HETATM    7  O2  UNL     1      23.689   2.936  49.007  1.00  0.00    -0.293 OA
HETATM    8  C12 UNL     1      21.962   3.826  49.108  1.00  0.00     0.102 C 
HETATM    9  C13 UNL     1      22.802   4.892  48.554  1.00  0.00     0.125 C 
HETATM   10  N1  UNL     1      23.731   5.635  49.235  1.00  0.00    -0.401 N 
HETATM   11  C14 UNL     1      25.121   5.369  48.985  1.00  0.00     0.143 C 
HETATM   12  C15 UNL     1      25.824   6.731  49.099  1.00  0.00     0.187 C 
HETATM   13  O3  UNL     1      25.681   7.108  50.432  1.00  0.00    -0.387 OA
HETATM   14  C16 UNL     1      24.373   7.288  50.806  1.00  0.00     0.196 C 
HETATM   15  C17 UNL     1      23.568   6.039  50.614  1.00  0.00     0.126 C 
HETATM   16  C18 UNL     1      24.270   4.949  51.405  1.00  0.00     0.007 C 
HETATM   17  C19 UNL     1      23.624   3.906  51.861  1.00  0.00    -0.052 C 
HETATM   18  C20 UNL     1      22.406   4.610  52.406  1.00  0.00     0.049 C 
ENDROOT
BRANCH   1  19
HETATM   19  O1  UNL     1      24.209   0.863  53.685  1.00  0.00    -0.358 OA
BRANCH  19  20
HETATM   20  C5  UNL     1      24.689  -0.258  52.993  1.00  0.00     0.209 C 
BRANCH  20  21
HETATM   21  C4  UNL     1      26.165  -0.449  53.175  1.00  0.00    -0.051 A 
HETATM   22  C3  UNL     1      26.995  -1.347  52.617  1.00  0.00     0.012 A 
HETATM   23  C2  UNL     1      28.126  -0.785  53.348  1.00  0.00    -0.063 A 
HETATM   24  C1  UNL     1      29.434  -1.059  53.427  1.00  0.00     0.019 C 
HETATM   25  C21 UNL     1      27.214   0.211  53.965  1.00  0.00     0.074 A 
ENDBRANCH  20  21
ENDBRANCH  19  20
ENDBRANCH   1  19
TORSDOF 3
ENDMDL
MODEL 4
REMARK VINA RESULT:      -7.5      2.410      4.073
REMARK  3 active torsions:
REMARK  status: ('A' for Active; 'I' for Inactive)
REMARK    1  A    between atoms: C4_4  and  C5_5 
REMARK    2  A    between atoms: C5_5  and  O1_6 
REMARK    3  A    between atoms: O1_6  and  C6_7 
ROOT
HETATM    1  C6  UNL     1      23.124   0.635  52.836  1.00  0.00     0.146 C 
HETATM    2  C7  UNL     1      23.121   1.414  51.784  1.00  0.00    -0.008 C 
HETATM    3  C8  UNL     1      24.427   1.922  51.405  1.00  0.00     0.026 C 
HETATM    4  C9  UNL     1      24.644   3.100  51.935  1.00  0.00    -0.021 C 
HETATM    5  C10 UNL     1      23.703   3.601  52.684  1.00  0.00     0.062 C 
HETATM    6  C11 UNL     1      22.611   4.167  51.938  1.00  0.00     0.151 C 
HETATM    7  O2  UNL     1      21.463   4.376  52.484  1.00  0.00    -0.293 OA
HETATM    8  C12 UNL     1      22.084   4.707  50.670  1.00  0.00     0.102 C 
HETATM    9  C13 UNL     1      20.632   4.833  50.505  1.00  0.00     0.125 C 
HETATM   10  N1  UNL     1      19.721   3.811  50.488  1.00  0.00    -0.401 N 
HETATM   11  C14 UNL     1      18.871   3.646  51.635  1.00  0.00     0.143 C 
HETATM   12  C15 UNL     1      17.527   3.150  51.079  1.00  0.00     0.187 C 
HETATM   13  O3  UNL     1      17.792   1.892  50.544  1.00  0.00    -0.387 OA
HETATM   14  C16 UNL     1      18.681   1.925  49.500  1.00  0.00     0.196 C 
HETATM   15  C17 UNL     1      19.997   2.512  49.915  1.00  0.00     0.126 C 
HETATM   16  C18 UNL     1      20.486   1.685  51.091  1.00  0.00     0.007 C 
HETATM   17  C19 UNL     1      21.759   1.586  51.379  1.00  0.00    -0.052 C 
HETATM   18  C20 UNL     1      22.295   1.364  49.987  1.00  0.00     0.049 C 
ENDROOT
BRANCH   1  19
HETATM   19  O1  UNL     1      23.943   0.065  53.797  1.00  0.00    -0.358 OA
BRANCH  19  20
HETATM   20  C5  UNL     1      24.824  -0.969  53.451  1.00  0.00     0.209 C 
BRANCH  20  21
HETATM   21  C4  UNL     1      26.261  -0.557  53.572  1.00  0.00    -0.051 A 
HETATM   22  C3  UNL     1      27.330  -0.924  52.844  1.00  0.00     0.012 A 
HETATM   23  C2  UNL     1      28.197  -0.071  53.650  1.00  0.00    -0.063 A 
HETATM   24  C1  UNL     1      29.504   0.215  53.658  1.00  0.00     0.019 C 
HETATM   25  C21 UNL     1      27.018   0.342  54.455  1.00  0.00     0.074 A 
ENDBRANCH  20  21
ENDBRANCH  19  20
ENDBRANCH   1  19
TORSDOF 3
ENDMDL
MODEL 5
REMARK VINA RESULT:      -7.3      2.263      4.895
REMARK  3 active torsions:
REMARK  status: ('A' for Active; 'I' for Inactive)
REMARK    1  A    between atoms: C4_4  and  C5_5 
REMARK    2  A    between atoms: C5_5  and  O1_6 
REMARK    3  A    between atoms: O1_6  and  C6_7 
ROOT
HETATM    1  C6  UNL     1      25.495   2.989  50.559  1.00  0.00     0.146 C 
HETATM    2  C7  UNL     1      24.576   3.616  49.870  1.00  0.00    -0.008 C 
HETATM    3  C8  UNL     1      25.037   4.819  49.201  1.00  0.00     0.026 C 
HETATM    4  C9  UNL     1      24.817   5.879  49.939  1.00  0.00    -0.021 C 
HETATM    5  C10 UNL     1      24.251   5.694  51.098  1.00  0.00     0.062 C 
HETATM    6  C11 UNL     1      22.830   5.485  51.020  1.00  0.00     0.151 C 
HETATM    7  O2  UNL     1      22.178   4.944  51.991  1.00  0.00    -0.293 OA
HETATM    8  C12 UNL     1      21.568   5.605  50.266  1.00  0.00     0.102 C 
HETATM    9  C13 UNL     1      20.407   4.823  50.700  1.00  0.00     0.125 C 
HETATM   10  N1  UNL     1      20.305   3.456  50.719  1.00  0.00    -0.401 N 
HETATM   11  C14 UNL     1      20.347   2.795  51.994  1.00  0.00     0.143 C 
HETATM   12  C15 UNL     1      19.404   1.588  51.859  1.00  0.00     0.187 C 
HETATM   13  O3  UNL     1      20.003   0.759  50.913  1.00  0.00    -0.387 OA
HETATM   14  C16 UNL     1      20.108   1.339  49.675  1.00  0.00     0.196 C 
HETATM   15  C17 UNL     1      20.914   2.602  49.724  1.00  0.00     0.126 C 
HETATM   16  C18 UNL     1      22.258   2.231  50.326  1.00  0.00     0.007 C 
HETATM   17  C19 UNL     1      23.338   2.927  50.074  1.00  0.00    -0.052 C 
HETATM   18  C20 UNL     1      23.165   3.093  48.585  1.00  0.00     0.049 C 
ENDROOT
BRANCH   1  19
HETATM   19  O1  UNL     1      26.830   3.026  50.927  1.00  0.00    -0.358 OA
BRANCH  19  20
HETATM   20  C5  UNL     1      27.290   2.247  51.998  1.00  0.00     0.209 C 
BRANCH  20  21
HETATM   21  C4  UNL     1      26.197   1.422  52.610  1.00  0.00    -0.051 A 
HETATM   22  C3  UNL     1      25.953   0.103  52.515  1.00  0.00     0.012 A 
HETATM   23  C2  UNL     1      24.784   0.237  53.377  1.00  0.00    -0.063 A 
HETATM   24  C1  UNL     1      23.861  -0.604  53.860  1.00  0.00     0.019 C 
HETATM   25  C21 UNL     1      25.051   1.693  53.490  1.00  0.00     0.074 A 
ENDBRANCH  20  21
ENDBRANCH  19  20
ENDBRANCH   1  19
TORSDOF 3
ENDMDL
MODEL 6
REMARK VINA RESULT:      -7.2      7.885     11.110
REMARK  3 active torsions:
REMARK  status: ('A' for Active; 'I' for Inactive)
REMARK    1  A    between atoms: C4_4  and  C5_5 
REMARK    2  A    between atoms: C5_5  and  O1_6 
REMARK    3  A    between atoms: O1_6  and  C6_7 
ROOT
HETATM    1  C6  UNL     1      29.211   8.085  48.678  1.00  0.00     0.146 C 
HETATM    2  C7  UNL     1      30.400   8.580  48.908  1.00  0.00    -0.008 C 
HETATM    3  C8  UNL     1      30.403   9.955  49.373  1.00  0.00     0.026 C 
HETATM    4  C9  UNL     1      30.551  10.788  48.373  1.00  0.00    -0.021 C 
HETATM    5  C10 UNL     1      30.661  10.277  47.180  1.00  0.00     0.062 C 
HETATM    6  C11 UNL     1      31.969   9.747  46.898  1.00  0.00     0.151 C 
HETATM    7  O2  UNL     1      32.160   8.907  45.940  1.00  0.00    -0.293 OA
HETATM    8  C12 UNL     1      33.410   9.687  47.211  1.00  0.00     0.102 C 
HETATM    9  C13 UNL     1      34.207   8.585  46.664  1.00  0.00     0.125 C 
HETATM   10  N1  UNL     1      34.055   7.252  46.942  1.00  0.00    -0.401 N 
HETATM   11  C14 UNL     1      33.481   6.412  45.928  1.00  0.00     0.143 C 
HETATM   12  C15 UNL     1      34.188   5.055  46.073  1.00  0.00     0.187 C 
HETATM   13  O3  UNL     1      33.799   4.569  47.319  1.00  0.00    -0.387 OA
HETATM   14  C16 UNL     1      34.211   5.360  48.361  1.00  0.00     0.196 C 
HETATM   15  C17 UNL     1      33.668   6.753  48.243  1.00  0.00     0.126 C 
HETATM   16  C18 UNL     1      32.158   6.620  48.155  1.00  0.00     0.007 C 
HETATM   17  C19 UNL     1      31.360   7.588  48.530  1.00  0.00    -0.052 C 
HETATM   18  C20 UNL     1      32.041   7.960  49.824  1.00  0.00     0.049 C 
ENDROOT
BRANCH   1  19
HETATM   19  O1  UNL     1      27.857   8.380  48.708  1.00  0.00    -0.358 OA
BRANCH  19  20
HETATM   20  C5  UNL     1      26.947   7.594  47.985  1.00  0.00     0.209 C 
BRANCH  20  21
HETATM   21  C4  UNL     1      26.875   6.188  48.502  1.00  0.00    -0.051 A 
HETATM   22  C3  UNL     1      25.870   5.546  49.122  1.00  0.00     0.012 A 
HETATM   23  C2  UNL     1      26.679   4.335  49.223  1.00  0.00    -0.063 A 
HETATM   24  C1  UNL     1      26.493   3.110  49.726  1.00  0.00     0.019 C 
HETATM   25  C21 UNL     1      27.791   5.039  48.534  1.00  0.00     0.074 A 
ENDBRANCH  20  21
ENDBRANCH  19  20
ENDBRANCH   1  19
TORSDOF 3
ENDMDL
MODEL 7
REMARK VINA RESULT:      -7.2      9.257     11.106
REMARK  3 active torsions:
REMARK  status: ('A' for Active; 'I' for Inactive)
REMARK    1  A    between atoms: C4_4  and  C5_5 
REMARK    2  A    between atoms: C5_5  and  O1_6 
REMARK    3  A    between atoms: O1_6  and  C6_7 
ROOT
HETATM    1  C6  UNL     1      33.456   6.970  45.598  1.00  0.00     0.146 C 
HETATM    2  C7  UNL     1      33.522   7.657  46.710  1.00  0.00    -0.008 C 
HETATM    3  C8  UNL     1      34.430   7.113  47.704  1.00  0.00     0.026 C 
HETATM    4  C9  UNL     1      33.792   6.337  48.545  1.00  0.00    -0.021 C 
HETATM    5  C10 UNL     1      32.512   6.180  48.362  1.00  0.00     0.062 C 
HETATM    6  C11 UNL     1      31.722   7.288  48.828  1.00  0.00     0.151 C 
HETATM    7  O2  UNL     1      30.514   7.469  48.421  1.00  0.00    -0.293 OA
HETATM    8  C12 UNL     1      31.598   8.494  49.669  1.00  0.00     0.102 C 
HETATM    9  C13 UNL     1      30.502   9.431  49.404  1.00  0.00     0.125 C 
HETATM   10  N1  UNL     1      30.315  10.166  48.262  1.00  0.00    -0.401 N 
HETATM   11  C14 UNL     1      29.259   9.770  47.371  1.00  0.00     0.143 C 
HETATM   12  C15 UNL     1      28.716  11.079  46.776  1.00  0.00     0.187 C 
HETATM   13  O3  UNL     1      29.761  11.599  46.016  1.00  0.00    -0.387 OA
HETATM   14  C16 UNL     1      30.867  11.916  46.763  1.00  0.00     0.196 C 
HETATM   15  C17 UNL     1      31.404  10.718  47.488  1.00  0.00     0.126 C 
HETATM   16  C18 UNL     1      31.680   9.663  46.430  1.00  0.00     0.007 C 
HETATM   17  C19 UNL     1      32.574   8.725  46.613  1.00  0.00    -0.052 C 
HETATM   18  C20 UNL     1      33.684   9.572  47.184  1.00  0.00     0.049 C 
ENDROOT
BRANCH   1  19
HETATM   19  O1  UNL     1      33.949   5.847  44.953  1.00  0.00    -0.358 OA
BRANCH  19  20
HETATM   20  C5  UNL     1      33.115   4.744  44.720  1.00  0.00     0.209 C 
BRANCH  20  21
HETATM   21  C4  UNL     1      33.176   3.740  45.832  1.00  0.00    -0.051 A 
HETATM   22  C3  UNL     1      32.186   3.068  46.445  1.00  0.00     0.012 A 
HETATM   23  C2  UNL     1      33.151   2.396  47.310  1.00  0.00    -0.063 A 
HETATM   24  C1  UNL     1      33.073   1.496  48.297  1.00  0.00     0.019 C 
HETATM   25  C21 UNL     1      34.248   3.134  46.634  1.00  0.00     0.074 A 
ENDBRANCH  20  21
ENDBRANCH  19  20
ENDBRANCH   1  19
TORSDOF 3
ENDMDL
MODEL 8
REMARK VINA RESULT:      -7.1      3.306      5.697
REMARK  3 active torsions:
REMARK  status: ('A' for Active; 'I' for Inactive)
REMARK    1  A    between atoms: C4_4  and  C5_5 
REMARK    2  A    between atoms: C5_5  and  O1_6 
REMARK    3  A    between atoms: O1_6  and  C6_7 
ROOT
HETATM    1  C6  UNL     1      23.461   3.966  49.946  1.00  0.00     0.146 C 
HETATM    2  C7  UNL     1      22.983   3.697  51.134  1.00  0.00    -0.008 C 
HETATM    3  C8  UNL     1      23.980   3.635  52.187  1.00  0.00     0.026 C 
HETATM    4  C9  UNL     1      24.387   2.404  52.374  1.00  0.00    -0.021 C 
HETATM    5  C10 UNL     1      23.863   1.479  51.622  1.00  0.00     0.062 C 
HETATM    6  C11 UNL     1      22.544   1.078  52.034  1.00  0.00     0.151 C 
HETATM    7  O2  UNL     1      21.749   0.460  51.230  1.00  0.00    -0.293 OA
HETATM    8  C12 UNL     1      21.504   1.015  53.078  1.00  0.00     0.102 C 
HETATM    9  C13 UNL     1      20.126   0.705  52.686  1.00  0.00     0.125 C 
HETATM   10  N1  UNL     1      19.317   1.461  51.879  1.00  0.00    -0.401 N 
HETATM   11  C14 UNL     1      19.061   0.986  50.547  1.00  0.00     0.143 C 
HETATM   12  C15 UNL     1      17.618   1.413  50.233  1.00  0.00     0.187 C 
HETATM   13  O3  UNL     1      17.643   2.805  50.206  1.00  0.00    -0.387 OA
HETATM   14  C16 UNL     1      17.983   3.363  51.412  1.00  0.00     0.196 C 
HETATM   15  C17 UNL     1      19.336   2.907  51.869  1.00  0.00     0.126 C 
HETATM   16  C18 UNL     1      20.307   3.258  50.755  1.00  0.00     0.007 C 
HETATM   17  C19 UNL     1      21.578   3.460  50.990  1.00  0.00    -0.052 C 
HETATM   18  C20 UNL     1      21.452   4.324  52.220  1.00  0.00     0.049 C 
ENDROOT
BRANCH   1  19
HETATM   19  O1  UNL     1      24.629   4.234  49.250  1.00  0.00    -0.358 OA
BRANCH  19  20
HETATM   20  C5  UNL     1      25.071   5.555  49.095  1.00  0.00     0.209 C 
BRANCH  20  21
HETATM   21  C4  UNL     1      26.531   5.631  48.761  1.00  0.00    -0.051 A 
HETATM   22  C3  UNL     1      27.284   6.689  48.414  1.00  0.00     0.012 A 
HETATM   23  C2  UNL     1      28.464   5.836  48.300  1.00  0.00    -0.063 A 
HETATM   24  C1  UNL     1      29.748   6.033  47.980  1.00  0.00     0.019 C 
HETATM   25  C21 UNL     1      27.637   4.665  48.688  1.00  0.00     0.074 A 
ENDBRANCH  20  21
ENDBRANCH  19  20
ENDBRANCH   1  19
TORSDOF 3
ENDMDL
MODEL 9
REMARK VINA RESULT:      -7.1      3.188      6.671
REMARK  3 active torsions:
REMARK  status: ('A' for Active; 'I' for Inactive)
REMARK    1  A    between atoms: C4_4  and  C5_5 
REMARK    2  A    between atoms: C5_5  and  O1_6 
REMARK    3  A    between atoms: O1_6  and  C6_7 
ROOT
HETATM    1  C6  UNL     1      19.923   2.052  51.530  1.00  0.00     0.146 C 
HETATM    2  C7  UNL     1      21.064   1.629  51.048  1.00  0.00    -0.008 C 
HETATM    3  C8  UNL     1      21.313   0.212  51.242  1.00  0.00     0.026 C 
HETATM    4  C9  UNL     1      22.011   0.004  52.331  1.00  0.00    -0.021 C 
HETATM    5  C10 UNL     1      22.348   1.048  53.034  1.00  0.00     0.062 C 
HETATM    6  C11 UNL     1      23.464   1.774  52.490  1.00  0.00     0.151 C 
HETATM    7  O2  UNL     1      23.703   2.993  52.833  1.00  0.00    -0.293 OA
HETATM    8  C12 UNL     1      24.644   1.814  51.604  1.00  0.00     0.102 C 
HETATM    9  C13 UNL     1      25.220   3.115  51.252  1.00  0.00     0.125 C 
HETATM   10  N1  UNL     1      24.608   4.112  50.538  1.00  0.00    -0.401 N 
HETATM   11  C14 UNL     1      24.176   5.283  51.251  1.00  0.00     0.143 C 
HETATM   12  C15 UNL     1      24.373   6.452  50.272  1.00  0.00     0.187 C 
HETATM   13  O3  UNL     1      23.479   6.215  49.231  1.00  0.00    -0.387 OA
HETATM   14  C16 UNL     1      23.743   5.057  48.545  1.00  0.00     0.196 C 
HETATM   15  C17 UNL     1      23.695   3.860  49.446  1.00  0.00     0.126 C 
HETATM   16  C18 UNL     1      22.324   3.868  50.100  1.00  0.00     0.007 C 
HETATM   17  C19 UNL     1      21.764   2.768  50.536  1.00  0.00    -0.052 C 
HETATM   18  C20 UNL     1      22.066   1.873  49.359  1.00  0.00     0.049 C 
ENDROOT
BRANCH   1  19
HETATM   19  O1  UNL     1      18.779   1.649  52.200  1.00  0.00    -0.358 OA
BRANCH  19  20
HETATM   20  C5  UNL     1      17.866   0.783  51.580  1.00  0.00     0.209 C 
BRANCH  20  21
HETATM   21  C4  UNL     1      17.755  -0.531  52.294  1.00  0.00    -0.051 A 
HETATM   22  C3  UNL     1      16.778  -1.453  52.261  1.00  0.00     0.012 A 
HETATM   23  C2  UNL     1      17.513  -2.296  53.198  1.00  0.00    -0.063 A 
HETATM   24  C1  UNL     1      17.295  -3.482  53.778  1.00  0.00     0.019 C 
HETATM   25  C21 UNL     1      18.598  -1.282  53.235  1.00  0.00     0.074 A 
ENDBRANCH  20  21
ENDBRANCH  19  20
ENDBRANCH   1  19
TORSDOF 3
ENDMDL
