MODEL 1
REMARK VINA RESULT:      -8.8      0.000      0.000
REMARK  5 active torsions:
REMARK  status: ('A' for Active; 'I' for Inactive)
REMARK    1  A    between atoms: C2_2  and  C20_24 
REMARK    2  A    between atoms: C3_3  and  C4_4 
REMARK    3  A    between atoms: C5_5  and  N1_6 
REMARK    4  A    between atoms: N1_6  and  C6_7 
REMARK    5  A    between atoms: C7_9  and  N3_10 
ROOT
HETATM    1  C6  UNL     1      25.646   1.618  51.798  1.00  0.00     0.159 A 
HETATM    2  N2  UNL     1      26.713   0.906  52.222  1.00  0.00    -0.044 NA
HETATM    3  C7  UNL     1      26.553  -0.247  52.896  1.00  0.00     0.722 A 
HETATM    4  N4  UNL     1      25.310  -0.654  53.133  1.00  0.00    -0.062 NA
HETATM    5  C8  UNL     1      24.249   0.010  52.740  1.00  0.00     0.100 A 
HETATM    6  C9  UNL     1      24.314   1.242  52.014  1.00  0.00     0.041 A 
HETATM    7  C10 UNL     1      23.281   2.168  51.446  1.00  0.00     0.013 C 
HETATM    8  C11 UNL     1      21.971   2.056  51.878  1.00  0.00    -0.025 C 
HETATM    9  C12 UNL     1      20.597   2.019  52.259  1.00  0.00     0.032 C 
HETATM   10  C13 UNL     1      19.963   0.572  51.992  1.00  0.00     0.042 C 
HETATM   11  C14 UNL     1      20.906  -0.250  52.861  1.00  0.00    -0.057 A 
HETATM   12  C15 UNL     1      20.438  -0.618  54.093  1.00  0.00     0.007 A 
HETATM   13  C16 UNL     1      21.542  -0.955  54.893  1.00  0.00     0.001 A 
HETATM   14  C17 UNL     1      22.864  -0.897  54.455  1.00  0.00     0.014 A 
HETATM   15  C18 UNL     1      22.914  -0.477  53.152  1.00  0.00    -0.005 A 
HETATM   16  C19 UNL     1      22.061  -0.115  52.172  1.00  0.00     0.021 A 
ENDROOT
BRANCH   1  17
HETATM   17  N1  UNL     1      25.886   2.810  51.101  1.00  0.00    -0.350 N 
HETATM   18  H7  UNL     1      26.183   2.293  50.209  1.00  0.00     0.166 HD
BRANCH  17  19
HETATM   19  C5  UNL     1      26.120   3.971  50.415  1.00  0.00     0.090 C 
HETATM   20  C4  UNL     1      26.882   4.015  49.320  1.00  0.00     0.017 C 
BRANCH  20  21
HETATM   21  C3  UNL     1      27.055   5.303  48.669  1.00  0.00     0.004 C 
HETATM   22  C2  UNL     1      28.148   5.875  48.206  1.00  0.00    -0.074 C 
HETATM   23  C1  UNL     1      28.113   7.213  47.569  1.00  0.00     0.044 C 
BRANCH  22  24
HETATM   24  C20 UNL     1      29.573   5.400  48.186  1.00  0.00     0.118 C 
HETATM   25 BR1  UNL     1      30.624   6.854  47.438  1.00  0.00    -0.092 Br
ENDBRANCH  22  24
ENDBRANCH  20  21
ENDBRANCH  17  19
ENDBRANCH   1  17
BRANCH   3  26
HETATM   26  N3  UNL     1      27.616  -1.047  53.379  1.00  0.00    -0.231 N 
HETATM   27  H8  UNL     1      27.533  -2.050  53.732  1.00  0.00     0.174 HD
HETATM   28  H9  UNL     1      28.608  -0.693  53.430  1.00  0.00     0.174 HD
ENDBRANCH   3  26
TORSDOF 5
ENDMDL
MODEL 2
REMARK VINA RESULT:      -8.7      1.823      1.948
REMARK  5 active torsions:
REMARK  status: ('A' for Active; 'I' for Inactive)
REMARK    1  A    between atoms: C2_2  and  C20_24 
REMARK    2  A    between atoms: C3_3  and  C4_4 
REMARK    3  A    between atoms: C5_5  and  N1_6 
REMARK    4  A    between atoms: N1_6  and  C6_7 
REMARK    5  A    between atoms: C7_9  and  N3_10 
ROOT
HETATM    1  C6  UNL     1      26.243   1.330  51.900  1.00  0.00     0.159 A 
HETATM    2  N2  UNL     1      27.298   0.677  52.434  1.00  0.00    -0.044 NA
HETATM    3  C7  UNL     1      27.122  -0.392  53.231  1.00  0.00     0.722 A 
HETATM    4  N4  UNL     1      25.873  -0.775  53.478  1.00  0.00    -0.062 NA
HETATM    5  C8  UNL     1      24.822  -0.166  52.982  1.00  0.00     0.100 A 
HETATM    6  C9  UNL     1      24.906   0.974  52.121  1.00  0.00     0.041 A 
HETATM    7  C10 UNL     1      23.888   1.823  51.420  1.00  0.00     0.013 C 
HETATM    8  C11 UNL     1      22.566   1.755  51.826  1.00  0.00    -0.025 C 
HETATM    9  C12 UNL     1      21.182   1.755  52.170  1.00  0.00     0.032 C 
HETATM   10  C13 UNL     1      20.559   0.284  52.053  1.00  0.00     0.042 C 
HETATM   11  C14 UNL     1      21.478  -0.428  53.038  1.00  0.00    -0.057 A 
HETATM   12  C15 UNL     1      20.976  -0.653  54.290  1.00  0.00     0.007 A 
HETATM   13  C16 UNL     1      22.057  -0.891  55.155  1.00  0.00     0.001 A 
HETATM   14  C17 UNL     1      23.391  -0.877  54.750  1.00  0.00     0.014 A 
HETATM   15  C18 UNL     1      23.477  -0.610  53.409  1.00  0.00    -0.005 A 
HETATM   16  C19 UNL     1      22.652  -0.367  52.371  1.00  0.00     0.021 A 
ENDROOT
BRANCH   1  17
HETATM   17  N1  UNL     1      26.500   2.434  51.078  1.00  0.00    -0.350 N 
HETATM   18  H7  UNL     1      25.457   2.627  50.915  1.00  0.00     0.166 HD
BRANCH  17  19
HETATM   19  C5  UNL     1      26.747   3.515  50.274  1.00  0.00     0.090 C 
HETATM   20  C4  UNL     1      25.781   4.138  49.595  1.00  0.00     0.017 C 
BRANCH  20  21
HETATM   21  C3  UNL     1      26.158   5.279  48.779  1.00  0.00     0.004 C 
HETATM   22  C2  UNL     1      26.132   6.566  49.064  1.00  0.00    -0.074 C 
HETATM   23  C1  UNL     1      26.563   7.587  48.079  1.00  0.00     0.044 C 
BRANCH  22  24
HETATM   24  C20 UNL     1      25.713   7.289  50.312  1.00  0.00     0.118 C 
HETATM   25 BR1  UNL     1      23.875   7.854  50.028  1.00  0.00    -0.092 Br
ENDBRANCH  22  24
ENDBRANCH  20  21
ENDBRANCH  17  19
ENDBRANCH   1  17
BRANCH   3  26
HETATM   26  N3  UNL     1      28.172  -1.126  53.833  1.00  0.00    -0.231 N 
HETATM   27  H8  UNL     1      28.510  -2.092  53.534  1.00  0.00     0.174 HD
HETATM   28  H9  UNL     1      28.716  -0.756  54.657  1.00  0.00     0.174 HD
ENDBRANCH   3  26
TORSDOF 5
ENDMDL
MODEL 3
REMARK VINA RESULT:      -8.7      2.499      4.193
REMARK  5 active torsions:
REMARK  status: ('A' for Active; 'I' for Inactive)
REMARK    1  A    between atoms: C2_2  and  C20_24 
REMARK    2  A    between atoms: C3_3  and  C4_4 
REMARK    3  A    between atoms: C5_5  and  N1_6 
REMARK    4  A    between atoms: N1_6  and  C6_7 
REMARK    5  A    between atoms: C7_9  and  N3_10 
ROOT
HETATM    1  C6  UNL     1      25.167   4.484  50.598  1.00  0.00     0.159 A 
HETATM    2  N2  UNL     1      24.135   5.354  50.655  1.00  0.00    -0.044 NA
HETATM    3  C7  UNL     1      23.082   5.128  51.462  1.00  0.00     0.722 A 
HETATM    4  N4  UNL     1      23.095   4.020  52.195  1.00  0.00    -0.062 NA
HETATM    5  C8  UNL     1      24.077   3.150  52.166  1.00  0.00     0.100 A 
HETATM    6  C9  UNL     1      25.240   3.302  51.346  1.00  0.00     0.041 A 
HETATM    7  C10 UNL     1      26.482   2.486  51.144  1.00  0.00     0.013 C 
HETATM    8  C11 UNL     1      26.499   1.173  51.580  1.00  0.00    -0.025 C 
HETATM    9  C12 UNL     1      26.614  -0.187  51.994  1.00  0.00     0.032 C 
HETATM   10  C13 UNL     1      26.341  -0.337  53.565  1.00  0.00     0.042 C 
HETATM   11  C14 UNL     1      24.933   0.243  53.605  1.00  0.00    -0.057 A 
HETATM   12  C15 UNL     1      23.903  -0.657  53.657  1.00  0.00     0.007 A 
HETATM   13  C16 UNL     1      22.732   0.001  53.246  1.00  0.00     0.001 A 
HETATM   14  C17 UNL     1      22.690   1.338  52.854  1.00  0.00     0.014 A 
HETATM   15  C18 UNL     1      23.938   1.896  52.939  1.00  0.00    -0.005 A 
HETATM   16  C19 UNL     1      25.186   1.534  53.299  1.00  0.00     0.021 A 
ENDROOT
BRANCH   1  17
HETATM   17  N1  UNL     1      26.231   4.782  49.736  1.00  0.00    -0.350 N 
HETATM   18  H7  UNL     1      26.341   3.760  49.429  1.00  0.00     0.166 HD
BRANCH  17  19
HETATM   19  C5  UNL     1      27.270   5.068  48.891  1.00  0.00     0.090 C 
HETATM   20  C4  UNL     1      27.572   6.315  48.525  1.00  0.00     0.017 C 
BRANCH  20  21
HETATM   21  C3  UNL     1      28.702   6.500  47.629  1.00  0.00     0.004 C 
HETATM   22  C2  UNL     1      29.746   7.297  47.741  1.00  0.00    -0.074 C 
HETATM   23  C1  UNL     1      30.803   7.339  46.703  1.00  0.00     0.044 C 
BRANCH  22  24
HETATM   24  C20 UNL     1      30.129   8.272  48.817  1.00  0.00     0.118 C 
HETATM   25 BR1  UNL     1      31.967   7.866  49.297  1.00  0.00    -0.092 Br
ENDBRANCH  22  24
ENDBRANCH  20  21
ENDBRANCH  17  19
ENDBRANCH   1  17
BRANCH   3  26
HETATM   26  N3  UNL     1      21.961   5.985  51.575  1.00  0.00    -0.231 N 
HETATM   27  H8  UNL     1      21.146   6.041  50.889  1.00  0.00     0.174 HD
HETATM   28  H9  UNL     1      21.848   6.661  52.376  1.00  0.00     0.174 HD
ENDBRANCH   3  26
TORSDOF 5
ENDMDL
MODEL 4
REMARK VINA RESULT:      -8.3      3.293      5.769
REMARK  5 active torsions:
REMARK  status: ('A' for Active; 'I' for Inactive)
REMARK    1  A    between atoms: C2_2  and  C20_24 
REMARK    2  A    between atoms: C3_3  and  C4_4 
REMARK    3  A    between atoms: C5_5  and  N1_6 
REMARK    4  A    between atoms: N1_6  and  C6_7 
REMARK    5  A    between atoms: C7_9  and  N3_10 
ROOT
HETATM    1  C6  UNL     1      23.010  -0.293  53.123  1.00  0.00     0.159 A 
HETATM    2  N2  UNL     1      22.107  -1.056  53.775  1.00  0.00    -0.044 NA
HETATM    3  C7  UNL     1      20.786  -0.852  53.621  1.00  0.00     0.722 A 
HETATM    4  N4  UNL     1      20.406   0.130  52.810  1.00  0.00    -0.062 NA
HETATM    5  C8  UNL     1      21.252   0.895  52.162  1.00  0.00     0.100 A 
HETATM    6  C9  UNL     1      22.673   0.754  52.255  1.00  0.00     0.041 A 
HETATM    7  C10 UNL     1      23.832   1.466  51.622  1.00  0.00     0.013 C 
HETATM    8  C11 UNL     1      23.615   2.693  51.020  1.00  0.00    -0.025 C 
HETATM    9  C12 UNL     1      23.493   3.959  50.375  1.00  0.00     0.032 C 
HETATM   10  C13 UNL     1      22.419   3.901  49.187  1.00  0.00     0.042 C 
HETATM   11  C14 UNL     1      21.208   3.461  50.001  1.00  0.00    -0.057 A 
HETATM   12  C15 UNL     1      20.313   4.438  50.343  1.00  0.00     0.007 A 
HETATM   13  C16 UNL     1      19.545   3.966  51.419  1.00  0.00     0.001 A 
HETATM   14  C17 UNL     1      19.717   2.711  52.003  1.00  0.00     0.014 A 
HETATM   15  C18 UNL     1      20.723   2.028  51.371  1.00  0.00    -0.005 A 
HETATM   16  C19 UNL     1      21.583   2.211  50.349  1.00  0.00     0.021 A 
ENDROOT
BRANCH   1  17
HETATM   17  N1  UNL     1      24.370  -0.561  53.330  1.00  0.00    -0.350 N 
HETATM   18  H7  UNL     1      24.310  -1.522  52.855  1.00  0.00     0.166 HD
BRANCH  17  19
HETATM   19  C5  UNL     1      25.698  -0.828  53.528  1.00  0.00     0.090 C 
HETATM   20  C4  UNL     1      26.583  -0.839  52.529  1.00  0.00     0.017 C 
BRANCH  20  21
HETATM   21  C3  UNL     1      27.969  -1.128  52.858  1.00  0.00     0.004 C 
HETATM   22  C2  UNL     1      28.771  -0.539  53.723  1.00  0.00    -0.074 C 
HETATM   23  C1  UNL     1      30.171  -0.990  53.912  1.00  0.00     0.044 C 
BRANCH  22  24
HETATM   24  C20 UNL     1      28.536   0.613  54.656  1.00  0.00     0.118 C 
HETATM   25 BR1  UNL     1      28.512   2.214  53.555  1.00  0.00    -0.092 Br
ENDBRANCH  22  24
ENDBRANCH  20  21
ENDBRANCH  17  19
ENDBRANCH   1  17
BRANCH   3  26
HETATM   26  N3  UNL     1      19.778  -1.603  54.271  1.00  0.00    -0.231 N 
HETATM   27  H8  UNL     1      18.997  -2.148  53.790  1.00  0.00     0.174 HD
HETATM   28  H9  UNL     1      19.721  -1.678  55.321  1.00  0.00     0.174 HD
ENDBRANCH   3  26
TORSDOF 5
ENDMDL
MODEL 5
REMARK VINA RESULT:      -8.2      4.267      7.703
REMARK  5 active torsions:
REMARK  status: ('A' for Active; 'I' for Inactive)
REMARK    1  A    between atoms: C2_2  and  C20_24 
REMARK    2  A    between atoms: C3_3  and  C4_4 
REMARK    3  A    between atoms: C5_5  and  N1_6 
REMARK    4  A    between atoms: N1_6  and  C6_7 
REMARK    5  A    between atoms: C7_9  and  N3_10 
ROOT
HETATM    1  C6  UNL     1      23.708   2.722  50.921  1.00  0.00     0.159 A 
HETATM    2  N2  UNL     1      24.050   3.850  50.262  1.00  0.00    -0.044 NA
HETATM    3  C7  UNL     1      25.338   4.222  50.145  1.00  0.00     0.722 A 
HETATM    4  N4  UNL     1      26.257   3.441  50.705  1.00  0.00    -0.062 NA
HETATM    5  C8  UNL     1      25.964   2.339  51.355  1.00  0.00     0.100 A 
HETATM    6  C9  UNL     1      24.628   1.858  51.529  1.00  0.00     0.041 A 
HETATM    7  C10 UNL     1      24.037   0.651  52.195  1.00  0.00     0.013 C 
HETATM    8  C11 UNL     1      24.815  -0.072  53.082  1.00  0.00    -0.025 C 
HETATM    9  C12 UNL     1      25.536  -0.882  54.009  1.00  0.00     0.032 C 
HETATM   10  C13 UNL     1      26.877  -1.460  53.351  1.00  0.00     0.042 C 
HETATM   11  C14 UNL     1      27.537  -0.136  52.986  1.00  0.00    -0.057 A 
HETATM   12  C15 UNL     1      28.516   0.312  53.830  1.00  0.00     0.007 A 
HETATM   13  C16 UNL     1      28.683   1.689  53.609  1.00  0.00     0.001 A 
HETATM   14  C17 UNL     1      27.943   2.421  52.681  1.00  0.00     0.014 A 
HETATM   15  C18 UNL     1      27.055   1.604  52.032  1.00  0.00    -0.005 A 
HETATM   16  C19 UNL     1      26.698   0.304  52.022  1.00  0.00     0.021 A 
ENDROOT
BRANCH   1  17
HETATM   17  N1  UNL     1      22.348   2.395  51.003  1.00  0.00    -0.350 N 
HETATM   18  H7  UNL     1      22.234   2.870  51.959  1.00  0.00     0.166 HD
BRANCH  17  19
HETATM   19  C5  UNL     1      21.018   2.080  51.087  1.00  0.00     0.090 C 
HETATM   20  C4  UNL     1      20.530   0.916  50.654  1.00  0.00     0.017 C 
BRANCH  20  21
HETATM   21  C3  UNL     1      19.102   0.687  50.802  1.00  0.00     0.004 C 
HETATM   22  C2  UNL     1      18.441   0.071  51.762  1.00  0.00    -0.074 C 
HETATM   23  C1  UNL     1      16.964  -0.059  51.726  1.00  0.00     0.044 C 
BRANCH  22  24
HETATM   24  C20 UNL     1      18.923  -0.594  53.018  1.00  0.00     0.118 C 
HETATM   25 BR1  UNL     1      17.695  -2.058  53.371  1.00  0.00    -0.092 Br
ENDBRANCH  22  24
ENDBRANCH  20  21
ENDBRANCH  17  19
ENDBRANCH   1  17
BRANCH   3  26
HETATM   26  N3  UNL     1      25.778   5.390  49.478  1.00  0.00    -0.231 N 
HETATM   27  H8  UNL     1      25.154   6.177  49.120  1.00  0.00     0.174 HD
HETATM   28  H9  UNL     1      26.797   5.571  49.274  1.00  0.00     0.174 HD
ENDBRANCH   3  26
TORSDOF 5
ENDMDL
MODEL 6
REMARK VINA RESULT:      -7.9      4.880     10.922
REMARK  5 active torsions:
REMARK  status: ('A' for Active; 'I' for Inactive)
REMARK    1  A    between atoms: C2_2  and  C20_24 
REMARK    2  A    between atoms: C3_3  and  C4_4 
REMARK    3  A    between atoms: C5_5  and  N1_6 
REMARK    4  A    between atoms: N1_6  and  C6_7 
REMARK    5  A    between atoms: C7_9  and  N3_10 
ROOT
HETATM    1  C6  UNL     1      29.141   7.662  48.754  1.00  0.00     0.159 A 
HETATM    2  N2  UNL     1      29.137   8.941  49.190  1.00  0.00    -0.044 NA
HETATM    3  C7  UNL     1      30.254   9.690  49.151  1.00  0.00     0.722 A 
HETATM    4  N4  UNL     1      31.358   9.124  48.674  1.00  0.00    -0.062 NA
HETATM    5  C8  UNL     1      31.403   7.885  48.244  1.00  0.00     0.100 A 
HETATM    6  C9  UNL     1      30.270   7.011  48.240  1.00  0.00     0.041 A 
HETATM    7  C10 UNL     1      30.053   5.595  47.797  1.00  0.00     0.013 C 
HETATM    8  C11 UNL     1      31.153   4.784  47.585  1.00  0.00    -0.025 C 
HETATM    9  C12 UNL     1      32.222   3.871  47.339  1.00  0.00     0.032 C 
HETATM   10  C13 UNL     1      33.224   4.441  46.227  1.00  0.00     0.042 C 
HETATM   11  C14 UNL     1      33.617   5.738  46.923  1.00  0.00    -0.057 A 
HETATM   12  C15 UNL     1      34.825   5.745  47.567  1.00  0.00     0.007 A 
HETATM   13  C16 UNL     1      34.819   6.805  48.488  1.00  0.00     0.001 A 
HETATM   14  C17 UNL     1      33.737   7.663  48.677  1.00  0.00     0.014 A 
HETATM   15  C18 UNL     1      32.709   7.322  47.837  1.00  0.00    -0.005 A 
HETATM   16  C19 UNL     1      32.445   6.410  46.880  1.00  0.00     0.021 A 
ENDROOT
BRANCH   1  17
HETATM   17  N1  UNL     1      27.942   6.941  48.822  1.00  0.00    -0.350 N 
HETATM   18  H7  UNL     1      27.376   7.730  48.365  1.00  0.00     0.166 HD
BRANCH  17  19
HETATM   19  C5  UNL     1      26.768   6.239  48.885  1.00  0.00     0.090 C 
HETATM   20  C4  UNL     1      26.726   4.938  49.181  1.00  0.00     0.017 C 
BRANCH  20  21
HETATM   21  C3  UNL     1      25.422   4.299  49.226  1.00  0.00     0.004 C 
HETATM   22  C2  UNL     1      24.983   3.332  50.008  1.00  0.00    -0.074 C 
HETATM   23  C1  UNL     1      23.600   2.811  49.893  1.00  0.00     0.044 C 
BRANCH  22  24
HETATM   24  C20 UNL     1      25.665   2.570  51.107  1.00  0.00     0.118 C 
HETATM   25 BR1  UNL     1      24.296   1.475  51.947  1.00  0.00    -0.092 Br
ENDBRANCH  22  24
ENDBRANCH  20  21
ENDBRANCH  17  19
ENDBRANCH   1  17
BRANCH   3  26
HETATM   26  N3  UNL     1      30.335  11.032  49.593  1.00  0.00    -0.231 N 
HETATM   27  H8  UNL     1      29.913  11.420  50.493  1.00  0.00     0.174 HD
HETATM   28  H9  UNL     1      30.834  11.778  49.039  1.00  0.00     0.174 HD
ENDBRANCH   3  26
TORSDOF 5
ENDMDL
MODEL 7
REMARK VINA RESULT:      -7.8      3.966      6.389
REMARK  5 active torsions:
REMARK  status: ('A' for Active; 'I' for Inactive)
REMARK    1  A    between atoms: C2_2  and  C20_24 
REMARK    2  A    between atoms: C3_3  and  C4_4 
REMARK    3  A    between atoms: C5_5  and  N1_6 
REMARK    4  A    between atoms: N1_6  and  C6_7 
REMARK    5  A    between atoms: C7_9  and  N3_10 
ROOT
HETATM    1  C6  UNL     1      21.093  -0.377  53.058  1.00  0.00     0.159 A 
HETATM    2  N2  UNL     1      20.066  -0.975  53.700  1.00  0.00    -0.044 NA
HETATM    3  C7  UNL     1      18.815  -0.919  53.209  1.00  0.00     0.722 A 
HETATM    4  N4  UNL     1      18.627  -0.250  52.076  1.00  0.00    -0.062 NA
HETATM    5  C8  UNL     1      19.597   0.347  51.425  1.00  0.00     0.100 A 
HETATM    6  C9  UNL     1      20.960   0.340  51.861  1.00  0.00     0.041 A 
HETATM    7  C10 UNL     1      22.231   0.913  51.308  1.00  0.00     0.013 C 
HETATM    8  C11 UNL     1      22.154   1.889  50.329  1.00  0.00    -0.025 C 
HETATM    9  C12 UNL     1      22.180   2.896  49.320  1.00  0.00     0.032 C 
HETATM   10  C13 UNL     1      21.404   2.414  48.003  1.00  0.00     0.042 C 
HETATM   11  C14 UNL     1      20.041   2.150  48.631  1.00  0.00    -0.057 A 
HETATM   12  C15 UNL     1      19.090   3.119  48.458  1.00  0.00     0.007 A 
HETATM   13  C16 UNL     1      18.098   2.933  49.435  1.00  0.00     0.001 A 
HETATM   14  C17 UNL     1      18.135   1.922  50.394  1.00  0.00     0.014 A 
HETATM   15  C18 UNL     1      19.259   1.156  50.233  1.00  0.00    -0.005 A 
HETATM   16  C19 UNL     1      20.329   1.088  49.415  1.00  0.00     0.021 A 
ENDROOT
BRANCH   1  17
HETATM   17  N1  UNL     1      22.370  -0.476  53.624  1.00  0.00    -0.350 N 
HETATM   18  H7  UNL     1      22.779  -0.960  52.757  1.00  0.00     0.166 HD
BRANCH  17  19
HETATM   19  C5  UNL     1      23.621  -0.574  54.173  1.00  0.00     0.090 C 
HETATM   20  C4  UNL     1      24.727  -0.257  53.496  1.00  0.00     0.017 C 
BRANCH  20  21
HETATM   21  C3  UNL     1      26.000  -0.394  54.183  1.00  0.00     0.004 C 
HETATM   22  C2  UNL     1      27.161   0.179  53.932  1.00  0.00    -0.074 C 
HETATM   23  C1  UNL     1      28.358  -0.098  54.761  1.00  0.00     0.044 C 
BRANCH  22  24
HETATM   24  C20 UNL     1      27.564   1.159  52.868  1.00  0.00     0.118 C 
HETATM   25 BR1  UNL     1      28.815   2.390  53.702  1.00  0.00    -0.092 Br
ENDBRANCH  22  24
ENDBRANCH  20  21
ENDBRANCH  17  19
ENDBRANCH   1  17
BRANCH   3  26
HETATM   26  N3  UNL     1      17.686  -1.514  53.823  1.00  0.00    -0.231 N 
HETATM   27  H8  UNL     1      17.057  -2.257  53.388  1.00  0.00     0.174 HD
HETATM   28  H9  UNL     1      17.371  -1.251  54.794  1.00  0.00     0.174 HD
ENDBRANCH   3  26
TORSDOF 5
ENDMDL
MODEL 8
REMARK VINA RESULT:      -7.8      3.415      5.687
REMARK  5 active torsions:
REMARK  status: ('A' for Active; 'I' for Inactive)
REMARK    1  A    between atoms: C2_2  and  C20_24 
REMARK    2  A    between atoms: C3_3  and  C4_4 
REMARK    3  A    between atoms: C5_5  and  N1_6 
REMARK    4  A    between atoms: N1_6  and  C6_7 
REMARK    5  A    between atoms: C7_9  and  N3_10 
ROOT
HETATM    1  C6  UNL     1      21.869   1.535  52.808  1.00  0.00     0.159 A 
HETATM    2  N2  UNL     1      21.067   0.594  53.353  1.00  0.00    -0.044 NA
HETATM    3  C7  UNL     1      21.583  -0.485  53.969  1.00  0.00     0.722 A 
HETATM    4  N4  UNL     1      22.906  -0.592  54.016  1.00  0.00    -0.062 NA
HETATM    5  C8  UNL     1      23.719   0.298  53.498  1.00  0.00     0.100 A 
HETATM    6  C9  UNL     1      23.269   1.480  52.828  1.00  0.00     0.041 A 
HETATM    7  C10 UNL     1      23.970   2.636  52.179  1.00  0.00     0.013 C 
HETATM    8  C11 UNL     1      25.312   2.515  51.866  1.00  0.00    -0.025 C 
HETATM    9  C12 UNL     1      26.692   2.489  51.507  1.00  0.00     0.032 C 
HETATM   10  C13 UNL     1      27.615   2.183  52.781  1.00  0.00     0.042 C 
HETATM   11  C14 UNL     1      27.014   0.840  53.176  1.00  0.00    -0.057 A 
HETATM   12  C15 UNL     1      27.710  -0.276  52.797  1.00  0.00     0.007 A 
HETATM   13  C16 UNL     1      26.830  -1.370  52.837  1.00  0.00     0.001 A 
HETATM   14  C17 UNL     1      25.488  -1.272  53.201  1.00  0.00     0.014 A 
HETATM   15  C18 UNL     1      25.173   0.024  53.511  1.00  0.00    -0.005 A 
HETATM   16  C19 UNL     1      25.783   1.225  53.576  1.00  0.00     0.021 A 
ENDROOT
BRANCH   1  17
HETATM   17  N1  UNL     1      21.265   2.633  52.183  1.00  0.00    -0.350 N 
HETATM   18  H7  UNL     1      20.500   2.028  51.734  1.00  0.00     0.166 HD
BRANCH  17  19
HETATM   19  C5  UNL     1      20.669   3.703  51.571  1.00  0.00     0.090 C 
HETATM   20  C4  UNL     1      21.139   4.235  50.441  1.00  0.00     0.017 C 
BRANCH  20  21
HETATM   21  C3  UNL     1      20.421   5.365  49.877  1.00  0.00     0.004 C 
HETATM   22  C2  UNL     1      20.656   6.657  49.992  1.00  0.00    -0.074 C 
HETATM   23  C1  UNL     1      19.792   7.664  49.331  1.00  0.00     0.044 C 
BRANCH  22  24
HETATM   24  C20 UNL     1      21.733   7.399  50.730  1.00  0.00     0.118 C 
HETATM   25 BR1  UNL     1      22.693   8.439  49.399  1.00  0.00    -0.092 Br
ENDBRANCH  22  24
ENDBRANCH  20  21
ENDBRANCH  17  19
ENDBRANCH   1  17
BRANCH   3  26
HETATM   26  N3  UNL     1      20.812  -1.516  54.558  1.00  0.00    -0.231 N 
HETATM   27  H8  UNL     1      20.311  -1.462  55.498  1.00  0.00     0.174 HD
HETATM   28  H9  UNL     1      20.676  -2.452  54.093  1.00  0.00     0.174 HD
ENDBRANCH   3  26
TORSDOF 5
ENDMDL
MODEL 9
REMARK VINA RESULT:      -7.7      4.875      8.783
REMARK  5 active torsions:
REMARK  status: ('A' for Active; 'I' for Inactive)
REMARK    1  A    between atoms: C2_2  and  C20_24 
REMARK    2  A    between atoms: C3_3  and  C4_4 
REMARK    3  A    between atoms: C5_5  and  N1_6 
REMARK    4  A    between atoms: N1_6  and  C6_7 
REMARK    5  A    between atoms: C7_9  and  N3_10 
ROOT
HETATM    1  C6  UNL     1      21.400  -0.207  53.113  1.00  0.00     0.159 A 
HETATM    2  N2  UNL     1      21.693  -0.998  54.168  1.00  0.00    -0.044 NA
HETATM    3  C7  UNL     1      22.926  -1.009  54.705  1.00  0.00     0.722 A 
HETATM    4  N4  UNL     1      23.844  -0.220  54.156  1.00  0.00    -0.062 NA
HETATM    5  C8  UNL     1      23.600   0.560  53.129  1.00  0.00     0.100 A 
HETATM    6  C9  UNL     1      22.321   0.647  52.492  1.00  0.00     0.041 A 
HETATM    7  C10 UNL     1      21.785   1.450  51.344  1.00  0.00     0.013 C 
HETATM    8  C11 UNL     1      22.677   2.062  50.481  1.00  0.00    -0.025 C 
HETATM    9  C12 UNL     1      23.514   2.730  49.539  1.00  0.00     0.032 C 
HETATM   10  C13 UNL     1      24.494   3.765  50.270  1.00  0.00     0.042 C 
HETATM   11  C14 UNL     1      25.203   2.786  51.197  1.00  0.00    -0.057 A 
HETATM   12  C15 UNL     1      26.445   2.366  50.808  1.00  0.00     0.007 A 
HETATM   13  C16 UNL     1      26.741   1.183  51.505  1.00  0.00     0.001 A 
HETATM   14  C17 UNL     1      25.874   0.582  52.417  1.00  0.00     0.014 A 
HETATM   15  C18 UNL     1      24.722   1.314  52.528  1.00  0.00    -0.005 A 
HETATM   16  C19 UNL     1      24.189   2.445  52.023  1.00  0.00     0.021 A 
ENDROOT
BRANCH   1  17
HETATM   17  N1  UNL     1      20.095  -0.245  52.605  1.00  0.00    -0.350 N 
HETATM   18  H7  UNL     1      20.197  -1.257  52.263  1.00  0.00     0.166 HD
BRANCH  17  19
HETATM   19  C5  UNL     1      18.819  -0.287  52.109  1.00  0.00     0.090 C 
HETATM   20  C4  UNL     1      17.858  -1.024  52.668  1.00  0.00     0.017 C 
BRANCH  20  21
HETATM   21  C3  UNL     1      16.539  -0.986  52.059  1.00  0.00     0.004 C 
HETATM   22  C2  UNL     1      15.600  -1.911  52.019  1.00  0.00    -0.074 C 
HETATM   23  C1  UNL     1      14.306  -1.672  51.337  1.00  0.00     0.044 C 
BRANCH  22  24
HETATM   24  C20 UNL     1      15.565  -3.302  52.583  1.00  0.00     0.118 C 
HETATM   25 BR1  UNL     1      14.625  -4.398  51.283  1.00  0.00    -0.092 Br
ENDBRANCH  22  24
ENDBRANCH  20  21
ENDBRANCH  17  19
ENDBRANCH   1  17
BRANCH   3  26
HETATM   26  N3  UNL     1      23.314  -1.811  55.805  1.00  0.00    -0.231 N 
HETATM   27  H8  UNL     1      24.269  -1.801  56.280  1.00  0.00     0.174 HD
HETATM   28  H9  UNL     1      22.661  -2.508  56.251  1.00  0.00     0.174 HD
ENDBRANCH   3  26
TORSDOF 5
ENDMDL
