MODEL 1
REMARK VINA RESULT:      -7.3      0.000      0.000
REMARK  6 active torsions:
REMARK  status: ('A' for Active; 'I' for Inactive)
REMARK    1  A    between atoms: O1_2  and  C2_3 
REMARK    2  A    between atoms: C6_9  and  N3_10 
REMARK    3  A    between atoms: N3_10  and  C7_11 
REMARK    4  A    between atoms: C7_11  and  C8_12 
REMARK    5  A    between atoms: C8_12  and  N4_13 
REMARK       I    between atoms: N4_13  and  C10_15 
REMARK       I    between atoms: C10_15  and  N5_17 
REMARK    6  A    between atoms: C16_24  and  O3_25 
ROOT
HETATM    1  C2  UNL     1      27.538   0.773  53.503  1.00  0.00     0.103 A 
HETATM    2  C3  UNL     1      27.000  -0.087  54.433  1.00  0.00     0.072 A 
HETATM    3  C4  UNL     1      25.644  -0.298  54.416  1.00  0.00     0.075 A 
HETATM    4  N1  UNL     1      25.112  -1.125  55.309  1.00  0.00    -0.241 NA
HETATM    5  C5  UNL     1      23.784  -1.345  55.309  1.00  0.00     0.235 A 
HETATM    6  N2  UNL     1      22.991  -0.734  54.411  1.00  0.00    -0.224 NA
HETATM    7  C6  UNL     1      23.449   0.113  53.482  1.00  0.00     0.137 A 
HETATM    8  C14 UNL     1      24.805   0.315  53.509  1.00  0.00     0.041 A 
HETATM    9  C15 UNL     1      25.378   1.164  52.598  1.00  0.00     0.057 A 
HETATM   10  C16 UNL     1      26.735   1.406  52.578  1.00  0.00     0.102 A 
ENDROOT
BRANCH   7  11
HETATM   11  N3  UNL     1      22.558   0.727  52.563  1.00  0.00    -0.372 N 
HETATM   12  H6  UNL     1      22.506   1.738  52.331  1.00  0.00     0.161 HD
BRANCH  11  13
HETATM   13  C7  UNL     1      21.603  -0.103  51.854  1.00  0.00     0.141 C 
BRANCH  13  14
HETATM   14  C8  UNL     1      20.813   0.665  50.821  1.00  0.00     0.146 C 
BRANCH  14  15
HETATM   15  N4  UNL     1      19.702   1.372  51.386  1.00  0.00    -0.336 N 
HETATM   16  C9  UNL     1      18.476   0.787  51.898  1.00  0.00     0.154 C 
HETATM   17  C10 UNL     1      19.721   2.790  51.492  1.00  0.00     0.330 C 
HETATM   18  O2  UNL     1      18.883   3.621  51.943  1.00  0.00    -0.246 OA
HETATM   19  N5  UNL     1      20.853   3.540  51.036  1.00  0.00    -0.266 N 
HETATM   20  C11 UNL     1      20.955   4.986  51.107  1.00  0.00     0.170 C 
HETATM   21  S1  UNL     1      22.481   3.488  50.289  1.00  0.00    -0.020 SA
HETATM   22  C12 UNL     1      22.179   5.342  51.837  1.00  0.00     0.002 C 
HETATM   23  C13 UNL     1      23.250   4.582  51.521  1.00  0.00     0.066 C 
ENDBRANCH  14  15
ENDBRANCH  13  14
ENDBRANCH  11  13
ENDBRANCH   7  11
BRANCH  10  24
HETATM   24  O3  UNL     1      27.305   2.267  51.651  1.00  0.00    -0.353 OA
HETATM   25  C17 UNL     1      26.497   2.913  50.686  1.00  0.00     0.210 C 
ENDBRANCH  10  24
BRANCH   1  26
HETATM   26  O1  UNL     1      28.898   1.033  53.460  1.00  0.00    -0.353 OA
HETATM   27  C1  UNL     1      29.870   0.001  53.579  1.00  0.00     0.210 C 
ENDBRANCH   1  26
TORSDOF 6
ENDMDL
MODEL 2
REMARK VINA RESULT:      -7.3      3.208      5.408
REMARK  6 active torsions:
REMARK  status: ('A' for Active; 'I' for Inactive)
REMARK    1  A    between atoms: O1_2  and  C2_3 
REMARK    2  A    between atoms: C6_9  and  N3_10 
REMARK    3  A    between atoms: N3_10  and  C7_11 
REMARK    4  A    between atoms: C7_11  and  C8_12 
REMARK    5  A    between atoms: C8_12  and  N4_13 
REMARK       I    between atoms: N4_13  and  C10_15 
REMARK       I    between atoms: C10_15  and  N5_17 
REMARK    6  A    between atoms: C16_24  and  O3_25 
ROOT
HETATM    1  C2  UNL     1      23.549  -0.205  53.299  1.00  0.00     0.103 A 
HETATM    2  C3  UNL     1      24.793  -0.561  53.770  1.00  0.00     0.072 A 
HETATM    3  C4  UNL     1      25.870   0.207  53.406  1.00  0.00     0.075 A 
HETATM    4  N1  UNL     1      27.075  -0.126  53.854  1.00  0.00    -0.241 NA
HETATM    5  C5  UNL     1      28.145   0.615  53.508  1.00  0.00     0.235 A 
HETATM    6  N2  UNL     1      28.003   1.689  52.711  1.00  0.00    -0.224 NA
HETATM    7  C6  UNL     1      26.824   2.088  52.219  1.00  0.00     0.137 A 
HETATM    8  C14 UNL     1      25.756   1.314  52.590  1.00  0.00     0.041 A 
HETATM    9  C15 UNL     1      24.501   1.636  52.141  1.00  0.00     0.057 A 
HETATM   10  C16 UNL     1      23.391   0.894  52.481  1.00  0.00     0.102 A 
ENDROOT
BRANCH   7  11
HETATM   11  N3  UNL     1      26.743   3.232  51.382  1.00  0.00    -0.372 N 
HETATM   12  H6  UNL     1      26.733   4.225  51.689  1.00  0.00     0.161 HD
BRANCH  11  13
HETATM   13  C7  UNL     1      26.664   3.045  49.947  1.00  0.00     0.141 C 
BRANCH  13  14
HETATM   14  C8  UNL     1      25.770   4.058  49.272  1.00  0.00     0.146 C 
BRANCH  14  15
HETATM   15  N4  UNL     1      26.396   5.340  49.129  1.00  0.00    -0.336 N 
HETATM   16  C9  UNL     1      27.626   5.626  48.414  1.00  0.00     0.154 C 
HETATM   17  C10 UNL     1      25.818   6.499  49.715  1.00  0.00     0.330 C 
HETATM   18  O2  UNL     1      26.170   7.712  49.729  1.00  0.00    -0.246 OA
HETATM   19  N5  UNL     1      24.598   6.408  50.461  1.00  0.00    -0.266 N 
HETATM   20  C11 UNL     1      23.942   7.539  51.092  1.00  0.00     0.170 C 
HETATM   21  S1  UNL     1      23.293   5.343  51.072  1.00  0.00    -0.020 SA
HETATM   22  C12 UNL     1      22.557   7.616  50.607  1.00  0.00     0.002 C 
HETATM   23  C13 UNL     1      21.940   6.419  50.506  1.00  0.00     0.066 C 
ENDBRANCH  14  15
ENDBRANCH  13  14
ENDBRANCH  11  13
ENDBRANCH   7  11
BRANCH  10  24
HETATM   24  O3  UNL     1      22.125   1.229  52.021  1.00  0.00    -0.353 OA
HETATM   25  C17 UNL     1      21.775   1.005  50.670  1.00  0.00     0.210 C 
ENDBRANCH  10  24
BRANCH   1  26
HETATM   26  O1  UNL     1      22.416  -0.932  53.626  1.00  0.00    -0.353 OA
HETATM   27  C1  UNL     1      21.987  -1.102  54.972  1.00  0.00     0.210 C 
ENDBRANCH   1  26
TORSDOF 6
ENDMDL
MODEL 3
REMARK VINA RESULT:      -7.2      2.461      4.243
REMARK  6 active torsions:
REMARK  status: ('A' for Active; 'I' for Inactive)
REMARK    1  A    between atoms: O1_2  and  C2_3 
REMARK    2  A    between atoms: C6_9  and  N3_10 
REMARK    3  A    between atoms: N3_10  and  C7_11 
REMARK    4  A    between atoms: C7_11  and  C8_12 
REMARK    5  A    between atoms: C8_12  and  N4_13 
REMARK       I    between atoms: N4_13  and  C10_15 
REMARK       I    between atoms: C10_15  and  N5_17 
REMARK    6  A    between atoms: C16_24  and  O3_25 
ROOT
HETATM    1  C2  UNL     1      27.193   0.176  53.588  1.00  0.00     0.103 A 
HETATM    2  C3  UNL     1      27.590   1.165  52.715  1.00  0.00     0.072 A 
HETATM    3  C4  UNL     1      26.629   1.796  51.966  1.00  0.00     0.075 A 
HETATM    4  N1  UNL     1      26.999   2.751  51.121  1.00  0.00    -0.241 NA
HETATM    5  C5  UNL     1      26.071   3.382  50.378  1.00  0.00     0.235 A 
HETATM    6  N2  UNL     1      24.772   3.053  50.484  1.00  0.00    -0.224 NA
HETATM    7  C6  UNL     1      24.319   2.103  51.311  1.00  0.00     0.137 A 
HETATM    8  C14 UNL     1      25.289   1.480  52.053  1.00  0.00     0.041 A 
HETATM    9  C15 UNL     1      24.933   0.491  52.933  1.00  0.00     0.057 A 
HETATM   10  C16 UNL     1      25.863  -0.170  53.705  1.00  0.00     0.102 A 
ENDROOT
BRANCH   7  11
HETATM   11  N3  UNL     1      22.933   1.804  51.375  1.00  0.00    -0.372 N 
HETATM   12  H6  UNL     1      22.508   0.869  51.536  1.00  0.00     0.161 HD
BRANCH  11  13
HETATM   13  C7  UNL     1      21.976   2.879  51.204  1.00  0.00     0.141 C 
BRANCH  13  14
HETATM   14  C8  UNL     1      20.689   2.644  51.959  1.00  0.00     0.146 C 
BRANCH  14  15
HETATM   15  N4  UNL     1      19.783   1.784  51.255  1.00  0.00    -0.336 N 
HETATM   16  C9  UNL     1      19.185   2.037  49.957  1.00  0.00     0.154 C 
HETATM   17  C10 UNL     1      19.380   0.540  51.814  1.00  0.00     0.330 C 
HETATM   18  O2  UNL     1      18.611  -0.371  51.398  1.00  0.00    -0.246 OA
HETATM   19  N5  UNL     1      19.873   0.123  53.093  1.00  0.00    -0.266 N 
HETATM   20  C11 UNL     1      19.513  -1.128  53.736  1.00  0.00     0.170 C 
HETATM   21  S1  UNL     1      20.911   0.517  54.499  1.00  0.00    -0.020 SA
HETATM   22  C12 UNL     1      20.741  -1.870  54.054  1.00  0.00     0.002 C 
HETATM   23  C13 UNL     1      21.741  -1.101  54.535  1.00  0.00     0.066 C 
ENDBRANCH  14  15
ENDBRANCH  13  14
ENDBRANCH  11  13
ENDBRANCH   7  11
BRANCH  10  24
HETATM   24  O3  UNL     1      25.492  -1.169  54.593  1.00  0.00    -0.353 OA
HETATM   25  C17 UNL     1      25.159  -0.848  55.930  1.00  0.00     0.210 C 
ENDBRANCH  10  24
BRANCH   1  26
HETATM   26  O1  UNL     1      28.107  -0.503  54.376  1.00  0.00    -0.353 OA
HETATM   27  C1  UNL     1      29.372  -0.923  53.877  1.00  0.00     0.210 C 
ENDBRANCH   1  26
TORSDOF 6
ENDMDL
MODEL 4
REMARK VINA RESULT:      -7.0      2.796      4.527
REMARK  6 active torsions:
REMARK  status: ('A' for Active; 'I' for Inactive)
REMARK    1  A    between atoms: O1_2  and  C2_3 
REMARK    2  A    between atoms: C6_9  and  N3_10 
REMARK    3  A    between atoms: N3_10  and  C7_11 
REMARK    4  A    between atoms: C7_11  and  C8_12 
REMARK    5  A    between atoms: C8_12  and  N4_13 
REMARK       I    between atoms: N4_13  and  C10_15 
REMARK       I    between atoms: C10_15  and  N5_17 
REMARK    6  A    between atoms: C16_24  and  O3_25 
ROOT
HETATM    1  C2  UNL     1      26.119  -0.313  52.998  1.00  0.00     0.103 A 
HETATM    2  C3  UNL     1      26.775   0.495  52.098  1.00  0.00     0.072 A 
HETATM    3  C4  UNL     1      26.155   1.648  51.687  1.00  0.00     0.075 A 
HETATM    4  N1  UNL     1      26.778   2.436  50.817  1.00  0.00    -0.241 NA
HETATM    5  C5  UNL     1      26.187   3.572  50.403  1.00  0.00     0.235 A 
HETATM    6  N2  UNL     1      24.970   3.916  50.861  1.00  0.00    -0.224 NA
HETATM    7  C6  UNL     1      24.279   3.176  51.736  1.00  0.00     0.137 A 
HETATM    8  C14 UNL     1      24.908   2.027  52.139  1.00  0.00     0.041 A 
HETATM    9  C15 UNL     1      24.287   1.197  53.035  1.00  0.00     0.057 A 
HETATM   10  C16 UNL     1      24.870   0.029  53.475  1.00  0.00     0.102 A 
ENDROOT
BRANCH   7  11
HETATM   11  N3  UNL     1      22.997   3.596  52.180  1.00  0.00    -0.372 N 
HETATM   12  H6  UNL     1      22.231   2.985  52.526  1.00  0.00     0.161 HD
BRANCH  11  13
HETATM   13  C7  UNL     1      22.681   5.011  52.166  1.00  0.00     0.141 C 
BRANCH  13  14
HETATM   14  C8  UNL     1      21.590   5.357  51.181  1.00  0.00     0.146 C 
BRANCH  14  15
HETATM   15  N4  UNL     1      22.091   5.588  49.858  1.00  0.00    -0.336 N 
HETATM   16  C9  UNL     1      22.805   6.765  49.397  1.00  0.00     0.154 C 
HETATM   17  C10 UNL     1      21.913   4.617  48.834  1.00  0.00     0.330 C 
HETATM   18  O2  UNL     1      22.256   4.588  47.619  1.00  0.00    -0.246 OA
HETATM   19  N5  UNL     1      21.229   3.388  49.107  1.00  0.00    -0.266 N 
HETATM   20  C11 UNL     1      21.004   2.344  48.123  1.00  0.00     0.170 C 
HETATM   21  S1  UNL     1      20.379   2.386  50.325  1.00  0.00    -0.020 SA
HETATM   22  C12 UNL     1      21.548   1.080  48.637  1.00  0.00     0.002 C 
HETATM   23  C13 UNL     1      21.305   0.867  49.948  1.00  0.00     0.066 C 
ENDBRANCH  14  15
ENDBRANCH  13  14
ENDBRANCH  11  13
ENDBRANCH   7  11
BRANCH  10  24
HETATM   24  O3  UNL     1      24.232  -0.805  54.383  1.00  0.00    -0.353 OA
HETATM   25  C17 UNL     1      22.821  -0.895  54.399  1.00  0.00     0.210 C 
ENDBRANCH  10  24
BRANCH   1  26
HETATM   26  O1  UNL     1      26.682  -1.492  53.458  1.00  0.00    -0.353 OA
HETATM   27  C1  UNL     1      27.276  -2.441  52.578  1.00  0.00     0.210 C 
ENDBRANCH   1  26
TORSDOF 6
ENDMDL
MODEL 5
REMARK VINA RESULT:      -6.9      2.790      4.718
REMARK  6 active torsions:
REMARK  status: ('A' for Active; 'I' for Inactive)
REMARK    1  A    between atoms: O1_2  and  C2_3 
REMARK    2  A    between atoms: C6_9  and  N3_10 
REMARK    3  A    between atoms: N3_10  and  C7_11 
REMARK    4  A    between atoms: C7_11  and  C8_12 
REMARK    5  A    between atoms: C8_12  and  N4_13 
REMARK       I    between atoms: N4_13  and  C10_15 
REMARK       I    between atoms: C10_15  and  N5_17 
REMARK    6  A    between atoms: C16_24  and  O3_25 
ROOT
HETATM    1  C2  UNL     1      26.844  -0.130  53.518  1.00  0.00     0.103 A 
HETATM    2  C3  UNL     1      27.050   0.757  52.486  1.00  0.00     0.072 A 
HETATM    3  C4  UNL     1      25.968   1.440  51.989  1.00  0.00     0.075 A 
HETATM    4  N1  UNL     1      26.154   2.298  50.993  1.00  0.00    -0.241 NA
HETATM    5  C5  UNL     1      25.106   2.979  50.493  1.00  0.00     0.235 A 
HETATM    6  N2  UNL     1      23.871   2.796  50.993  1.00  0.00    -0.224 NA
HETATM    7  C6  UNL     1      23.603   1.951  51.995  1.00  0.00     0.137 A 
HETATM    8  C14 UNL     1      24.691   1.274  52.483  1.00  0.00     0.041 A 
HETATM    9  C15 UNL     1      24.526   0.383  53.511  1.00  0.00     0.057 A 
HETATM   10  C16 UNL     1      25.582  -0.326  54.040  1.00  0.00     0.102 A 
ENDROOT
BRANCH   7  11
HETATM   11  N3  UNL     1      22.276   1.804  52.478  1.00  0.00    -0.372 N 
HETATM   12  H6  UNL     1      21.838   2.332  53.259  1.00  0.00     0.161 HD
BRANCH  11  13
HETATM   13  C7  UNL     1      21.405   0.830  51.848  1.00  0.00     0.141 C 
BRANCH  13  14
HETATM   14  C8  UNL     1      20.031   0.782  52.473  1.00  0.00     0.146 C 
BRANCH  14  15
HETATM   15  N4  UNL     1      19.798  -0.429  53.205  1.00  0.00    -0.336 N 
HETATM   16  C9  UNL     1      20.760  -1.140  54.026  1.00  0.00     0.154 C 
HETATM   17  C10 UNL     1      18.524  -1.060  53.177  1.00  0.00     0.330 C 
HETATM   18  O2  UNL     1      18.082  -2.108  53.726  1.00  0.00    -0.246 OA
HETATM   19  N5  UNL     1      17.449  -0.497  52.416  1.00  0.00    -0.266 N 
HETATM   20  C11 UNL     1      16.120  -1.076  52.332  1.00  0.00     0.170 C 
HETATM   21  S1  UNL     1      16.912   0.826  51.334  1.00  0.00    -0.020 SA
HETATM   22  C12 UNL     1      15.135  -0.064  52.737  1.00  0.00     0.002 C 
HETATM   23  C13 UNL     1      15.387   1.174  52.262  1.00  0.00     0.066 C 
ENDBRANCH  14  15
ENDBRANCH  13  14
ENDBRANCH  11  13
ENDBRANCH   7  11
BRANCH  10  24
HETATM   24  O3  UNL     1      25.404  -1.225  55.082  1.00  0.00    -0.353 OA
HETATM   25  C17 UNL     1      24.143  -1.349  55.709  1.00  0.00     0.210 C 
ENDBRANCH  10  24
BRANCH   1  26
HETATM   26  O1  UNL     1      27.888  -0.854  54.070  1.00  0.00    -0.353 OA
HETATM   27  C1  UNL     1      29.235  -0.396  54.023  1.00  0.00     0.210 C 
ENDBRANCH   1  26
TORSDOF 6
ENDMDL
MODEL 6
REMARK VINA RESULT:      -6.9      2.460      3.835
REMARK  6 active torsions:
REMARK  status: ('A' for Active; 'I' for Inactive)
REMARK    1  A    between atoms: O1_2  and  C2_3 
REMARK    2  A    between atoms: C6_9  and  N3_10 
REMARK    3  A    between atoms: N3_10  and  C7_11 
REMARK    4  A    between atoms: C7_11  and  C8_12 
REMARK    5  A    between atoms: C8_12  and  N4_13 
REMARK       I    between atoms: N4_13  and  C10_15 
REMARK       I    between atoms: C10_15  and  N5_17 
REMARK    6  A    between atoms: C16_24  and  O3_25 
ROOT
HETATM    1  C2  UNL     1      26.446  -0.322  53.325  1.00  0.00     0.103 A 
HETATM    2  C3  UNL     1      25.139  -0.728  53.470  1.00  0.00     0.072 A 
HETATM    3  C4  UNL     1      24.143   0.178  53.206  1.00  0.00     0.075 A 
HETATM    4  N1  UNL     1      22.877  -0.202  53.342  1.00  0.00    -0.241 NA
HETATM    5  C5  UNL     1      21.886   0.672  53.087  1.00  0.00     0.235 A 
HETATM    6  N2  UNL     1      22.166   1.927  52.696  1.00  0.00    -0.224 NA
HETATM    7  C6  UNL     1      23.413   2.386  52.536  1.00  0.00     0.137 A 
HETATM    8  C14 UNL     1      24.399   1.472  52.803  1.00  0.00     0.041 A 
HETATM    9  C15 UNL     1      25.713   1.839  52.669  1.00  0.00     0.057 A 
HETATM   10  C16 UNL     1      26.746   0.964  52.924  1.00  0.00     0.102 A 
ENDROOT
BRANCH   7  11
HETATM   11  N3  UNL     1      23.641   3.724  52.121  1.00  0.00    -0.372 N 
HETATM   12  H6  UNL     1      24.427   4.066  51.534  1.00  0.00     0.161 HD
BRANCH  11  13
HETATM   13  C7  UNL     1      22.706   4.754  52.533  1.00  0.00     0.141 C 
BRANCH  13  14
HETATM   14  C8  UNL     1      21.922   5.329  51.378  1.00  0.00     0.146 C 
BRANCH  14  15
HETATM   15  N4  UNL     1      22.762   5.900  50.366  1.00  0.00    -0.336 N 
HETATM   16  C9  UNL     1      23.610   7.070  50.507  1.00  0.00     0.154 C 
HETATM   17  C10 UNL     1      22.830   5.323  49.068  1.00  0.00     0.330 C 
HETATM   18  O2  UNL     1      23.481   5.634  48.032  1.00  0.00    -0.246 OA
HETATM   19  N5  UNL     1      22.059   4.159  48.747  1.00  0.00    -0.266 N 
HETATM   20  C11 UNL     1      22.069   3.508  47.449  1.00  0.00     0.170 C 
HETATM   21  S1  UNL     1      20.885   2.935  49.323  1.00  0.00    -0.020 SA
HETATM   22  C12 UNL     1      22.418   2.092  47.631  1.00  0.00     0.002 C 
HETATM   23  C13 UNL     1      21.829   1.511  48.698  1.00  0.00     0.066 C 
ENDBRANCH  14  15
ENDBRANCH  13  14
ENDBRANCH  11  13
ENDBRANCH   7  11
BRANCH  10  24
HETATM   24  O3  UNL     1      28.073   1.346  52.785  1.00  0.00    -0.353 OA
HETATM   25  C17 UNL     1      28.611   2.364  53.606  1.00  0.00     0.210 C 
ENDBRANCH  10  24
BRANCH   1  26
HETATM   26  O1  UNL     1      27.503  -1.181  53.573  1.00  0.00    -0.353 OA
HETATM   27  C1  UNL     1      27.700  -2.375  52.823  1.00  0.00     0.210 C 
ENDBRANCH   1  26
TORSDOF 6
ENDMDL
MODEL 7
REMARK VINA RESULT:      -6.9      1.805      2.271
REMARK  6 active torsions:
REMARK  status: ('A' for Active; 'I' for Inactive)
REMARK    1  A    between atoms: O1_2  and  C2_3 
REMARK    2  A    between atoms: C6_9  and  N3_10 
REMARK    3  A    between atoms: N3_10  and  C7_11 
REMARK    4  A    between atoms: C7_11  and  C8_12 
REMARK    5  A    between atoms: C8_12  and  N4_13 
REMARK       I    between atoms: N4_13  and  C10_15 
REMARK       I    between atoms: C10_15  and  N5_17 
REMARK    6  A    between atoms: C16_24  and  O3_25 
ROOT
HETATM    1  C2  UNL     1      26.329  -0.138  53.299  1.00  0.00     0.103 A 
HETATM    2  C3  UNL     1      25.466  -0.779  54.158  1.00  0.00     0.072 A 
HETATM    3  C4  UNL     1      24.127  -0.494  54.068  1.00  0.00     0.075 A 
HETATM    4  N1  UNL     1      23.284  -1.105  54.892  1.00  0.00    -0.241 NA
HETATM    5  C5  UNL     1      21.966  -0.840  54.819  1.00  0.00     0.235 A 
HETATM    6  N2  UNL     1      21.496   0.042  53.919  1.00  0.00    -0.224 NA
HETATM    7  C6  UNL     1      22.280   0.699  53.056  1.00  0.00     0.137 A 
HETATM    8  C14 UNL     1      23.615   0.406  53.156  1.00  0.00     0.041 A 
HETATM    9  C15 UNL     1      24.506   1.024  52.317  1.00  0.00     0.057 A 
HETATM   10  C16 UNL     1      25.859   0.769  52.372  1.00  0.00     0.102 A 
ENDROOT
BRANCH   7  11
HETATM   11  N3  UNL     1      21.720   1.618  52.130  1.00  0.00    -0.372 N 
HETATM   12  H6  UNL     1      22.060   1.813  51.168  1.00  0.00     0.161 HD
BRANCH  11  13
HETATM   13  C7  UNL     1      20.553   2.384  52.523  1.00  0.00     0.141 C 
BRANCH  13  14
HETATM   14  C8  UNL     1      20.490   3.738  51.857  1.00  0.00     0.146 C 
BRANCH  14  15
HETATM   15  N4  UNL     1      20.410   3.650  50.428  1.00  0.00    -0.336 N 
HETATM   16  C9  UNL     1      19.287   3.153  49.656  1.00  0.00     0.154 C 
HETATM   17  C10 UNL     1      21.496   4.071  49.613  1.00  0.00     0.330 C 
HETATM   18  O2  UNL     1      21.661   4.093  48.361  1.00  0.00    -0.246 OA
HETATM   19  N5  UNL     1      22.692   4.592  50.204  1.00  0.00    -0.266 N 
HETATM   20  C11 UNL     1      23.846   5.044  49.447  1.00  0.00     0.170 C 
HETATM   21  S1  UNL     1      23.555   5.010  51.718  1.00  0.00    -0.020 SA
HETATM   22  C12 UNL     1      24.156   6.427  49.833  1.00  0.00     0.002 C 
HETATM   23  C13 UNL     1      24.055   6.666  51.158  1.00  0.00     0.066 C 
ENDBRANCH  14  15
ENDBRANCH  13  14
ENDBRANCH  11  13
ENDBRANCH   7  11
BRANCH  10  24
HETATM   24  O3  UNL     1      26.752   1.400  51.517  1.00  0.00    -0.353 OA
HETATM   25  C17 UNL     1      26.460   2.684  51.002  1.00  0.00     0.210 C 
ENDBRANCH  10  24
BRANCH   1  26
HETATM   26  O1  UNL     1      27.693  -0.376  53.331  1.00  0.00    -0.353 OA
HETATM   27  C1  UNL     1      28.476  -0.134  54.495  1.00  0.00     0.210 C 
ENDBRANCH   1  26
TORSDOF 6
ENDMDL
MODEL 8
REMARK VINA RESULT:      -6.8      2.725      5.479
REMARK  6 active torsions:
REMARK  status: ('A' for Active; 'I' for Inactive)
REMARK    1  A    between atoms: O1_2  and  C2_3 
REMARK    2  A    between atoms: C6_9  and  N3_10 
REMARK    3  A    between atoms: N3_10  and  C7_11 
REMARK    4  A    between atoms: C7_11  and  C8_12 
REMARK    5  A    between atoms: C8_12  and  N4_13 
REMARK       I    between atoms: N4_13  and  C10_15 
REMARK       I    between atoms: C10_15  and  N5_17 
REMARK    6  A    between atoms: C16_24  and  O3_25 
ROOT
HETATM    1  C2  UNL     1      20.119  -0.630  53.307  1.00  0.00     0.103 A 
HETATM    2  C3  UNL     1      20.766  -1.131  54.415  1.00  0.00     0.072 A 
HETATM    3  C4  UNL     1      22.130  -1.005  54.484  1.00  0.00     0.075 A 
HETATM    4  N1  UNL     1      22.766  -1.485  55.547  1.00  0.00    -0.241 NA
HETATM    5  C5  UNL     1      24.104  -1.370  55.634  1.00  0.00     0.235 A 
HETATM    6  N2  UNL     1      24.804  -0.773  54.653  1.00  0.00    -0.224 NA
HETATM    7  C6  UNL     1      24.238  -0.266  53.552  1.00  0.00     0.137 A 
HETATM    8  C14 UNL     1      22.875  -0.398  53.494  1.00  0.00     0.041 A 
HETATM    9  C15 UNL     1      22.196   0.088  52.407  1.00  0.00     0.057 A 
HETATM   10  C16 UNL     1      20.827  -0.016  52.294  1.00  0.00     0.102 A 
ENDROOT
BRANCH   7  11
HETATM   11  N3  UNL     1      25.035   0.351  52.551  1.00  0.00    -0.372 N 
HETATM   12  H6  UNL     1      25.331  -0.069  51.648  1.00  0.00     0.161 HD
BRANCH  11  13
HETATM   13  C7  UNL     1      25.506   1.705  52.769  1.00  0.00     0.141 C 
BRANCH  13  14
HETATM   14  C8  UNL     1      24.652   2.741  52.075  1.00  0.00     0.146 C 
BRANCH  14  15
HETATM   15  N4  UNL     1      25.344   3.407  51.011  1.00  0.00    -0.336 N 
HETATM   16  C9  UNL     1      26.595   2.994  50.403  1.00  0.00     0.154 C 
HETATM   17  C10 UNL     1      24.819   4.597  50.437  1.00  0.00     0.330 C 
HETATM   18  O2  UNL     1      25.233   5.349  49.511  1.00  0.00    -0.246 OA
HETATM   19  N5  UNL     1      23.587   5.153  50.912  1.00  0.00    -0.266 N 
HETATM   20  C11 UNL     1      22.982   6.363  50.384  1.00  0.00     0.170 C 
HETATM   21  S1  UNL     1      22.222   5.004  52.063  1.00  0.00    -0.020 SA
HETATM   22  C12 UNL     1      21.609   6.060  49.958  1.00  0.00     0.002 C 
HETATM   23  C13 UNL     1      20.933   5.255  50.805  1.00  0.00     0.066 C 
ENDBRANCH  14  15
ENDBRANCH  13  14
ENDBRANCH  11  13
ENDBRANCH   7  11
BRANCH  10  24
HETATM   24  O3  UNL     1      20.149   0.480  51.190  1.00  0.00    -0.353 OA
HETATM   25  C17 UNL     1      20.736   1.485  50.385  1.00  0.00     0.210 C 
ENDBRANCH  10  24
BRANCH   1  26
HETATM   26  O1  UNL     1      18.744  -0.721  53.169  1.00  0.00    -0.353 OA
HETATM   27  C1  UNL     1      18.021  -1.886  53.549  1.00  0.00     0.210 C 
ENDBRANCH   1  26
TORSDOF 6
ENDMDL
MODEL 9
REMARK VINA RESULT:      -6.7      2.149      3.388
REMARK  6 active torsions:
REMARK  status: ('A' for Active; 'I' for Inactive)
REMARK    1  A    between atoms: O1_2  and  C2_3 
REMARK    2  A    between atoms: C6_9  and  N3_10 
REMARK    3  A    between atoms: N3_10  and  C7_11 
REMARK    4  A    between atoms: C7_11  and  C8_12 
REMARK    5  A    between atoms: C8_12  and  N4_13 
REMARK       I    between atoms: N4_13  and  C10_15 
REMARK       I    between atoms: C10_15  and  N5_17 
REMARK    6  A    between atoms: C16_24  and  O3_25 
ROOT
HETATM    1  C2  UNL     1      27.335   0.175  53.762  1.00  0.00     0.103 A 
HETATM    2  C3  UNL     1      27.673   1.164  52.866  1.00  0.00     0.072 A 
HETATM    3  C4  UNL     1      26.679   1.708  52.092  1.00  0.00     0.075 A 
HETATM    4  N1  UNL     1      26.992   2.662  51.223  1.00  0.00    -0.241 NA
HETATM    5  C5  UNL     1      26.031   3.209  50.455  1.00  0.00     0.235 A 
HETATM    6  N2  UNL     1      24.756   2.796  50.559  1.00  0.00    -0.224 NA
HETATM    7  C6  UNL     1      24.361   1.840  51.409  1.00  0.00     0.137 A 
HETATM    8  C14 UNL     1      25.362   1.304  52.176  1.00  0.00     0.041 A 
HETATM    9  C15 UNL     1      25.065   0.318  53.080  1.00  0.00     0.057 A 
HETATM   10  C16 UNL     1      26.030  -0.257  53.878  1.00  0.00     0.102 A 
ENDROOT
BRANCH   7  11
HETATM   11  N3  UNL     1      22.997   1.449  51.469  1.00  0.00    -0.372 N 
HETATM   12  H6  UNL     1      22.613   0.615  51.956  1.00  0.00     0.161 HD
BRANCH  11  13
HETATM   13  C7  UNL     1      22.004   2.265  50.798  1.00  0.00     0.141 C 
BRANCH  13  14
HETATM   14  C8  UNL     1      21.372   3.287  51.713  1.00  0.00     0.146 C 
BRANCH  14  15
HETATM   15  N4  UNL     1      20.032   3.622  51.327  1.00  0.00    -0.336 N 
HETATM   16  C9  UNL     1      18.826   2.893  51.674  1.00  0.00     0.154 C 
HETATM   17  C10 UNL     1      19.772   4.766  50.525  1.00  0.00     0.330 C 
HETATM   18  O2  UNL     1      18.704   5.259  50.066  1.00  0.00    -0.246 OA
HETATM   19  N5  UNL     1      20.846   5.608  50.087  1.00  0.00    -0.266 N 
HETATM   20  C11 UNL     1      20.670   6.794  49.267  1.00  0.00     0.170 C 
HETATM   21  S1  UNL     1      22.612   5.909  50.095  1.00  0.00    -0.020 SA
HETATM   22  C12 UNL     1      21.280   7.941  49.952  1.00  0.00     0.002 C 
HETATM   23  C13 UNL     1      22.466   7.667  50.537  1.00  0.00     0.066 C 
ENDBRANCH  14  15
ENDBRANCH  13  14
ENDBRANCH  11  13
ENDBRANCH   7  11
BRANCH  10  24
HETATM   24  O3  UNL     1      25.718  -1.255  54.790  1.00  0.00    -0.353 OA
HETATM   25  C17 UNL     1      24.506  -1.203  55.517  1.00  0.00     0.210 C 
ENDBRANCH  10  24
BRANCH   1  26
HETATM   26  O1  UNL     1      28.284  -0.419  54.577  1.00  0.00    -0.353 OA
HETATM   27  C1  UNL     1      29.543  -0.856  54.077  1.00  0.00     0.210 C 
ENDBRANCH   1  26
TORSDOF 6
ENDMDL
