MODEL 1
REMARK VINA RESULT:      -8.7      0.000      0.000
REMARK  6 active torsions:
REMARK  status: ('A' for Active; 'I' for Inactive)
REMARK    1  A    between atoms: C2_2  and  C3_3 
REMARK    2  A    between atoms: C3_3  and  C4_5 
REMARK    3  A    between atoms: C4_5  and  O2_6 
REMARK    4  A    between atoms: C5_7  and  C6_8 
REMARK    5  A    between atoms: N2_18  and  C15_19 
REMARK    6  A    between atoms: C15_19  and  C16_20 
ROOT
HETATM    1  C4  UNL     1      26.329   7.788  49.580  1.00  0.00     0.190 C 
HETATM    2  C5  UNL     1      25.409   8.641  48.829  1.00  0.00     0.006 C 
HETATM    3  C7  UNL     1      24.183   8.083  48.825  1.00  0.00     0.028 C 
HETATM    4  C8  UNL     1      24.184   6.808  49.572  1.00  0.00     0.132 C 
HETATM    5  C9  UNL     1      23.772   5.629  48.745  1.00  0.00     0.047 C 
HETATM    6  C10 UNL     1      24.497   4.590  49.239  1.00  0.00     0.057 C 
HETATM    7  C11 UNL     1      23.651   3.442  48.936  1.00  0.00     0.040 C 
HETATM    8  C12 UNL     1      22.626   2.983  49.608  1.00  0.00    -0.028 C 
HETATM    9  C13 UNL     1      21.883   1.798  49.141  1.00  0.00     0.060 C 
HETATM   10  C14 UNL     1      20.866   1.501  50.186  1.00  0.00     0.128 C 
HETATM   11  N2  UNL     1      21.155   2.311  51.351  1.00  0.00    -0.376 N 
HETATM   12  C22 UNL     1      21.939   3.332  50.832  1.00  0.00     0.035 C 
HETATM   13  C23 UNL     1      22.074   4.564  51.395  1.00  0.00     0.032 C 
HETATM   14  C24 UNL     1      22.740   5.866  51.221  1.00  0.00     0.157 C 
HETATM   15  N3  UNL     1      23.438   6.818  50.761  1.00  0.00    -0.293 NA
HETATM   16  N4  UNL     1      25.651   5.176  49.806  1.00  0.00    -0.251 NA
HETATM   17  C25 UNL     1      25.633   6.482  49.676  1.00  0.00     0.097 C 
ENDROOT
BRANCH  11  18
HETATM   18  C15 UNL     1      20.758   2.143  52.730  1.00  0.00     0.161 C 
BRANCH  18  19
HETATM   19  C16 UNL     1      21.561   1.008  53.275  1.00  0.00    -0.040 A 
HETATM   20  C17 UNL     1      22.898   0.759  53.077  1.00  0.00     0.009 A 
HETATM   21  C18 UNL     1      23.482  -0.350  53.664  1.00  0.00     0.001 A 
HETATM   22  C19 UNL     1      22.787  -1.242  54.454  1.00  0.00     0.000 A 
HETATM   23  C20 UNL     1      21.449  -1.009  54.661  1.00  0.00     0.001 A 
HETATM   24  C21 UNL     1      20.857   0.110  54.069  1.00  0.00     0.009 A 
ENDBRANCH  18  19
ENDBRANCH  11  18
BRANCH   1  25
HETATM   25  C3  UNL     1      27.653   7.687  48.936  1.00  0.00     0.171 C 
HETATM   26  O1  UNL     1      28.603   8.372  49.264  1.00  0.00    -0.294 OA
BRANCH  25  27
HETATM   27  C2  UNL     1      28.012   6.769  47.830  1.00  0.00     0.078 C 
HETATM   28  C1  UNL     1      29.025   5.790  48.328  1.00  0.00     0.013 C 
ENDBRANCH  25  27
ENDBRANCH   1  25
BRANCH   1  29
HETATM   29  O2  UNL     1      26.524   8.191  50.895  1.00  0.00    -0.372 OA
HETATM   30  H6  UNL     1      25.730   7.981  51.445  1.00  0.00     0.212 HD
ENDBRANCH   1  29
BRANCH   2  31
HETATM   31  C6  UNL     1      25.718   9.918  48.163  1.00  0.00     0.117 C 
HETATM   32  N1  UNL     1      26.371  10.812  48.822  1.00  0.00    -0.312 NA
HETATM   33  H8  UNL     1      26.602  11.723  48.376  1.00  0.00     0.186 HD
ENDBRANCH   2  31
TORSDOF 6
ENDMDL
MODEL 2
REMARK VINA RESULT:      -8.6      5.653      8.612
REMARK  6 active torsions:
REMARK  status: ('A' for Active; 'I' for Inactive)
REMARK    1  A    between atoms: C2_2  and  C3_3 
REMARK    2  A    between atoms: C3_3  and  C4_5 
REMARK    3  A    between atoms: C4_5  and  O2_6 
REMARK    4  A    between atoms: C5_7  and  C6_8 
REMARK    5  A    between atoms: N2_18  and  C15_19 
REMARK    6  A    between atoms: C15_19  and  C16_20 
ROOT
HETATM    1  C4  UNL     1      18.215   1.649  50.643  1.00  0.00     0.190 C 
HETATM    2  C5  UNL     1      18.190   2.954  51.303  1.00  0.00     0.006 C 
HETATM    3  C7  UNL     1      19.305   3.104  52.042  1.00  0.00     0.028 C 
HETATM    4  C8  UNL     1      20.169   1.909  51.938  1.00  0.00     0.132 C 
HETATM    5  C9  UNL     1      20.431   1.244  53.255  1.00  0.00     0.047 C 
HETATM    6  C10 UNL     1      20.526  -0.080  52.960  1.00  0.00     0.057 C 
HETATM    7  C11 UNL     1      21.397  -0.578  54.019  1.00  0.00     0.040 C 
HETATM    8  C12 UNL     1      22.704  -0.549  54.082  1.00  0.00    -0.028 C 
HETATM    9  C13 UNL     1      23.418  -1.105  55.246  1.00  0.00     0.060 C 
HETATM   10  C14 UNL     1      24.870  -0.999  54.937  1.00  0.00     0.128 C 
HETATM   11  N2  UNL     1      25.018  -0.635  53.543  1.00  0.00    -0.376 N 
HETATM   12  C22 UNL     1      23.781  -0.089  53.233  1.00  0.00     0.035 C 
HETATM   13  C23 UNL     1      23.560   0.802  52.227  1.00  0.00     0.032 C 
HETATM   14  C24 UNL     1      22.505   1.594  51.572  1.00  0.00     0.157 C 
HETATM   15  N3  UNL     1      21.389   2.116  51.277  1.00  0.00    -0.293 NA
HETATM   16  N4  UNL     1      19.768  -0.256  51.781  1.00  0.00    -0.251 NA
HETATM   17  C25 UNL     1      19.250   0.881  51.375  1.00  0.00     0.097 C 
ENDROOT
BRANCH  11  18
HETATM   18  C15 UNL     1      26.144  -0.786  52.651  1.00  0.00     0.161 C 
BRANCH  18  19
HETATM   19  C16 UNL     1      27.180   0.194  53.095  1.00  0.00    -0.040 A 
HETATM   20  C17 UNL     1      27.143   1.563  52.975  1.00  0.00     0.009 A 
HETATM   21  C18 UNL     1      28.200   2.321  53.447  1.00  0.00     0.001 A 
HETATM   22  C19 UNL     1      29.316   1.772  54.045  1.00  0.00     0.000 A 
HETATM   23  C20 UNL     1      29.370   0.406  54.173  1.00  0.00     0.001 A 
HETATM   24  C21 UNL     1      28.304  -0.362  53.697  1.00  0.00     0.009 A 
ENDBRANCH  18  19
ENDBRANCH  11  18
BRANCH   1  25
HETATM   25  C3  UNL     1      16.895   0.989  50.653  1.00  0.00     0.171 C 
HETATM   26  O1  UNL     1      16.181   0.919  49.672  1.00  0.00    -0.294 OA
BRANCH  25  27
HETATM   27  C2  UNL     1      16.262   0.335  51.822  1.00  0.00     0.078 C 
HETATM   28  C1  UNL     1      14.978   1.034  52.128  1.00  0.00     0.013 C 
ENDBRANCH  25  27
ENDBRANCH   1  25
BRANCH   1  29
HETATM   29  O2  UNL     1      18.660   1.692  49.328  1.00  0.00    -0.372 OA
HETATM   30  H6  UNL     1      19.596   2.004  49.287  1.00  0.00     0.212 HD
ENDBRANCH   1  29
BRANCH   2  31
HETATM   31  C6  UNL     1      17.138   3.981  51.209  1.00  0.00     0.117 C 
HETATM   32  N1  UNL     1      16.510   4.317  52.282  1.00  0.00    -0.312 NA
HETATM   33  H8  UNL     1      15.762   5.039  52.244  1.00  0.00     0.186 HD
ENDBRANCH   2  31
TORSDOF 6
ENDMDL
MODEL 3
REMARK VINA RESULT:      -8.3      4.403      7.029
REMARK  6 active torsions:
REMARK  status: ('A' for Active; 'I' for Inactive)
REMARK    1  A    between atoms: C2_2  and  C3_3 
REMARK    2  A    between atoms: C3_3  and  C4_5 
REMARK    3  A    between atoms: C4_5  and  O2_6 
REMARK    4  A    between atoms: C5_7  and  C6_8 
REMARK    5  A    between atoms: N2_18  and  C15_19 
REMARK    6  A    between atoms: C15_19  and  C16_20 
ROOT
HETATM    1  C4  UNL     1      24.825   2.046  52.993  1.00  0.00     0.190 C 
HETATM    2  C5  UNL     1      25.271   2.216  51.610  1.00  0.00     0.006 C 
HETATM    3  C7  UNL     1      24.197   2.326  50.804  1.00  0.00     0.028 C 
HETATM    4  C8  UNL     1      22.945   2.237  51.582  1.00  0.00     0.132 C 
HETATM    5  C9  UNL     1      22.058   1.105  51.161  1.00  0.00     0.047 C 
HETATM    6  C10 UNL     1      21.446   0.701  52.306  1.00  0.00     0.057 C 
HETATM    7  C11 UNL     1      20.193   0.140  51.814  1.00  0.00     0.040 C 
HETATM    8  C12 UNL     1      19.086   0.764  51.500  1.00  0.00    -0.028 C 
HETATM    9  C13 UNL     1      17.910   0.020  51.012  1.00  0.00     0.060 C 
HETATM   10  C14 UNL     1      16.817   1.019  50.856  1.00  0.00     0.128 C 
HETATM   11  N2  UNL     1      17.239   2.261  51.470  1.00  0.00    -0.376 N 
HETATM   12  C22 UNL     1      18.620   2.133  51.510  1.00  0.00     0.035 C 
HETATM   13  C23 UNL     1      19.492   3.179  51.555  1.00  0.00     0.032 C 
HETATM   14  C24 UNL     1      20.926   3.509  51.603  1.00  0.00     0.157 C 
HETATM   15  N3  UNL     1      22.190   3.419  51.627  1.00  0.00    -0.293 NA
HETATM   16  N4  UNL     1      22.324   1.069  53.350  1.00  0.00    -0.251 NA
HETATM   17  C25 UNL     1      23.397   1.663  52.880  1.00  0.00     0.097 C 
ENDROOT
BRANCH  11  18
HETATM   18  C15 UNL     1      16.462   3.382  51.946  1.00  0.00     0.161 C 
BRANCH  18  19
HETATM   19  C16 UNL     1      15.773   3.965  50.756  1.00  0.00    -0.040 A 
HETATM   20  C17 UNL     1      16.339   4.330  49.557  1.00  0.00     0.009 A 
HETATM   21  C18 UNL     1      15.543   4.858  48.556  1.00  0.00     0.001 A 
HETATM   22  C19 UNL     1      14.182   5.044  48.692  1.00  0.00     0.000 A 
HETATM   23  C20 UNL     1      13.600   4.685  49.883  1.00  0.00     0.001 A 
HETATM   24  C21 UNL     1      14.402   4.152  50.895  1.00  0.00     0.009 A 
ENDBRANCH  18  19
ENDBRANCH  11  18
BRANCH   1  25
HETATM   25  C3  UNL     1      25.631   1.049  53.725  1.00  0.00     0.171 C 
HETATM   26  O1  UNL     1      26.512   1.353  54.505  1.00  0.00    -0.294 OA
BRANCH  25  27
HETATM   27  C2  UNL     1      25.493  -0.422  53.620  1.00  0.00     0.078 C 
HETATM   28  C1  UNL     1      26.667  -0.963  52.873  1.00  0.00     0.013 C 
ENDBRANCH  25  27
ENDBRANCH   1  25
BRANCH   1  29
HETATM   29  O2  UNL     1      24.826   3.221  53.733  1.00  0.00    -0.372 OA
HETATM   30  H6  UNL     1      25.509   3.184  54.446  1.00  0.00     0.212 HD
ENDBRANCH   1  29
BRANCH   2  31
HETATM   31  C6  UNL     1      26.659   2.267  51.121  1.00  0.00     0.117 C 
HETATM   32  N1  UNL     1      27.549   2.840  51.855  1.00  0.00    -0.312 NA
HETATM   33  H8  UNL     1      28.536   2.890  51.533  1.00  0.00     0.186 HD
ENDBRANCH   2  31
TORSDOF 6
ENDMDL
MODEL 4
REMARK VINA RESULT:      -8.1      1.149      1.372
REMARK  6 active torsions:
REMARK  status: ('A' for Active; 'I' for Inactive)
REMARK    1  A    between atoms: C2_2  and  C3_3 
REMARK    2  A    between atoms: C3_3  and  C4_5 
REMARK    3  A    between atoms: C4_5  and  O2_6 
REMARK    4  A    between atoms: C5_7  and  C6_8 
REMARK    5  A    between atoms: N2_18  and  C15_19 
REMARK    6  A    between atoms: C15_19  and  C16_20 
ROOT
HETATM    1  C4  UNL     1      27.145   8.823  49.585  1.00  0.00     0.190 C 
HETATM    2  C5  UNL     1      26.230   9.783  48.969  1.00  0.00     0.006 C 
HETATM    3  C7  UNL     1      24.986   9.267  48.951  1.00  0.00     0.028 C 
HETATM    4  C8  UNL     1      24.967   7.918  49.552  1.00  0.00     0.132 C 
HETATM    5  C9  UNL     1      24.485   6.852  48.616  1.00  0.00     0.047 C 
HETATM    6  C10 UNL     1      25.189   5.742  48.965  1.00  0.00     0.057 C 
HETATM    7  C11 UNL     1      24.293   4.662  48.570  1.00  0.00     0.040 C 
HETATM    8  C12 UNL     1      23.276   4.163  49.227  1.00  0.00    -0.028 C 
HETATM    9  C13 UNL     1      22.476   3.062  48.661  1.00  0.00     0.060 C 
HETATM   10  C14 UNL     1      21.486   2.683  49.706  1.00  0.00     0.128 C 
HETATM   11  N2  UNL     1      21.844   3.348  50.941  1.00  0.00    -0.376 N 
HETATM   12  C22 UNL     1      22.645   4.395  50.507  1.00  0.00     0.035 C 
HETATM   13  C23 UNL     1      22.844   5.552  51.197  1.00  0.00     0.032 C 
HETATM   14  C24 UNL     1      23.549   6.844  51.142  1.00  0.00     0.157 C 
HETATM   15  N3  UNL     1      24.264   7.819  50.763  1.00  0.00    -0.293 NA
HETATM   16  N4  UNL     1      26.382   6.224  49.547  1.00  0.00    -0.251 NA
HETATM   17  C25 UNL     1      26.407   7.538  49.563  1.00  0.00     0.097 C 
ENDROOT
BRANCH  11  18
HETATM   18  C15 UNL     1      21.490   3.040  52.307  1.00  0.00     0.161 C 
BRANCH  18  19
HETATM   19  C16 UNL     1      22.317   1.864  52.712  1.00  0.00    -0.040 A 
HETATM   20  C17 UNL     1      23.689   1.781  52.756  1.00  0.00     0.009 A 
HETATM   21  C18 UNL     1      24.290   0.602  53.159  1.00  0.00     0.001 A 
HETATM   22  C19 UNL     1      23.580  -0.522  53.528  1.00  0.00     0.000 A 
HETATM   23  C20 UNL     1      22.209  -0.457  53.489  1.00  0.00     0.001 A 
HETATM   24  C21 UNL     1      21.598   0.732  53.082  1.00  0.00     0.009 A 
ENDBRANCH  18  19
ENDBRANCH  11  18
BRANCH   1  25
HETATM   25  C3  UNL     1      28.441   8.753  48.883  1.00  0.00     0.171 C 
HETATM   26  O1  UNL     1      29.468   9.221  49.338  1.00  0.00    -0.294 OA
BRANCH  25  27
HETATM   27  C2  UNL     1      28.679   8.125  47.562  1.00  0.00     0.078 C 
HETATM   28  C1  UNL     1      29.673   7.022  47.726  1.00  0.00     0.013 C 
ENDBRANCH  25  27
ENDBRANCH   1  25
BRANCH   1  29
HETATM   29  O2  UNL     1      27.400   9.070  50.928  1.00  0.00    -0.372 OA
HETATM   30  H6  UNL     1      26.734   8.616  51.498  1.00  0.00     0.212 HD
ENDBRANCH   1  29
BRANCH   2  31
HETATM   31  C6  UNL     1      26.561  11.116  48.437  1.00  0.00     0.117 C 
HETATM   32  N1  UNL     1      27.534  11.767  48.973  1.00  0.00    -0.312 NA
HETATM   33  H8  UNL     1      27.789  12.711  48.617  1.00  0.00     0.186 HD
ENDBRANCH   2  31
TORSDOF 6
ENDMDL
MODEL 5
REMARK VINA RESULT:      -7.9      4.501      7.867
REMARK  6 active torsions:
REMARK  status: ('A' for Active; 'I' for Inactive)
REMARK    1  A    between atoms: C2_2  and  C3_3 
REMARK    2  A    between atoms: C3_3  and  C4_5 
REMARK    3  A    between atoms: C4_5  and  O2_6 
REMARK    4  A    between atoms: C5_7  and  C6_8 
REMARK    5  A    between atoms: N2_18  and  C15_19 
REMARK    6  A    between atoms: C15_19  and  C16_20 
ROOT
HETATM    1  C4  UNL     1      18.508   2.671  51.099  1.00  0.00     0.190 C 
HETATM    2  C5  UNL     1      18.413   1.677  50.029  1.00  0.00     0.006 C 
HETATM    3  C7  UNL     1      19.619   1.110  49.836  1.00  0.00     0.028 C 
HETATM    4  C8  UNL     1      20.621   1.679  50.760  1.00  0.00     0.132 C 
HETATM    5  C9  UNL     1      21.780   2.325  50.062  1.00  0.00     0.047 C 
HETATM    6  C10 UNL     1      22.138   3.358  50.871  1.00  0.00     0.057 C 
HETATM    7  C11 UNL     1      23.557   3.516  50.573  1.00  0.00     0.040 C 
HETATM    8  C12 UNL     1      24.572   2.848  51.059  1.00  0.00    -0.028 C 
HETATM    9  C13 UNL     1      25.950   3.151  50.632  1.00  0.00     0.060 C 
HETATM   10  C14 UNL     1      26.843   2.286  51.452  1.00  0.00     0.128 C 
HETATM   11  N2  UNL     1      26.055   1.680  52.505  1.00  0.00    -0.376 N 
HETATM   12  C22 UNL     1      24.758   1.784  52.020  1.00  0.00     0.035 C 
HETATM   13  C23 UNL     1      23.728   0.975  52.392  1.00  0.00     0.032 C 
HETATM   14  C24 UNL     1      22.295   0.723  52.166  1.00  0.00     0.157 C 
HETATM   15  N3  UNL     1      21.107   0.788  51.729  1.00  0.00    -0.293 NA
HETATM   16  N4  UNL     1      20.967   3.698  51.584  1.00  0.00    -0.251 NA
HETATM   17  C25 UNL     1      19.961   2.924  51.243  1.00  0.00     0.097 C 
ENDROOT
BRANCH  11  18
HETATM   18  C15 UNL     1      26.462   1.104  53.766  1.00  0.00     0.161 C 
BRANCH  18  19
HETATM   19  C16 UNL     1      27.229  -0.136  53.444  1.00  0.00    -0.040 A 
HETATM   20  C17 UNL     1      26.761  -1.276  52.834  1.00  0.00     0.009 A 
HETATM   21  C18 UNL     1      27.621  -2.337  52.613  1.00  0.00     0.001 A 
HETATM   22  C19 UNL     1      28.951  -2.321  52.977  1.00  0.00     0.000 A 
HETATM   23  C20 UNL     1      29.436  -1.191  53.589  1.00  0.00     0.001 A 
HETATM   24  C21 UNL     1      28.570  -0.117  53.814  1.00  0.00     0.009 A 
ENDBRANCH  18  19
ENDBRANCH  11  18
BRANCH   1  25
HETATM   25  C3  UNL     1      17.738   3.894  50.799  1.00  0.00     0.171 C 
HETATM   26  O1  UNL     1      18.014   4.641  49.881  1.00  0.00    -0.294 OA
BRANCH  25  27
HETATM   27  C2  UNL     1      16.555   4.379  51.547  1.00  0.00     0.078 C 
HETATM   28  C1  UNL     1      15.335   4.154  50.716  1.00  0.00     0.013 C 
ENDBRANCH  25  27
ENDBRANCH   1  25
BRANCH   1  29
HETATM   29  O2  UNL     1      18.098   2.202  52.340  1.00  0.00    -0.372 OA
HETATM   30  H6  UNL     1      17.270   2.657  52.628  1.00  0.00     0.212 HD
ENDBRANCH   1  29
BRANCH   2  31
HETATM   31  C6  UNL     1      17.214   1.313  49.254  1.00  0.00     0.117 C 
HETATM   32  N1  UNL     1      16.889   0.069  49.173  1.00  0.00    -0.312 NA
HETATM   33  H8  UNL     1      16.048  -0.215  48.631  1.00  0.00     0.186 HD
ENDBRANCH   2  31
TORSDOF 6
ENDMDL
MODEL 6
REMARK VINA RESULT:      -7.4      6.034      9.375
REMARK  6 active torsions:
REMARK  status: ('A' for Active; 'I' for Inactive)
REMARK    1  A    between atoms: C2_2  and  C3_3 
REMARK    2  A    between atoms: C3_3  and  C4_5 
REMARK    3  A    between atoms: C4_5  and  O2_6 
REMARK    4  A    between atoms: C5_7  and  C6_8 
REMARK    5  A    between atoms: N2_18  and  C15_19 
REMARK    6  A    between atoms: C15_19  and  C16_20 
ROOT
HETATM    1  C4  UNL     1      32.888   5.387  48.273  1.00  0.00     0.190 C 
HETATM    2  C5  UNL     1      34.001   6.276  48.608  1.00  0.00     0.006 C 
HETATM    3  C7  UNL     1      33.568   7.551  48.616  1.00  0.00     0.028 C 
HETATM    4  C8  UNL     1      32.130   7.620  48.286  1.00  0.00     0.132 C 
HETATM    5  C9  UNL     1      31.833   8.442  47.069  1.00  0.00     0.047 C 
HETATM    6  C10 UNL     1      30.758   7.837  46.497  1.00  0.00     0.057 C 
HETATM    7  C11 UNL     1      30.113   8.939  45.793  1.00  0.00     0.040 C 
HETATM    8  C12 UNL     1      29.291   9.841  46.268  1.00  0.00    -0.028 C 
HETATM    9  C13 UNL     1      28.735  10.892  45.396  1.00  0.00     0.060 C 
HETATM   10  C14 UNL     1      27.774  11.665  46.231  1.00  0.00     0.128 C 
HETATM   11  N2  UNL     1      27.567  10.951  47.473  1.00  0.00    -0.376 N 
HETATM   12  C22 UNL     1      28.685  10.131  47.548  1.00  0.00     0.035 C 
HETATM   13  C23 UNL     1      29.195   9.625  48.706  1.00  0.00     0.032 C 
HETATM   14  C24 UNL     1      30.275   8.779  49.240  1.00  0.00     0.157 C 
HETATM   15  N3  UNL     1      31.300   8.040  49.337  1.00  0.00    -0.293 NA
HETATM   16  N4  UNL     1      30.822   6.489  46.914  1.00  0.00    -0.251 NA
HETATM   17  C25 UNL     1      31.859   6.281  47.693  1.00  0.00     0.097 C 
ENDROOT
BRANCH  11  18
HETATM   18  C15 UNL     1      26.487  11.028  48.429  1.00  0.00     0.161 C 
BRANCH  18  19
HETATM   19  C16 UNL     1      25.807   9.698  48.419  1.00  0.00    -0.040 A 
HETATM   20  C17 UNL     1      25.599   8.858  49.487  1.00  0.00     0.009 A 
HETATM   21  C18 UNL     1      24.945   7.654  49.293  1.00  0.00     0.001 A 
HETATM   22  C19 UNL     1      24.478   7.236  48.064  1.00  0.00     0.000 A 
HETATM   23  C20 UNL     1      24.678   8.063  46.985  1.00  0.00     0.001 A 
HETATM   24  C21 UNL     1      25.339   9.279  47.178  1.00  0.00     0.009 A 
ENDBRANCH  18  19
ENDBRANCH  11  18
BRANCH   1  25
HETATM   25  C3  UNL     1      33.292   4.303  47.356  1.00  0.00     0.171 C 
HETATM   26  O1  UNL     1      33.533   4.487  46.179  1.00  0.00    -0.294 OA
BRANCH  25  27
HETATM   27  C2  UNL     1      33.457   2.876  47.719  1.00  0.00     0.078 C 
HETATM   28  C1  UNL     1      32.542   2.056  46.870  1.00  0.00     0.013 C 
ENDBRANCH  25  27
ENDBRANCH   1  25
BRANCH   1  29
HETATM   29  O2  UNL     1      32.281   4.806  49.379  1.00  0.00    -0.372 OA
HETATM   30  H6  UNL     1      31.594   4.154  49.097  1.00  0.00     0.212 HD
ENDBRANCH   1  29
BRANCH   2  31
HETATM   31  C6  UNL     1      35.393   5.892  48.899  1.00  0.00     0.117 C 
HETATM   32  N1  UNL     1      35.613   5.065  49.862  1.00  0.00    -0.312 NA
HETATM   33  H8  UNL     1      36.587   4.778  50.090  1.00  0.00     0.186 HD
ENDBRANCH   2  31
TORSDOF 6
ENDMDL
MODEL 7
REMARK VINA RESULT:      -7.3      3.130      5.526
REMARK  6 active torsions:
REMARK  status: ('A' for Active; 'I' for Inactive)
REMARK    1  A    between atoms: C2_2  and  C3_3 
REMARK    2  A    between atoms: C3_3  and  C4_5 
REMARK    3  A    between atoms: C4_5  and  O2_6 
REMARK    4  A    between atoms: C5_7  and  C6_8 
REMARK    5  A    between atoms: N2_18  and  C15_19 
REMARK    6  A    between atoms: C15_19  and  C16_20 
ROOT
HETATM    1  C4  UNL     1      29.165  10.762  46.963  1.00  0.00     0.190 C 
HETATM    2  C5  UNL     1      30.159  10.784  48.036  1.00  0.00     0.006 C 
HETATM    3  C7  UNL     1      29.829   9.872  48.970  1.00  0.00     0.028 C 
HETATM    4  C8  UNL     1      28.586   9.166  48.600  1.00  0.00     0.132 C 
HETATM    5  C9  UNL     1      27.488   9.318  49.609  1.00  0.00     0.047 C 
HETATM    6  C10 UNL     1      26.343   9.321  48.876  1.00  0.00     0.057 C 
HETATM    7  C11 UNL     1      25.361   8.804  49.822  1.00  0.00     0.040 C 
HETATM    8  C12 UNL     1      25.102   7.558  50.131  1.00  0.00    -0.028 C 
HETATM    9  C13 UNL     1      24.063   7.225  51.123  1.00  0.00     0.060 C 
HETATM   10  C14 UNL     1      23.968   5.739  51.147  1.00  0.00     0.128 C 
HETATM   11  N2  UNL     1      24.728   5.212  50.033  1.00  0.00    -0.376 N 
HETATM   12  C22 UNL     1      25.585   6.258  49.720  1.00  0.00     0.035 C 
HETATM   13  C23 UNL     1      26.780   6.113  49.085  1.00  0.00     0.032 C 
HETATM   14  C24 UNL     1      27.939   6.869  48.581  1.00  0.00     0.157 C 
HETATM   15  N3  UNL     1      28.745   7.805  48.296  1.00  0.00    -0.293 NA
HETATM   16  N4  UNL     1      26.720   9.784  47.596  1.00  0.00    -0.251 NA
HETATM   17  C25 UNL     1      28.007  10.041  47.543  1.00  0.00     0.097 C 
ENDROOT
BRANCH  11  18
HETATM   18  C15 UNL     1      24.652   3.931  49.371  1.00  0.00     0.161 C 
BRANCH  18  19
HETATM   19  C16 UNL     1      24.965   2.894  50.399  1.00  0.00    -0.040 A 
HETATM   20  C17 UNL     1      24.075   2.112  51.096  1.00  0.00     0.009 A 
HETATM   21  C18 UNL     1      24.546   1.195  52.020  1.00  0.00     0.001 A 
HETATM   22  C19 UNL     1      25.887   1.015  52.289  1.00  0.00     0.000 A 
HETATM   23  C20 UNL     1      26.791   1.788  51.603  1.00  0.00     0.001 A 
HETATM   24  C21 UNL     1      26.318   2.715  50.670  1.00  0.00     0.009 A 
ENDBRANCH  18  19
ENDBRANCH  11  18
BRANCH   1  25
HETATM   25  C3  UNL     1      28.820  12.117  46.490  1.00  0.00     0.171 C 
HETATM   26  O1  UNL     1      29.348  12.636  45.525  1.00  0.00    -0.294 OA
BRANCH  25  27
HETATM   27  C2  UNL     1      27.814  13.018  47.098  1.00  0.00     0.078 C 
HETATM   28  C1  UNL     1      28.525  14.105  47.835  1.00  0.00     0.013 C 
ENDBRANCH  25  27
ENDBRANCH   1  25
BRANCH   1  29
HETATM   29  O2  UNL     1      29.544  10.008  45.860  1.00  0.00    -0.372 OA
HETATM   30  H6  UNL     1      30.518  10.074  45.710  1.00  0.00     0.212 HD
ENDBRANCH   1  29
BRANCH   2  31
HETATM   31  C6  UNL     1      31.351  11.644  48.130  1.00  0.00     0.117 C 
HETATM   32  N1  UNL     1      32.041  11.857  47.063  1.00  0.00    -0.312 NA
HETATM   33  H8  UNL     1      32.887  12.459  47.101  1.00  0.00     0.186 HD
ENDBRANCH   2  31
TORSDOF 6
ENDMDL
MODEL 8
REMARK VINA RESULT:      -7.3      6.132     10.494
REMARK  6 active torsions:
REMARK  status: ('A' for Active; 'I' for Inactive)
REMARK    1  A    between atoms: C2_2  and  C3_3 
REMARK    2  A    between atoms: C3_3  and  C4_5 
REMARK    3  A    between atoms: C4_5  and  O2_6 
REMARK    4  A    between atoms: C5_7  and  C6_8 
REMARK    5  A    between atoms: N2_18  and  C15_19 
REMARK    6  A    between atoms: C15_19  and  C16_20 
ROOT
HETATM    1  C4  UNL     1      14.818  -0.016  52.453  1.00  0.00     0.190 C 
HETATM    2  C5  UNL     1      14.925  -1.442  52.144  1.00  0.00     0.006 C 
HETATM    3  C7  UNL     1      16.206  -1.744  51.859  1.00  0.00     0.028 C 
HETATM    4  C8  UNL     1      17.062  -0.544  51.953  1.00  0.00     0.132 C 
HETATM    5  C9  UNL     1      17.767  -0.209  50.674  1.00  0.00     0.047 C 
HETATM    6  C10 UNL     1      17.843   1.149  50.666  1.00  0.00     0.057 C 
HETATM    7  C11 UNL     1      19.032   1.394  49.858  1.00  0.00     0.040 C 
HETATM    8  C12 UNL     1      20.288   1.375  50.227  1.00  0.00    -0.028 C 
HETATM    9  C13 UNL     1      21.365   1.649  49.259  1.00  0.00     0.060 C 
HETATM   10  C14 UNL     1      22.636   1.648  50.034  1.00  0.00     0.128 C 
HETATM   11  N2  UNL     1      22.313   1.633  51.446  1.00  0.00    -0.376 N 
HETATM   12  C22 UNL     1      21.011   1.154  51.460  1.00  0.00     0.035 C 
HETATM   13  C23 UNL     1      20.430   0.526  52.520  1.00  0.00     0.032 C 
HETATM   14  C24 UNL     1      19.177  -0.105  52.967  1.00  0.00     0.157 C 
HETATM   15  N3  UNL     1      17.996  -0.562  53.000  1.00  0.00    -0.293 NA
HETATM   16  N4  UNL     1      16.763   1.588  51.464  1.00  0.00    -0.251 NA
HETATM   17  C25 UNL     1      16.076   0.572  51.934  1.00  0.00     0.097 C 
ENDROOT
BRANCH  11  18
HETATM   18  C15 UNL     1      23.106   2.014  52.592  1.00  0.00     0.161 C 
BRANCH  18  19
HETATM   19  C16 UNL     1      24.400   1.277  52.485  1.00  0.00    -0.040 A 
HETATM   20  C17 UNL     1      25.553   1.696  51.865  1.00  0.00     0.009 A 
HETATM   21  C18 UNL     1      26.668   0.875  51.864  1.00  0.00     0.001 A 
HETATM   22  C19 UNL     1      26.692  -0.367  52.463  1.00  0.00     0.000 A 
HETATM   23  C20 UNL     1      25.548  -0.803  53.087  1.00  0.00     0.001 A 
HETATM   24  C21 UNL     1      24.421   0.024  53.088  1.00  0.00     0.009 A 
ENDBRANCH  18  19
ENDBRANCH  11  18
BRANCH   1  25
HETATM   25  C3  UNL     1      13.612   0.597  51.865  1.00  0.00     0.171 C 
HETATM   26  O1  UNL     1      13.537   0.924  50.696  1.00  0.00    -0.294 OA
BRANCH  25  27
HETATM   27  C2  UNL     1      12.353   0.898  52.586  1.00  0.00     0.078 C 
HETATM   28  C1  UNL     1      12.013   2.338  52.382  1.00  0.00     0.013 C 
ENDBRANCH  25  27
ENDBRANCH   1  25
BRANCH   1  29
HETATM   29  O2  UNL     1      14.821   0.266  53.813  1.00  0.00    -0.372 OA
HETATM   30  H6  UNL     1      14.861   1.241  53.967  1.00  0.00     0.212 HD
ENDBRANCH   1  29
BRANCH   2  31
HETATM   31  C6  UNL     1      13.838  -2.436  52.131  1.00  0.00     0.117 C 
HETATM   32  N1  UNL     1      13.314  -2.788  53.254  1.00  0.00    -0.312 NA
HETATM   33  H8  UNL     1      12.545  -3.488  53.274  1.00  0.00     0.186 HD
ENDBRANCH   2  31
TORSDOF 6
ENDMDL
MODEL 9
REMARK VINA RESULT:      -7.2      2.865      4.903
REMARK  6 active torsions:
REMARK  status: ('A' for Active; 'I' for Inactive)
REMARK    1  A    between atoms: C2_2  and  C3_3 
REMARK    2  A    between atoms: C3_3  and  C4_5 
REMARK    3  A    between atoms: C4_5  and  O2_6 
REMARK    4  A    between atoms: C5_7  and  C6_8 
REMARK    5  A    between atoms: N2_18  and  C15_19 
REMARK    6  A    between atoms: C15_19  and  C16_20 
ROOT
HETATM    1  C4  UNL     1      30.491   9.251  48.865  1.00  0.00     0.190 C 
HETATM    2  C5  UNL     1      30.192  10.671  48.670  1.00  0.00     0.006 C 
HETATM    3  C7  UNL     1      28.860  10.861  48.734  1.00  0.00     0.028 C 
HETATM    4  C8  UNL     1      28.158   9.584  48.977  1.00  0.00     0.132 C 
HETATM    5  C9  UNL     1      27.178   9.226  47.901  1.00  0.00     0.047 C 
HETATM    6  C10 UNL     1      27.215   7.868  47.839  1.00  0.00     0.057 C 
HETATM    7  C11 UNL     1      25.882   7.538  47.345  1.00  0.00     0.040 C 
HETATM    8  C12 UNL     1      24.766   7.429  48.020  1.00  0.00    -0.028 C 
HETATM    9  C13 UNL     1      23.502   7.087  47.342  1.00  0.00     0.060 C 
HETATM   10  C14 UNL     1      22.477   6.946  48.412  1.00  0.00     0.128 C 
HETATM   11  N2  UNL     1      23.148   6.947  49.695  1.00  0.00    -0.376 N 
HETATM   12  C22 UNL     1      24.367   7.544  49.406  1.00  0.00     0.035 C 
HETATM   13  C23 UNL     1      25.147   8.188  50.318  1.00  0.00     0.032 C 
HETATM   14  C24 UNL     1      26.417   8.919  50.466  1.00  0.00     0.157 C 
HETATM   15  N3  UNL     1      27.526   9.483  50.225  1.00  0.00    -0.293 NA
HETATM   16  N4  UNL     1      28.495   7.505  48.313  1.00  0.00    -0.251 NA
HETATM   17  C25 UNL     1      29.194   8.565  48.649  1.00  0.00     0.097 C 
ENDROOT
BRANCH  11  18
HETATM   18  C15 UNL     1      22.710   6.458  50.981  1.00  0.00     0.161 C 
BRANCH  18  19
HETATM   19  C16 UNL     1      23.309   5.101  51.154  1.00  0.00    -0.040 A 
HETATM   20  C17 UNL     1      23.678   4.217  50.167  1.00  0.00     0.009 A 
HETATM   21  C18 UNL     1      24.223   2.993  50.513  1.00  0.00     0.001 A 
HETATM   22  C19 UNL     1      24.424   2.597  51.819  1.00  0.00     0.000 A 
HETATM   23  C20 UNL     1      24.061   3.466  52.818  1.00  0.00     0.001 A 
HETATM   24  C21 UNL     1      23.510   4.703  52.472  1.00  0.00     0.009 A 
ENDBRANCH  18  19
ENDBRANCH  11  18
BRANCH   1  25
HETATM   25  C3  UNL     1      31.552   8.772  47.959  1.00  0.00     0.171 C 
HETATM   26  O1  UNL     1      32.653   8.432  48.348  1.00  0.00    -0.294 OA
BRANCH  25  27
HETATM   27  C2  UNL     1      31.441   8.637  46.487  1.00  0.00     0.078 C 
HETATM   28  C1  UNL     1      31.519   7.189  46.129  1.00  0.00     0.013 C 
ENDBRANCH  25  27
ENDBRANCH   1  25
BRANCH   1  29
HETATM   29  O2  UNL     1      30.860   8.928  50.163  1.00  0.00    -0.372 OA
HETATM   30  H6  UNL     1      31.595   9.511  50.473  1.00  0.00     0.212 HD
ENDBRANCH   1  29
BRANCH   2  31
HETATM   31  C6  UNL     1      31.155  11.761  48.437  1.00  0.00     0.117 C 
HETATM   32  N1  UNL     1      30.849  12.946  48.836  1.00  0.00    -0.312 NA
HETATM   33  H8  UNL     1      31.510  13.734  48.684  1.00  0.00     0.186 HD
ENDBRANCH   2  31
TORSDOF 6
ENDMDL
