MODEL 1
REMARK VINA RESULT:      -6.9      0.000      0.000
REMARK  6 active torsions:
REMARK  status: ('A' for Active; 'I' for Inactive)
REMARK    1  A    between atoms: S1_2  and  C2_3 
REMARK    2  A    between atoms: C2_3  and  C3_4 
REMARK    3  A    between atoms: C3_4  and  C4_5 
REMARK    4  A    between atoms: C4_5  and  C5_6 
REMARK    5  A    between atoms: C8_10  and  N2_11 
REMARK    6  A    between atoms: C13_16  and  C14_17 
ROOT
HETATM    1  N2  UNL     1      25.306   3.235  52.521  1.00  0.00    -0.194 N 
HETATM    2  C9  UNL     1      24.501   3.278  51.419  1.00  0.00     0.028 A 
HETATM    3  C10 UNL     1      23.834   2.745  50.351  1.00  0.00     0.084 A 
HETATM    4  C11 UNL     1      23.046   3.352  49.416  1.00  0.00     0.051 A 
HETATM    5  C12 UNL     1      22.408   4.380  48.792  1.00  0.00    -0.014 A 
HETATM    6  C13 UNL     1      23.060   4.951  49.849  1.00  0.00     0.058 A 
HETATM    7  C14 UNL     1      23.803   4.098  50.661  1.00  0.00     0.047 A 
HETATM    8  C15 UNL     1      23.614   5.139  51.718  1.00  0.00    -0.009 C 
HETATM    9  C16 UNL     1      22.395   4.905  52.277  1.00  0.00    -0.006 C 
HETATM   10  C17 UNL     1      21.338   3.855  52.022  1.00  0.00    -0.020 C 
HETATM   11  C18 UNL     1      21.652   2.937  51.119  1.00  0.00     0.035 C 
HETATM   12  C19 UNL     1      21.645   1.753  50.173  1.00  0.00     0.126 C 
HETATM   13  N3  UNL     1      22.269   2.217  48.876  1.00  0.00    -0.404 N 
HETATM   14  C20 UNL     1      22.453   1.938  47.472  1.00  0.00     0.144 C 
HETATM   15  H10 UNL     1      25.477   4.147  52.976  1.00  0.00     0.184 HD
ENDROOT
BRANCH   1  16
HETATM   16  C8  UNL     1      25.609   1.858  52.606  1.00  0.00     0.726 A 
HETATM   17  N1  UNL     1      26.622   1.206  51.986  1.00  0.00    -0.075 NA
HETATM   18  C7  UNL     1      26.753  -0.132  52.180  1.00  0.00     0.138 A 
HETATM   19  C6  UNL     1      25.858  -0.826  53.006  1.00  0.00     0.048 A 
HETATM   20  C5  UNL     1      24.838  -0.122  53.621  1.00  0.00     0.058 A 
HETATM   21  N4  UNL     1      24.724   1.225  53.412  1.00  0.00    -0.067 NA
BRANCH  20  22
HETATM   22  C4  UNL     1      23.948  -0.954  54.459  1.00  0.00     0.087 C 
BRANCH  22  23
HETATM   23  C3  UNL     1      22.556  -0.769  53.952  1.00  0.00    -0.014 C 
BRANCH  23  24
HETATM   24  C2  UNL     1      21.319  -0.828  53.530  1.00  0.00     0.041 C 
BRANCH  24  25
HETATM   25  S1  UNL     1      19.795  -0.011  52.992  1.00  0.00    -0.146 SA
HETATM   26  C1  UNL     1      18.381  -1.136  53.238  1.00  0.00     0.095 C 
ENDBRANCH  24  25
ENDBRANCH  23  24
ENDBRANCH  22  23
ENDBRANCH  20  22
ENDBRANCH   1  16
TORSDOF 6
ENDMDL
MODEL 2
REMARK VINA RESULT:      -6.7      1.617      2.636
REMARK  6 active torsions:
REMARK  status: ('A' for Active; 'I' for Inactive)
REMARK    1  A    between atoms: S1_2  and  C2_3 
REMARK    2  A    between atoms: C2_3  and  C3_4 
REMARK    3  A    between atoms: C3_4  and  C4_5 
REMARK    4  A    between atoms: C4_5  and  C5_6 
REMARK    5  A    between atoms: C8_10  and  N2_11 
REMARK    6  A    between atoms: C13_16  and  C14_17 
ROOT
HETATM    1  N2  UNL     1      26.554   2.793  50.308  1.00  0.00    -0.194 N 
HETATM    2  C9  UNL     1      25.245   3.149  50.469  1.00  0.00     0.028 A 
HETATM    3  C10 UNL     1      24.061   3.238  51.145  1.00  0.00     0.084 A 
HETATM    4  C11 UNL     1      22.871   3.788  50.762  1.00  0.00     0.051 A 
HETATM    5  C12 UNL     1      21.990   4.422  49.940  1.00  0.00    -0.014 A 
HETATM    6  C13 UNL     1      23.158   4.352  49.232  1.00  0.00     0.058 A 
HETATM    7  C14 UNL     1      24.235   3.736  49.860  1.00  0.00     0.047 A 
HETATM    8  C15 UNL     1      25.083   4.548  48.934  1.00  0.00    -0.009 C 
HETATM    9  C16 UNL     1      25.216   5.775  49.508  1.00  0.00    -0.006 C 
HETATM   10  C17 UNL     1      24.703   6.357  50.806  1.00  0.00    -0.020 C 
HETATM   11  C18 UNL     1      24.032   5.518  51.582  1.00  0.00     0.035 C 
HETATM   12  C19 UNL     1      23.234   4.882  52.702  1.00  0.00     0.126 C 
HETATM   13  N3  UNL     1      22.190   3.997  52.057  1.00  0.00    -0.404 N 
HETATM   14  C20 UNL     1      20.956   3.274  52.246  1.00  0.00     0.144 C 
HETATM   15  H10 UNL     1      26.967   3.040  49.394  1.00  0.00     0.184 HD
ENDROOT
BRANCH   1  16
HETATM   16  C8  UNL     1      26.843   2.181  51.548  1.00  0.00     0.726 A 
HETATM   17  N1  UNL     1      27.803   2.544  52.433  1.00  0.00    -0.075 NA
HETATM   18  C7  UNL     1      27.941   1.826  53.578  1.00  0.00     0.138 A 
HETATM   19  C6  UNL     1      27.105   0.731  53.841  1.00  0.00     0.048 A 
HETATM   20  C5  UNL     1      26.136   0.396  52.911  1.00  0.00     0.058 A 
HETATM   21  N4  UNL     1      26.015   1.132  51.765  1.00  0.00    -0.067 NA
BRANCH  20  22
HETATM   22  C4  UNL     1      25.320  -0.780  53.286  1.00  0.00     0.087 C 
BRANCH  22  23
HETATM   23  C3  UNL     1      23.906  -0.318  53.414  1.00  0.00    -0.014 C 
BRANCH  23  24
HETATM   24  C2  UNL     1      22.747   0.227  53.679  1.00  0.00     0.041 C 
BRANCH  24  25
HETATM   25  S1  UNL     1      21.010   0.082  54.171  1.00  0.00    -0.146 SA
HETATM   26  C1  UNL     1      20.535  -1.677  54.220  1.00  0.00     0.095 C 
ENDBRANCH  24  25
ENDBRANCH  23  24
ENDBRANCH  22  23
ENDBRANCH  20  22
ENDBRANCH   1  16
TORSDOF 6
ENDMDL
MODEL 3
REMARK VINA RESULT:      -6.5      2.212      4.998
REMARK  6 active torsions:
REMARK  status: ('A' for Active; 'I' for Inactive)
REMARK    1  A    between atoms: S1_2  and  C2_3 
REMARK    2  A    between atoms: C2_3  and  C3_4 
REMARK    3  A    between atoms: C3_4  and  C4_5 
REMARK    4  A    between atoms: C4_5  and  C5_6 
REMARK    5  A    between atoms: C8_10  and  N2_11 
REMARK    6  A    between atoms: C13_16  and  C14_17 
ROOT
HETATM    1  N2  UNL     1      23.988  -0.880  53.105  1.00  0.00    -0.194 N 
HETATM    2  C9  UNL     1      24.392   0.275  52.497  1.00  0.00     0.028 A 
HETATM    3  C10 UNL     1      24.229   1.545  52.020  1.00  0.00     0.084 A 
HETATM    4  C11 UNL     1      25.121   2.367  51.392  1.00  0.00     0.051 A 
HETATM    5  C12 UNL     1      26.311   2.745  50.850  1.00  0.00    -0.014 A 
HETATM    6  C13 UNL     1      26.514   1.475  51.316  1.00  0.00     0.058 A 
HETATM    7  C14 UNL     1      25.428   0.851  51.925  1.00  0.00     0.047 A 
HETATM    8  C15 UNL     1      26.456   0.020  52.626  1.00  0.00    -0.009 C 
HETATM    9  C16 UNL     1      26.873   0.746  53.699  1.00  0.00    -0.006 C 
HETATM   10  C17 UNL     1      26.477   2.105  54.229  1.00  0.00    -0.020 C 
HETATM   11  C18 UNL     1      25.499   2.712  53.573  1.00  0.00     0.035 C 
HETATM   12  C19 UNL     1      24.449   3.692  53.092  1.00  0.00     0.126 C 
HETATM   13  N3  UNL     1      24.505   3.698  51.580  1.00  0.00    -0.404 N 
HETATM   14  C20 UNL     1      24.132   4.397  50.374  1.00  0.00     0.144 C 
HETATM   15  H10 UNL     1      24.707  -1.618  53.168  1.00  0.00     0.184 HD
ENDROOT
BRANCH   1  16
HETATM   16  C8  UNL     1      22.644  -0.583  53.427  1.00  0.00     0.726 A 
HETATM   17  N1  UNL     1      22.089  -0.553  54.662  1.00  0.00    -0.075 NA
HETATM   18  C7  UNL     1      20.769  -0.255  54.777  1.00  0.00     0.138 A 
HETATM   19  C6  UNL     1      19.994   0.016  53.641  1.00  0.00     0.048 A 
HETATM   20  C5  UNL     1      20.602  -0.024  52.398  1.00  0.00     0.058 A 
HETATM   21  N4  UNL     1      21.932  -0.326  52.304  1.00  0.00    -0.067 NA
BRANCH  20  22
HETATM   22  C4  UNL     1      19.690   0.267  51.269  1.00  0.00     0.087 C 
BRANCH  22  23
HETATM   23  C3  UNL     1      20.491   0.960  50.217  1.00  0.00    -0.014 C 
BRANCH  23  24
HETATM   24  C2  UNL     1      21.070   1.746  49.346  1.00  0.00     0.041 C 
BRANCH  24  25
HETATM   25  S1  UNL     1      22.254   2.011  48.001  1.00  0.00    -0.146 SA
HETATM   26  C1  UNL     1      21.958   3.641  47.240  1.00  0.00     0.095 C 
ENDBRANCH  24  25
ENDBRANCH  23  24
ENDBRANCH  22  23
ENDBRANCH  20  22
ENDBRANCH   1  16
TORSDOF 6
ENDMDL
MODEL 4
REMARK VINA RESULT:      -6.5      4.619      7.356
REMARK  6 active torsions:
REMARK  status: ('A' for Active; 'I' for Inactive)
REMARK    1  A    between atoms: S1_2  and  C2_3 
REMARK    2  A    between atoms: C2_3  and  C3_4 
REMARK    3  A    between atoms: C3_4  and  C4_5 
REMARK    4  A    between atoms: C4_5  and  C5_6 
REMARK    5  A    between atoms: C8_10  and  N2_11 
REMARK    6  A    between atoms: C13_16  and  C14_17 
ROOT
HETATM    1  N2  UNL     1      24.394   6.633  51.862  1.00  0.00    -0.194 N 
HETATM    2  C9  UNL     1      23.471   5.750  51.379  1.00  0.00     0.028 A 
HETATM    3  C10 UNL     1      22.743   5.132  50.401  1.00  0.00     0.084 A 
HETATM    4  C11 UNL     1      21.794   4.154  50.499  1.00  0.00     0.051 A 
HETATM    5  C12 UNL     1      20.980   3.255  51.117  1.00  0.00    -0.014 A 
HETATM    6  C13 UNL     1      21.689   3.850  52.124  1.00  0.00     0.058 A 
HETATM    7  C14 UNL     1      22.607   4.828  51.750  1.00  0.00     0.047 A 
HETATM    8  C15 UNL     1      23.294   4.502  53.038  1.00  0.00    -0.009 C 
HETATM    9  C16 UNL     1      24.076   3.416  52.794  1.00  0.00    -0.006 C 
HETATM   10  C17 UNL     1      24.332   2.599  51.547  1.00  0.00    -0.020 C 
HETATM   11  C18 UNL     1      23.732   3.032  50.448  1.00  0.00     0.035 C 
HETATM   12  C19 UNL     1      23.224   3.208  49.032  1.00  0.00     0.126 C 
HETATM   13  N3  UNL     1      21.767   3.605  49.127  1.00  0.00    -0.404 N 
HETATM   14  C20 UNL     1      20.514   3.729  48.422  1.00  0.00     0.144 C 
HETATM   15  H10 UNL     1      24.503   6.636  52.890  1.00  0.00     0.184 HD
ENDROOT
BRANCH   1  16
HETATM   16  C8  UNL     1      24.865   7.239  50.676  1.00  0.00     0.726 A 
HETATM   17  N1  UNL     1      24.448   8.409  50.137  1.00  0.00    -0.075 NA
HETATM   18  C7  UNL     1      25.014   8.832  48.976  1.00  0.00     0.138 A 
HETATM   19  C6  UNL     1      26.012   8.073  48.348  1.00  0.00     0.048 A 
HETATM   20  C5  UNL     1      26.409   6.884  48.934  1.00  0.00     0.058 A 
HETATM   21  N4  UNL     1      25.826   6.476  50.103  1.00  0.00    -0.067 NA
BRANCH  20  22
HETATM   22  C4  UNL     1      27.458   6.160  48.183  1.00  0.00     0.087 C 
BRANCH  22  23
HETATM   23  C3  UNL     1      28.694   6.997  48.225  1.00  0.00    -0.014 C 
BRANCH  23  24
HETATM   24  C2  UNL     1      29.801   7.649  48.468  1.00  0.00     0.041 C 
BRANCH  24  25
HETATM   25  S1  UNL     1      31.496   7.700  49.105  1.00  0.00    -0.146 SA
HETATM   26  C1  UNL     1      31.954   6.058  49.752  1.00  0.00     0.095 C 
ENDBRANCH  24  25
ENDBRANCH  23  24
ENDBRANCH  22  23
ENDBRANCH  20  22
ENDBRANCH   1  16
TORSDOF 6
ENDMDL
MODEL 5
REMARK VINA RESULT:      -6.5      2.845      5.132
REMARK  6 active torsions:
REMARK  status: ('A' for Active; 'I' for Inactive)
REMARK    1  A    between atoms: S1_2  and  C2_3 
REMARK    2  A    between atoms: C2_3  and  C3_4 
REMARK    3  A    between atoms: C3_4  and  C4_5 
REMARK    4  A    between atoms: C4_5  and  C5_6 
REMARK    5  A    between atoms: C8_10  and  N2_11 
REMARK    6  A    between atoms: C13_16  and  C14_17 
ROOT
HETATM    1  N2  UNL     1      20.527  -0.500  53.537  1.00  0.00    -0.194 N 
HETATM    2  C9  UNL     1      20.663   0.766  53.042  1.00  0.00     0.028 A 
HETATM    3  C10 UNL     1      21.337   1.924  52.775  1.00  0.00     0.084 A 
HETATM    4  C11 UNL     1      20.912   3.062  52.150  1.00  0.00     0.051 A 
HETATM    5  C12 UNL     1      20.040   3.891  51.513  1.00  0.00    -0.014 A 
HETATM    6  C13 UNL     1      19.333   2.748  51.762  1.00  0.00     0.058 A 
HETATM    7  C14 UNL     1      20.009   1.724  52.420  1.00  0.00     0.047 A 
HETATM    8  C15 UNL     1      19.004   0.817  51.784  1.00  0.00    -0.009 C 
HETATM    9  C16 UNL     1      19.457   0.557  50.528  1.00  0.00    -0.006 C 
HETATM   10  C17 UNL     1      20.698   0.991  49.779  1.00  0.00    -0.020 C 
HETATM   11  C18 UNL     1      21.556   1.726  50.472  1.00  0.00     0.035 C 
HETATM   12  C19 UNL     1      22.736   2.563  50.920  1.00  0.00     0.126 C 
HETATM   13  N3  UNL     1      22.186   3.698  51.755  1.00  0.00    -0.404 N 
HETATM   14  C20 UNL     1      22.452   4.993  52.334  1.00  0.00     0.144 C 
HETATM   15  H10 UNL     1      19.591  -0.920  53.419  1.00  0.00     0.184 HD
ENDROOT
BRANCH   1  16
HETATM   16  C8  UNL     1      21.818  -0.749  54.055  1.00  0.00     0.726 A 
HETATM   17  N1  UNL     1      22.127  -1.186  55.300  1.00  0.00    -0.075 NA
HETATM   18  C7  UNL     1      23.434  -1.360  55.625  1.00  0.00     0.138 A 
HETATM   19  C6  UNL     1      24.446  -1.094  54.692  1.00  0.00     0.048 A 
HETATM   20  C5  UNL     1      24.086  -0.651  53.431  1.00  0.00     0.058 A 
HETATM   21  N4  UNL     1      22.764  -0.482  53.124  1.00  0.00    -0.067 NA
BRANCH  20  22
HETATM   22  C4  UNL     1      25.231  -0.392  52.532  1.00  0.00     0.087 C 
BRANCH  22  23
HETATM   23  C3  UNL     1      26.330   0.183  53.363  1.00  0.00    -0.014 C 
BRANCH  23  24
HETATM   24  C2  UNL     1      27.273   0.499  54.212  1.00  0.00     0.041 C 
BRANCH  24  25
HETATM   25  S1  UNL     1      29.024   0.744  54.608  1.00  0.00    -0.146 SA
HETATM   26  C1  UNL     1      30.047  -0.311  53.529  1.00  0.00     0.095 C 
ENDBRANCH  24  25
ENDBRANCH  23  24
ENDBRANCH  22  23
ENDBRANCH  20  22
ENDBRANCH   1  16
TORSDOF 6
ENDMDL
MODEL 6
REMARK VINA RESULT:      -6.4      2.616      4.093
REMARK  6 active torsions:
REMARK  status: ('A' for Active; 'I' for Inactive)
REMARK    1  A    between atoms: S1_2  and  C2_3 
REMARK    2  A    between atoms: C2_3  and  C3_4 
REMARK    3  A    between atoms: C3_4  and  C4_5 
REMARK    4  A    between atoms: C4_5  and  C5_6 
REMARK    5  A    between atoms: C8_10  and  N2_11 
REMARK    6  A    between atoms: C13_16  and  C14_17 
ROOT
HETATM    1  N2  UNL     1      24.421   4.097  52.088  1.00  0.00    -0.194 N 
HETATM    2  C9  UNL     1      23.983   4.422  50.835  1.00  0.00     0.028 A 
HETATM    3  C10 UNL     1      23.232   4.257  49.705  1.00  0.00     0.084 A 
HETATM    4  C11 UNL     1      23.190   5.005  48.563  1.00  0.00     0.051 A 
HETATM    5  C12 UNL     1      23.522   6.016  47.714  1.00  0.00    -0.014 A 
HETATM    6  C13 UNL     1      24.290   6.215  48.828  1.00  0.00     0.058 A 
HETATM    7  C14 UNL     1      24.138   5.298  49.864  1.00  0.00     0.047 A 
HETATM    8  C15 UNL     1      24.647   6.394  50.745  1.00  0.00    -0.009 C 
HETATM    9  C16 UNL     1      23.577   7.181  51.041  1.00  0.00    -0.006 C 
HETATM   10  C17 UNL     1      22.115   7.101  50.663  1.00  0.00    -0.020 C 
HETATM   11  C18 UNL     1      21.766   6.042  49.947  1.00  0.00     0.035 C 
HETATM   12  C19 UNL     1      21.009   5.003  49.145  1.00  0.00     0.126 C 
HETATM   13  N3  UNL     1      21.890   4.613  47.979  1.00  0.00    -0.404 N 
HETATM   14  C20 UNL     1      21.946   3.976  46.685  1.00  0.00     0.144 C 
HETATM   15  H10 UNL     1      25.145   4.723  52.476  1.00  0.00     0.184 HD
ENDROOT
BRANCH   1  16
HETATM   16  C8  UNL     1      23.654   2.945  52.373  1.00  0.00     0.726 A 
HETATM   17  N1  UNL     1      22.303   2.839  52.353  1.00  0.00    -0.075 NA
HETATM   18  C7  UNL     1      21.737   1.645  52.668  1.00  0.00     0.138 A 
HETATM   19  C6  UNL     1      22.533   0.543  53.007  1.00  0.00     0.048 A 
HETATM   20  C5  UNL     1      23.909   0.694  53.014  1.00  0.00     0.058 A 
HETATM   21  N4  UNL     1      24.459   1.905  52.694  1.00  0.00    -0.067 NA
BRANCH  20  22
HETATM   22  C4  UNL     1      24.650  -0.528  53.396  1.00  0.00     0.087 C 
BRANCH  22  23
HETATM   23  C3  UNL     1      26.032  -0.111  53.775  1.00  0.00    -0.014 C 
BRANCH  23  24
HETATM   24  C2  UNL     1      27.155   0.296  54.308  1.00  0.00     0.041 C 
BRANCH  24  25
HETATM   25  S1  UNL     1      28.922   0.669  54.173  1.00  0.00    -0.146 SA
HETATM   26  C1  UNL     1      29.832  -0.841  53.709  1.00  0.00     0.095 C 
ENDBRANCH  24  25
ENDBRANCH  23  24
ENDBRANCH  22  23
ENDBRANCH  20  22
ENDBRANCH   1  16
TORSDOF 6
ENDMDL
MODEL 7
REMARK VINA RESULT:      -6.4      2.624      4.957
REMARK  6 active torsions:
REMARK  status: ('A' for Active; 'I' for Inactive)
REMARK    1  A    between atoms: S1_2  and  C2_3 
REMARK    2  A    between atoms: C2_3  and  C3_4 
REMARK    3  A    between atoms: C3_4  and  C4_5 
REMARK    4  A    between atoms: C4_5  and  C5_6 
REMARK    5  A    between atoms: C8_10  and  N2_11 
REMARK    6  A    between atoms: C13_16  and  C14_17 
ROOT
HETATM    1  N2  UNL     1      22.314   4.037  52.348  1.00  0.00    -0.194 N 
HETATM    2  C9  UNL     1      21.449   3.576  51.397  1.00  0.00     0.028 A 
HETATM    3  C10 UNL     1      21.017   3.356  50.119  1.00  0.00     0.084 A 
HETATM    4  C11 UNL     1      19.880   2.746  49.670  1.00  0.00     0.051 A 
HETATM    5  C12 UNL     1      18.682   2.105  49.760  1.00  0.00    -0.014 A 
HETATM    6  C13 UNL     1      19.081   2.307  51.053  1.00  0.00     0.058 A 
HETATM    7  C14 UNL     1      20.296   2.959  51.238  1.00  0.00     0.047 A 
HETATM    8  C15 UNL     1      20.321   2.273  52.568  1.00  0.00    -0.009 C 
HETATM    9  C16 UNL     1      20.815   1.025  52.350  1.00  0.00    -0.006 C 
HETATM   10  C17 UNL     1      21.303   0.322  51.103  1.00  0.00    -0.020 C 
HETATM   11  C18 UNL     1      21.311   1.056  50.000  1.00  0.00     0.035 C 
HETATM   12  C19 UNL     1      21.454   1.556  48.577  1.00  0.00     0.126 C 
HETATM   13  N3  UNL     1      20.237   2.403  48.278  1.00  0.00    -0.404 N 
HETATM   14  C20 UNL     1      19.434   3.019  47.250  1.00  0.00     0.144 C 
HETATM   15  H10 UNL     1      22.016   3.883  53.325  1.00  0.00     0.184 HD
ENDROOT
BRANCH   1  16
HETATM   16  C8  UNL     1      23.349   4.585  51.557  1.00  0.00     0.726 A 
HETATM   17  N1  UNL     1      23.460   5.867  51.133  1.00  0.00    -0.075 NA
HETATM   18  C7  UNL     1      24.527   6.212  50.367  1.00  0.00     0.138 A 
HETATM   19  C6  UNL     1      25.497   5.260  50.021  1.00  0.00     0.048 A 
HETATM   20  C5  UNL     1      25.345   3.962  50.476  1.00  0.00     0.058 A 
HETATM   21  N4  UNL     1      24.263   3.636  51.247  1.00  0.00    -0.067 NA
BRANCH  20  22
HETATM   22  C4  UNL     1      26.419   3.040  50.044  1.00  0.00     0.087 C 
BRANCH  22  23
HETATM   23  C3  UNL     1      26.729   2.144  51.196  1.00  0.00    -0.014 C 
BRANCH  23  24
HETATM   24  C2  UNL     1      26.838   1.470  52.312  1.00  0.00     0.041 C 
BRANCH  24  25
HETATM   25  S1  UNL     1      27.127  -0.085  53.195  1.00  0.00    -0.146 SA
HETATM   26  C1  UNL     1      28.251   0.210  54.600  1.00  0.00     0.095 C 
ENDBRANCH  24  25
ENDBRANCH  23  24
ENDBRANCH  22  23
ENDBRANCH  20  22
ENDBRANCH   1  16
TORSDOF 6
ENDMDL
MODEL 8
REMARK VINA RESULT:      -6.2      2.325      4.717
REMARK  6 active torsions:
REMARK  status: ('A' for Active; 'I' for Inactive)
REMARK    1  A    between atoms: S1_2  and  C2_3 
REMARK    2  A    between atoms: C2_3  and  C3_4 
REMARK    3  A    between atoms: C3_4  and  C4_5 
REMARK    4  A    between atoms: C4_5  and  C5_6 
REMARK    5  A    between atoms: C8_10  and  N2_11 
REMARK    6  A    between atoms: C13_16  and  C14_17 
ROOT
HETATM    1  N2  UNL     1      24.060  -0.924  53.155  1.00  0.00    -0.194 N 
HETATM    2  C9  UNL     1      24.457   0.228  52.538  1.00  0.00     0.028 A 
HETATM    3  C10 UNL     1      24.287   1.495  52.054  1.00  0.00     0.084 A 
HETATM    4  C11 UNL     1      25.171   2.317  51.417  1.00  0.00     0.051 A 
HETATM    5  C12 UNL     1      26.357   2.695  50.864  1.00  0.00    -0.014 A 
HETATM    6  C13 UNL     1      26.567   1.429  51.336  1.00  0.00     0.058 A 
HETATM    7  C14 UNL     1      25.487   0.804  51.956  1.00  0.00     0.047 A 
HETATM    8  C15 UNL     1      26.522  -0.019  52.654  1.00  0.00    -0.009 C 
HETATM    9  C16 UNL     1      26.944   0.714  53.720  1.00  0.00    -0.006 C 
HETATM   10  C17 UNL     1      26.548   2.075  54.246  1.00  0.00    -0.020 C 
HETATM   11  C18 UNL     1      25.564   2.675  53.592  1.00  0.00     0.035 C 
HETATM   12  C19 UNL     1      24.507   3.649  53.113  1.00  0.00     0.126 C 
HETATM   13  N3  UNL     1      24.553   3.646  51.601  1.00  0.00    -0.404 N 
HETATM   14  C20 UNL     1      24.169   4.337  50.393  1.00  0.00     0.144 C 
HETATM   15  H10 UNL     1      24.783  -1.660  53.218  1.00  0.00     0.184 HD
ENDROOT
BRANCH   1  16
HETATM   16  C8  UNL     1      22.718  -0.630  53.484  1.00  0.00     0.726 A 
HETATM   17  N1  UNL     1      22.161  -0.633  54.720  1.00  0.00    -0.075 NA
HETATM   18  C7  UNL     1      20.843  -0.331  54.842  1.00  0.00     0.138 A 
HETATM   19  C6  UNL     1      20.071  -0.022  53.713  1.00  0.00     0.048 A 
HETATM   20  C5  UNL     1      20.680  -0.029  52.470  1.00  0.00     0.058 A 
HETATM   21  N4  UNL     1      22.009  -0.336  52.369  1.00  0.00    -0.067 NA
BRANCH  20  22
HETATM   22  C4  UNL     1      19.771   0.300  51.350  1.00  0.00     0.087 C 
BRANCH  22  23
HETATM   23  C3  UNL     1      18.411  -0.193  51.720  1.00  0.00    -0.014 C 
BRANCH  23  24
HETATM   24  C2  UNL     1      17.195  -0.663  51.825  1.00  0.00     0.041 C 
BRANCH  24  25
HETATM   25  S1  UNL     1      15.594  -1.078  51.086  1.00  0.00    -0.146 SA
HETATM   26  C1  UNL     1      14.907  -2.554  51.908  1.00  0.00     0.095 C 
ENDBRANCH  24  25
ENDBRANCH  23  24
ENDBRANCH  22  23
ENDBRANCH  20  22
ENDBRANCH   1  16
TORSDOF 6
ENDMDL
MODEL 9
REMARK VINA RESULT:      -6.2      8.664     10.412
REMARK  6 active torsions:
REMARK  status: ('A' for Active; 'I' for Inactive)
REMARK    1  A    between atoms: S1_2  and  C2_3 
REMARK    2  A    between atoms: C2_3  and  C3_4 
REMARK    3  A    between atoms: C3_4  and  C4_5 
REMARK    4  A    between atoms: C4_5  and  C5_6 
REMARK    5  A    between atoms: C8_10  and  N2_11 
REMARK    6  A    between atoms: C13_16  and  C14_17 
ROOT
HETATM    1  N2  UNL     1      31.365   5.156  48.696  1.00  0.00    -0.194 N 
HETATM    2  C9  UNL     1      32.105   5.072  47.551  1.00  0.00     0.028 A 
HETATM    3  C10 UNL     1      32.386   5.325  46.238  1.00  0.00     0.084 A 
HETATM    4  C11 UNL     1      33.442   4.917  45.473  1.00  0.00     0.051 A 
HETATM    5  C12 UNL     1      34.608   4.278  45.185  1.00  0.00    -0.014 A 
HETATM    6  C13 UNL     1      34.362   4.003  46.502  1.00  0.00     0.058 A 
HETATM    7  C14 UNL     1      33.204   4.548  47.049  1.00  0.00     0.047 A 
HETATM    8  C15 UNL     1      33.910   4.418  48.361  1.00  0.00    -0.009 C 
HETATM    9  C16 UNL     1      34.703   5.517  48.484  1.00  0.00    -0.006 C 
HETATM   10  C17 UNL     1      34.931   6.717  47.593  1.00  0.00    -0.020 C 
HETATM   11  C18 UNL     1      34.190   6.764  46.496  1.00  0.00     0.035 C 
HETATM   12  C19 UNL     1      33.548   7.152  45.180  1.00  0.00     0.126 C 
HETATM   13  N3  UNL     1      33.415   5.889  44.359  1.00  0.00    -0.404 N 
HETATM   14  C20 UNL     1      33.194   5.336  43.044  1.00  0.00     0.144 C 
HETATM   15  H10 UNL     1      31.746   4.638  49.505  1.00  0.00     0.184 HD
ENDROOT
BRANCH   1  16
HETATM   16  C8  UNL     1      30.291   5.977  48.288  1.00  0.00     0.726 A 
HETATM   17  N1  UNL     1      30.373   7.177  47.663  1.00  0.00    -0.075 NA
HETATM   18  C7  UNL     1      29.224   7.832  47.354  1.00  0.00     0.138 A 
HETATM   19  C6  UNL     1      27.976   7.279  47.673  1.00  0.00     0.048 A 
HETATM   20  C5  UNL     1      27.937   6.050  48.309  1.00  0.00     0.058 A 
HETATM   21  N4  UNL     1      29.106   5.407  48.612  1.00  0.00    -0.067 NA
BRANCH  20  22
HETATM   22  C4  UNL     1      26.572   5.566  48.607  1.00  0.00     0.087 C 
BRANCH  22  23
HETATM   23  C3  UNL     1      26.707   4.296  49.379  1.00  0.00    -0.014 C 
BRANCH  23  24
HETATM   24  C2  UNL     1      26.626   3.132  49.970  1.00  0.00     0.041 C 
BRANCH  24  25
HETATM   25  S1  UNL     1      26.627   2.122  51.474  1.00  0.00    -0.146 SA
HETATM   26  C1  UNL     1      24.932   1.548  51.824  1.00  0.00     0.095 C 
ENDBRANCH  24  25
ENDBRANCH  23  24
ENDBRANCH  22  23
ENDBRANCH  20  22
ENDBRANCH   1  16
TORSDOF 6
ENDMDL
