MODEL 1
REMARK VINA RESULT:      -9.8      0.000      0.000
REMARK  1 active torsions:
REMARK  status: ('A' for Active; 'I' for Inactive)
REMARK    1  A    between atoms: C12_16  and  C13_17 
ROOT
HETATM    1  O1  UNL     1      20.584  -1.654  53.109  1.00  0.00    -0.239 OA
HETATM    2  C1  UNL     1      20.624  -1.048  54.193  1.00  0.00     0.360 C 
HETATM    3  N1  UNL     1      19.261  -0.796  54.054  1.00  0.00    -0.337 N 
HETATM    4  C2  UNL     1      18.139  -1.018  53.212  1.00  0.00     0.126 C 
HETATM    5  C3  UNL     1      18.199  -0.533  51.814  1.00  0.00     0.032 C 
HETATM    6  C4  UNL     1      18.396   0.920  51.579  1.00  0.00     0.096 C 
HETATM    7  C5  UNL     1      19.638   1.494  51.919  1.00  0.00    -0.102 C 
HETATM    8  C6  UNL     1      20.655   1.965  52.177  1.00  0.00    -0.076 C 
HETATM    9  C7  UNL     1      21.865   2.524  52.459  1.00  0.00     0.101 C 
HETATM   10  C8  UNL     1      22.893   1.754  52.707  1.00  0.00     0.079 C 
HETATM   11  C9  UNL     1      22.813   0.271  52.701  1.00  0.00     0.072 C 
HETATM   12  C10 UNL     1      23.427  -0.467  53.662  1.00  0.00     0.080 C 
HETATM   13  C11 UNL     1      22.913  -1.217  54.863  1.00  0.00     0.245 C 
HETATM   14  O2  UNL     1      21.599  -0.764  55.116  1.00  0.00    -0.298 OA
HETATM   15  O3  UNL     1      24.837  -0.638  53.635  1.00  0.00    -0.312 OA
HETATM   16  C12 UNL     1      25.935   0.241  53.501  1.00  0.00     0.084 C 
HETATM   17  C19 UNL     1      26.005   1.583  53.410  1.00  0.00     0.037 C 
HETATM   18  C20 UNL     1      25.290   2.713  52.824  1.00  0.00     0.206 C 
HETATM   19  O4  UNL     1      23.892   2.689  52.928  1.00  0.00    -0.347 OA
HETATM   20  H1  UNL     1      19.075  -0.240  54.912  1.00  0.00     0.164 HD
ENDROOT
BRANCH  16  21
HETATM   21  C13 UNL     1      27.203  -0.474  53.457  1.00  0.00    -0.003 A 
HETATM   22  C14 UNL     1      28.401  -0.027  53.940  1.00  0.00     0.014 A 
HETATM   23  C15 UNL     1      29.608  -0.686  53.919  1.00  0.00     0.001 A 
HETATM   24  C16 UNL     1      29.614  -1.960  53.337  1.00  0.00     0.000 A 
HETATM   25  C17 UNL     1      28.426  -2.448  52.838  1.00  0.00     0.001 A 
HETATM   26  C18 UNL     1      27.219  -1.742  52.881  1.00  0.00     0.014 A 
ENDBRANCH  16  21
TORSDOF 1
ENDMDL
MODEL 2
REMARK VINA RESULT:      -9.5      2.296      7.704
REMARK  1 active torsions:
REMARK  status: ('A' for Active; 'I' for Inactive)
REMARK    1  A    between atoms: C12_16  and  C13_17 
ROOT
HETATM    1  O1  UNL     1      26.244   2.122  52.274  1.00  0.00    -0.239 OA
HETATM    2  C1  UNL     1      25.796   2.661  53.300  1.00  0.00     0.360 C 
HETATM    3  N1  UNL     1      27.098   2.699  53.796  1.00  0.00    -0.337 N 
HETATM    4  C2  UNL     1      28.446   2.377  53.489  1.00  0.00     0.126 C 
HETATM    5  C3  UNL     1      28.783   0.966  53.189  1.00  0.00     0.032 C 
HETATM    6  C4  UNL     1      28.517  -0.060  54.230  1.00  0.00     0.096 C 
HETATM    7  C5  UNL     1      27.178  -0.361  54.550  1.00  0.00    -0.102 C 
HETATM    8  C6  UNL     1      26.088  -0.625  54.803  1.00  0.00    -0.076 C 
HETATM    9  C7  UNL     1      24.798  -0.958  55.092  1.00  0.00     0.101 C 
HETATM   10  C8  UNL     1      23.833  -0.555  54.305  1.00  0.00     0.079 C 
HETATM   11  C9  UNL     1      24.069   0.268  53.092  1.00  0.00     0.072 C 
HETATM   12  C10 UNL     1      23.264   1.319  52.791  1.00  0.00     0.080 C 
HETATM   13  C11 UNL     1      23.445   2.811  52.893  1.00  0.00     0.245 C 
HETATM   14  O2  UNL     1      24.554   3.047  53.736  1.00  0.00    -0.298 OA
HETATM   15  O3  UNL     1      21.963   1.092  52.268  1.00  0.00    -0.312 OA
HETATM   16  C12 UNL     1      20.876   0.271  52.647  1.00  0.00     0.084 C 
HETATM   17  C19 UNL     1      20.696  -0.551  53.699  1.00  0.00     0.037 C 
HETATM   18  C20 UNL     1      21.436  -1.491  54.535  1.00  0.00     0.206 C 
HETATM   19  O4  UNL     1      22.723  -1.098  54.931  1.00  0.00    -0.347 OA
HETATM   20  H1  UNL     1      26.940   3.131  54.729  1.00  0.00     0.164 HD
ENDROOT
BRANCH  16  21
HETATM   21  C13 UNL     1      19.773   0.357  51.701  1.00  0.00    -0.003 A 
HETATM   22  C14 UNL     1      19.767   1.056  50.526  1.00  0.00     0.014 A 
HETATM   23  C15 UNL     1      18.742   1.144  49.613  1.00  0.00     0.001 A 
HETATM   24  C16 UNL     1      17.571   0.440  49.917  1.00  0.00     0.000 A 
HETATM   25  C17 UNL     1      17.536  -0.278  51.093  1.00  0.00     0.001 A 
HETATM   26  C18 UNL     1      18.604  -0.341  51.995  1.00  0.00     0.014 A 
ENDBRANCH  16  21
TORSDOF 1
ENDMDL
MODEL 3
REMARK VINA RESULT:      -9.5      3.237      7.585
REMARK  1 active torsions:
REMARK  status: ('A' for Active; 'I' for Inactive)
REMARK    1  A    between atoms: C12_16  and  C13_17 
ROOT
HETATM    1  O1  UNL     1      23.554   4.918  49.988  1.00  0.00    -0.239 OA
HETATM    2  C1  UNL     1      23.753   5.139  51.195  1.00  0.00     0.360 C 
HETATM    3  N1  UNL     1      24.877   5.878  50.832  1.00  0.00    -0.337 N 
HETATM    4  C2  UNL     1      25.633   6.332  49.719  1.00  0.00     0.126 C 
HETATM    5  C3  UNL     1      26.208   5.325  48.798  1.00  0.00     0.032 C 
HETATM    6  C4  UNL     1      27.159   4.326  49.350  1.00  0.00     0.096 C 
HETATM    7  C5  UNL     1      26.670   3.353  50.243  1.00  0.00    -0.102 C 
HETATM    8  C6  UNL     1      26.273   2.543  50.958  1.00  0.00    -0.076 C 
HETATM    9  C7  UNL     1      25.805   1.569  51.788  1.00  0.00     0.101 C 
HETATM   10  C8  UNL     1      24.516   1.381  51.904  1.00  0.00     0.079 C 
HETATM   11  C9  UNL     1      23.511   2.190  51.169  1.00  0.00     0.072 C 
HETATM   12  C10 UNL     1      22.386   2.637  51.785  1.00  0.00     0.080 C 
HETATM   13  C11 UNL     1      21.965   3.992  52.293  1.00  0.00     0.245 C 
HETATM   14  O2  UNL     1      23.124   4.796  52.365  1.00  0.00    -0.298 OA
HETATM   15  O3  UNL     1      21.321   1.739  52.061  1.00  0.00    -0.312 OA
HETATM   16  C12 UNL     1      21.236   0.464  52.666  1.00  0.00     0.084 C 
HETATM   17  C19 UNL     1      22.167  -0.316  53.250  1.00  0.00     0.037 C 
HETATM   18  C20 UNL     1      23.568  -0.700  53.107  1.00  0.00     0.206 C 
HETATM   19  O4  UNL     1      24.471   0.329  52.805  1.00  0.00    -0.347 OA
HETATM   20  H1  UNL     1      25.234   6.164  51.765  1.00  0.00     0.164 HD
ENDROOT
BRANCH  16  21
HETATM   21  C13 UNL     1      19.881  -0.068  52.629  1.00  0.00    -0.003 A 
HETATM   22  C14 UNL     1      19.358  -1.005  53.475  1.00  0.00     0.014 A 
HETATM   23  C15 UNL     1      18.080  -1.515  53.467  1.00  0.00     0.001 A 
HETATM   24  C16 UNL     1      17.216  -1.022  52.482  1.00  0.00     0.000 A 
HETATM   25  C17 UNL     1      17.706  -0.075  51.609  1.00  0.00     0.001 A 
HETATM   26  C18 UNL     1      19.015   0.417  51.653  1.00  0.00     0.014 A 
ENDBRANCH  16  21
TORSDOF 1
ENDMDL
MODEL 4
REMARK VINA RESULT:      -9.3      2.837      7.597
REMARK  1 active torsions:
REMARK  status: ('A' for Active; 'I' for Inactive)
REMARK    1  A    between atoms: C12_16  and  C13_17 
ROOT
HETATM    1  O1  UNL     1      23.164   3.307  50.320  1.00  0.00    -0.239 OA
HETATM    2  C1  UNL     1      23.067   3.788  51.462  1.00  0.00     0.360 C 
HETATM    3  N1  UNL     1      24.298   4.409  51.258  1.00  0.00    -0.337 N 
HETATM    4  C2  UNL     1      25.342   4.591  50.313  1.00  0.00     0.126 C 
HETATM    5  C3  UNL     1      26.054   3.394  49.810  1.00  0.00     0.032 C 
HETATM    6  C4  UNL     1      26.759   2.528  50.789  1.00  0.00     0.096 C 
HETATM    7  C5  UNL     1      25.989   1.786  51.707  1.00  0.00    -0.102 C 
HETATM    8  C6  UNL     1      25.366   1.164  52.447  1.00  0.00    -0.076 C 
HETATM    9  C7  UNL     1      24.633   0.407  53.311  1.00  0.00     0.101 C 
HETATM   10  C8  UNL     1      23.345   0.270  53.122  1.00  0.00     0.079 C 
HETATM   11  C9  UNL     1      22.622   0.912  51.995  1.00  0.00     0.072 C 
HETATM   12  C10 UNL     1      21.414   1.504  52.186  1.00  0.00     0.080 C 
HETATM   13  C11 UNL     1      20.980   2.944  52.267  1.00  0.00     0.245 C 
HETATM   14  O2  UNL     1      22.140   3.726  52.470  1.00  0.00    -0.298 OA
HETATM   15  O3  UNL     1      20.250   0.708  52.356  1.00  0.00    -0.312 OA
HETATM   16  C12 UNL     1      19.921  -0.398  53.172  1.00  0.00     0.084 C 
HETATM   17  C19 UNL     1      20.614  -1.044  54.131  1.00  0.00     0.037 C 
HETATM   18  C20 UNL     1      21.973  -1.474  54.444  1.00  0.00     0.206 C 
HETATM   19  O4  UNL     1      22.997  -0.553  54.180  1.00  0.00    -0.347 OA
HETATM   20  H1  UNL     1      24.429   4.889  52.171  1.00  0.00     0.164 HD
ENDROOT
BRANCH  16  21
HETATM   21  C13 UNL     1      18.584  -0.903  52.894  1.00  0.00    -0.003 A 
HETATM   22  C14 UNL     1      17.663  -0.335  52.058  1.00  0.00     0.014 A 
HETATM   23  C15 UNL     1      16.400  -0.796  51.772  1.00  0.00     0.001 A 
HETATM   24  C16 UNL     1      16.009  -1.982  52.407  1.00  0.00     0.000 A 
HETATM   25  C17 UNL     1      16.908  -2.586  53.257  1.00  0.00     0.001 A 
HETATM   26  C18 UNL     1      18.187  -2.081  53.520  1.00  0.00     0.014 A 
ENDBRANCH  16  21
TORSDOF 1
ENDMDL
MODEL 5
REMARK VINA RESULT:      -9.1      3.578      5.769
REMARK  1 active torsions:
REMARK  status: ('A' for Active; 'I' for Inactive)
REMARK    1  A    between atoms: C12_16  and  C13_17 
ROOT
HETATM    1  O1  UNL     1      20.559   1.697  51.682  1.00  0.00    -0.239 OA
HETATM    2  C1  UNL     1      20.965   0.840  50.878  1.00  0.00     0.360 C 
HETATM    3  N1  UNL     1      20.258  -0.115  51.607  1.00  0.00    -0.337 N 
HETATM    4  C2  UNL     1      19.405  -0.294  52.728  1.00  0.00     0.126 C 
HETATM    5  C3  UNL     1      19.900   0.112  54.063  1.00  0.00     0.032 C 
HETATM    6  C4  UNL     1      21.130  -0.536  54.587  1.00  0.00     0.096 C 
HETATM    7  C5  UNL     1      22.358  -0.257  53.955  1.00  0.00    -0.102 C 
HETATM    8  C6  UNL     1      23.367  -0.019  53.455  1.00  0.00    -0.076 C 
HETATM    9  C7  UNL     1      24.567   0.276  52.882  1.00  0.00     0.101 C 
HETATM   10  C8  UNL     1      24.658   1.282  52.049  1.00  0.00     0.079 C 
HETATM   11  C9  UNL     1      23.500   2.136  51.684  1.00  0.00     0.072 C 
HETATM   12  C10 UNL     1      23.292   2.520  50.397  1.00  0.00     0.080 C 
HETATM   13  C11 UNL     1      22.312   2.080  49.342  1.00  0.00     0.245 C 
HETATM   14  O2  UNL     1      21.761   0.849  49.761  1.00  0.00    -0.298 OA
HETATM   15  O3  UNL     1      24.102   3.534  49.818  1.00  0.00    -0.312 OA
HETATM   16  C12 UNL     1      25.495   3.761  49.741  1.00  0.00     0.084 C 
HETATM   17  C19 UNL     1      26.547   3.031  50.158  1.00  0.00     0.037 C 
HETATM   18  C20 UNL     1      26.954   2.166  51.262  1.00  0.00     0.206 C 
HETATM   19  O4  UNL     1      26.002   1.242  51.716  1.00  0.00    -0.347 OA
HETATM   20  H1  UNL     1      20.491  -0.979  51.078  1.00  0.00     0.164 HD
ENDROOT
BRANCH  16  21
HETATM   21  C13 UNL     1      25.806   5.023  49.086  1.00  0.00    -0.003 A 
HETATM   22  C14 UNL     1      24.907   5.981  48.708  1.00  0.00     0.014 A 
HETATM   23  C15 UNL     1      25.176   7.184  48.097  1.00  0.00     0.001 A 
HETATM   24  C16 UNL     1      26.523   7.462  47.832  1.00  0.00     0.000 A 
HETATM   25  C17 UNL     1      27.461   6.522  48.198  1.00  0.00     0.001 A 
HETATM   26  C18 UNL     1      27.142   5.309  48.818  1.00  0.00     0.014 A 
ENDBRANCH  16  21
TORSDOF 1
ENDMDL
MODEL 6
REMARK VINA RESULT:      -8.6      2.263      8.021
REMARK  1 active torsions:
REMARK  status: ('A' for Active; 'I' for Inactive)
REMARK    1  A    between atoms: C12_16  and  C13_17 
ROOT
HETATM    1  O1  UNL     1      24.175   2.017  50.956  1.00  0.00    -0.239 OA
HETATM    2  C1  UNL     1      23.817   2.626  51.978  1.00  0.00     0.360 C 
HETATM    3  N1  UNL     1      25.163   2.802  52.293  1.00  0.00    -0.337 N 
HETATM    4  C2  UNL     1      26.484   2.541  51.843  1.00  0.00     0.126 C 
HETATM    5  C3  UNL     1      26.892   1.133  51.632  1.00  0.00     0.032 C 
HETATM    6  C4  UNL     1      26.840   0.202  52.788  1.00  0.00     0.096 C 
HETATM    7  C5  UNL     1      25.580  -0.154  53.309  1.00  0.00    -0.102 C 
HETATM    8  C6  UNL     1      24.554  -0.463  53.727  1.00  0.00    -0.076 C 
HETATM    9  C7  UNL     1      23.341  -0.851  54.212  1.00  0.00     0.101 C 
HETATM   10  C8  UNL     1      22.256  -0.595  53.526  1.00  0.00     0.079 C 
HETATM   11  C9  UNL     1      22.273   0.113  52.222  1.00  0.00     0.072 C 
HETATM   12  C10 UNL     1      21.355   1.073  51.934  1.00  0.00     0.080 C 
HETATM   13  C11 UNL     1      21.429   2.576  51.873  1.00  0.00     0.245 C 
HETATM   14  O2  UNL     1      22.612   2.970  52.537  1.00  0.00    -0.298 OA
HETATM   15  O3  UNL     1      20.022   0.707  51.610  1.00  0.00    -0.312 OA
HETATM   16  C12 UNL     1      19.060  -0.143  52.203  1.00  0.00     0.084 C 
HETATM   17  C19 UNL     1      19.079  -0.864  53.341  1.00  0.00     0.037 C 
HETATM   18  C20 UNL     1      19.989  -1.663  54.155  1.00  0.00     0.206 C 
HETATM   19  O4  UNL     1      21.279  -1.146  54.340  1.00  0.00    -0.347 OA
HETATM   20  H1  UNL     1      25.089   3.314  53.195  1.00  0.00     0.164 HD
ENDROOT
BRANCH  16  21
HETATM   21  C13 UNL     1      17.844  -0.228  51.407  1.00  0.00    -0.003 A 
HETATM   22  C14 UNL     1      16.693  -0.878  51.755  1.00  0.00     0.014 A 
HETATM   23  C15 UNL     1      15.529  -0.964  51.026  1.00  0.00     0.001 A 
HETATM   24  C16 UNL     1      15.520  -0.314  49.786  1.00  0.00     0.000 A 
HETATM   25  C17 UNL     1      16.661   0.353  49.397  1.00  0.00     0.001 A 
HETATM   26  C18 UNL     1      17.824   0.415  50.172  1.00  0.00     0.014 A 
ENDBRANCH  16  21
TORSDOF 1
ENDMDL
MODEL 7
REMARK VINA RESULT:      -8.4      2.413      4.028
REMARK  1 active torsions:
REMARK  status: ('A' for Active; 'I' for Inactive)
REMARK    1  A    between atoms: C12_16  and  C13_17 
ROOT
HETATM    1  O1  UNL     1      21.556   4.162  50.528  1.00  0.00    -0.239 OA
HETATM    2  C1  UNL     1      21.694   3.209  49.743  1.00  0.00     0.360 C 
HETATM    3  N1  UNL     1      20.404   3.460  49.278  1.00  0.00    -0.337 N 
HETATM    4  C2  UNL     1      19.284   4.318  49.430  1.00  0.00     0.126 C 
HETATM    5  C3  UNL     1      18.640   4.409  50.761  1.00  0.00     0.032 C 
HETATM    6  C4  UNL     1      18.081   3.170  51.360  1.00  0.00     0.096 C 
HETATM    7  C5  UNL     1      18.974   2.159  51.769  1.00  0.00    -0.102 C 
HETATM    8  C6  UNL     1      19.698   1.338  52.122  1.00  0.00    -0.076 C 
HETATM    9  C7  UNL     1      20.551   0.371  52.562  1.00  0.00     0.101 C 
HETATM   10  C8  UNL     1      21.829   0.633  52.668  1.00  0.00     0.079 C 
HETATM   11  C9  UNL     1      22.414   1.954  52.324  1.00  0.00     0.072 C 
HETATM   12  C10 UNL     1      23.579   2.044  51.630  1.00  0.00     0.080 C 
HETATM   13  C11 UNL     1      23.896   2.398  50.201  1.00  0.00     0.245 C 
HETATM   14  O2  UNL     1      22.693   2.311  49.465  1.00  0.00    -0.298 OA
HETATM   15  O3  UNL     1      24.814   1.771  52.276  1.00  0.00    -0.312 OA
HETATM   16  C12 UNL     1      25.291   0.718  53.089  1.00  0.00     0.084 C 
HETATM   17  C19 UNL     1      24.725  -0.440  53.482  1.00  0.00     0.037 C 
HETATM   18  C20 UNL     1      23.433  -0.983  53.889  1.00  0.00     0.206 C 
HETATM   19  O4  UNL     1      22.320  -0.572  53.141  1.00  0.00    -0.347 OA
HETATM   20  H1  UNL     1      20.300   2.705  48.571  1.00  0.00     0.164 HD
ENDROOT
BRANCH  16  21
HETATM   21  C13 UNL     1      26.643   0.969  53.570  1.00  0.00    -0.003 A 
HETATM   22  C14 UNL     1      27.368   0.163  54.402  1.00  0.00     0.014 A 
HETATM   23  C15 UNL     1      28.648   0.374  54.861  1.00  0.00     0.001 A 
HETATM   24  C16 UNL     1      29.282   1.545  54.429  1.00  0.00     0.000 A 
HETATM   25  C17 UNL     1      28.584   2.385  53.589  1.00  0.00     0.001 A 
HETATM   26  C18 UNL     1      27.281   2.131  53.146  1.00  0.00     0.014 A 
ENDBRANCH  16  21
TORSDOF 1
ENDMDL
MODEL 8
REMARK VINA RESULT:      -7.8      4.570      6.526
REMARK  1 active torsions:
REMARK  status: ('A' for Active; 'I' for Inactive)
REMARK    1  A    between atoms: C12_16  and  C13_17 
ROOT
HETATM    1  O1  UNL     1      23.468   1.317  50.762  1.00  0.00    -0.239 OA
HETATM    2  C1  UNL     1      23.925   1.696  51.853  1.00  0.00     0.360 C 
HETATM    3  N1  UNL     1      22.920   0.963  52.481  1.00  0.00    -0.337 N 
HETATM    4  C2  UNL     1      21.814   0.105  52.241  1.00  0.00     0.126 C 
HETATM    5  C3  UNL     1      20.694   0.613  51.417  1.00  0.00     0.032 C 
HETATM    6  C4  UNL     1      19.968   1.824  51.880  1.00  0.00     0.096 C 
HETATM    7  C5  UNL     1      20.646   3.059  51.869  1.00  0.00    -0.102 C 
HETATM    8  C6  UNL     1      21.188   4.074  51.844  1.00  0.00    -0.076 C 
HETATM    9  C7  UNL     1      21.816   5.282  51.796  1.00  0.00     0.101 C 
HETATM   10  C8  UNL     1      22.942   5.402  51.139  1.00  0.00     0.079 C 
HETATM   11  C9  UNL     1      23.588   4.269  50.430  1.00  0.00     0.072 C 
HETATM   12  C10 UNL     1      24.930   4.072  50.504  1.00  0.00     0.080 C 
HETATM   13  C11 UNL     1      25.781   3.078  51.252  1.00  0.00     0.245 C 
HETATM   14  O2  UNL     1      24.970   2.491  52.249  1.00  0.00    -0.298 OA
HETATM   15  O3  UNL     1      25.814   4.910  49.773  1.00  0.00    -0.312 OA
HETATM   16  C12 UNL     1      25.951   6.309  49.625  1.00  0.00     0.084 C 
HETATM   17  C19 UNL     1      25.299   7.340  50.196  1.00  0.00     0.037 C 
HETATM   18  C20 UNL     1      23.963   7.722  50.642  1.00  0.00     0.206 C 
HETATM   19  O4  UNL     1      23.229   6.744  51.327  1.00  0.00    -0.347 OA
HETATM   20  H1  UNL     1      23.120   1.170  53.479  1.00  0.00     0.164 HD
ENDROOT
BRANCH  16  21
HETATM   21  C13 UNL     1      26.996   6.656  48.672  1.00  0.00    -0.003 A 
HETATM   22  C14 UNL     1      28.189   6.009  48.508  1.00  0.00     0.014 A 
HETATM   23  C15 UNL     1      29.186   6.312  47.610  1.00  0.00     0.001 A 
HETATM   24  C16 UNL     1      28.956   7.405  46.766  1.00  0.00     0.000 A 
HETATM   25  C17 UNL     1      27.765   8.085  46.899  1.00  0.00     0.001 A 
HETATM   26  C18 UNL     1      26.776   7.742  47.828  1.00  0.00     0.014 A 
ENDBRANCH  16  21
TORSDOF 1
ENDMDL
MODEL 9
REMARK VINA RESULT:      -7.8      3.862      7.856
REMARK  1 active torsions:
REMARK  status: ('A' for Active; 'I' for Inactive)
REMARK    1  A    between atoms: C12_16  and  C13_17 
ROOT
HETATM    1  O1  UNL     1      25.710   2.146  51.926  1.00  0.00    -0.239 OA
HETATM    2  C1  UNL     1      24.957   2.875  52.594  1.00  0.00     0.360 C 
HETATM    3  N1  UNL     1      25.594   2.408  53.742  1.00  0.00    -0.337 N 
HETATM    4  C2  UNL     1      26.625   1.549  54.206  1.00  0.00     0.126 C 
HETATM    5  C3  UNL     1      26.549   0.109  53.868  1.00  0.00     0.032 C 
HETATM    6  C4  UNL     1      25.365  -0.662  54.324  1.00  0.00     0.096 C 
HETATM    7  C5  UNL     1      24.112  -0.375  53.747  1.00  0.00    -0.102 C 
HETATM    8  C6  UNL     1      23.090  -0.159  53.266  1.00  0.00    -0.076 C 
HETATM    9  C7  UNL     1      21.880   0.077  52.684  1.00  0.00     0.101 C 
HETATM   10  C8  UNL     1      21.815   0.795  51.592  1.00  0.00     0.079 C 
HETATM   11  C9  UNL     1      23.011   1.383  50.938  1.00  0.00     0.072 C 
HETATM   12  C10 UNL     1      22.993   2.653  50.457  1.00  0.00     0.080 C 
HETATM   13  C11 UNL     1      23.587   3.946  50.953  1.00  0.00     0.245 C 
HETATM   14  O2  UNL     1      23.945   3.756  52.307  1.00  0.00    -0.298 OA
HETATM   15  O3  UNL     1      22.306   2.947  49.249  1.00  0.00    -0.312 OA
HETATM   16  C12 UNL     1      21.014   2.659  48.753  1.00  0.00     0.084 C 
HETATM   17  C19 UNL     1      19.956   2.040  49.312  1.00  0.00     0.037 C 
HETATM   18  C20 UNL     1      19.641   0.927  50.202  1.00  0.00     0.206 C 
HETATM   19  O4  UNL     1      20.454   0.785  51.336  1.00  0.00    -0.347 OA
HETATM   20  H1  UNL     1      25.067   2.916  54.480  1.00  0.00     0.164 HD
ENDROOT
BRANCH  16  21
HETATM   21  C13 UNL     1      20.836   3.135  47.389  1.00  0.00    -0.003 A 
HETATM   22  C14 UNL     1      21.829   3.493  46.521  1.00  0.00     0.014 A 
HETATM   23  C15 UNL     1      21.687   3.935  45.226  1.00  0.00     0.001 A 
HETATM   24  C16 UNL     1      20.377   4.030  44.738  1.00  0.00     0.000 A 
HETATM   25  C17 UNL     1      19.347   3.677  45.582  1.00  0.00     0.001 A 
HETATM   26  C18 UNL     1      19.538   3.232  46.895  1.00  0.00     0.014 A 
ENDBRANCH  16  21
TORSDOF 1
ENDMDL
