MODEL 1
REMARK VINA RESULT:      -9.1      0.000      0.000
REMARK  0 active torsions:
REMARK  status: ('A' for Active; 'I' for Inactive)
ROOT
HETATM    1  C1  UNL     1      28.403   2.517  53.511  1.00  0.00     0.038 C 
HETATM    2  C2  UNL     1      27.090   1.921  53.227  1.00  0.00     0.001 C 
HETATM    3  C3  UNL     1      26.234   1.798  52.186  1.00  0.00     0.045 C 
HETATM    4  C4  UNL     1      26.673   2.419  50.925  1.00  0.00     0.091 C 
HETATM    5  C5  UNL     1      25.837   3.553  50.495  1.00  0.00    -0.019 C 
HETATM    6  C6  UNL     1      25.167   3.654  49.375  1.00  0.00     0.015 C 
HETATM    7  C7  UNL     1      24.441   4.901  49.246  1.00  0.00     0.117 C 
HETATM    8  N1  UNL     1      23.706   5.820  48.785  1.00  0.00    -0.255 NA
HETATM    9  C8  UNL     1      23.034   5.787  47.535  1.00  0.00     0.228 C 
HETATM   10  N2  UNL     1      22.489   6.792  46.895  1.00  0.00    -0.257 NA
HETATM   11  C9  UNL     1      21.858   6.441  45.608  1.00  0.00     0.325 C 
HETATM   12  O1  UNL     1      20.489   6.069  45.916  1.00  0.00    -0.330 OA
HETATM   13  C10 UNL     1      20.386   4.994  46.834  1.00  0.00     0.071 A 
HETATM   14  C11 UNL     1      20.441   3.641  46.626  1.00  0.00     0.039 A 
HETATM   15  C12 UNL     1      20.316   2.852  47.744  1.00  0.00     0.032 A 
HETATM   16  C13 UNL     1      20.145   3.394  48.997  1.00  0.00     0.034 A 
HETATM   17  C14 UNL     1      20.090   4.778  49.189  1.00  0.00     0.032 A 
HETATM   18  C15 UNL     1      20.215   5.568  48.073  1.00  0.00     0.039 A 
HETATM   19  N3  UNL     1      20.066   2.445  50.050  1.00  0.00    -0.327 N 
HETATM   20  C16 UNL     1      19.293   1.477  50.737  1.00  0.00     0.222 C 
HETATM   21  O2  UNL     1      18.242   1.558  50.050  1.00  0.00    -0.273 OA
HETATM   22  C17 UNL     1      20.085   0.881  51.875  1.00  0.00     0.103 C 
HETATM   23  C18 UNL     1      19.354  -0.186  52.568  1.00  0.00     0.009 C 
HETATM   24  C19 UNL     1      20.046  -0.675  53.794  1.00  0.00     0.000 C 
HETATM   25  C20 UNL     1      21.445  -1.110  53.728  1.00  0.00     0.000 C 
HETATM   26  C21 UNL     1      22.518  -0.088  53.639  1.00  0.00     0.002 C 
HETATM   27  C22 UNL     1      23.887  -0.783  53.556  1.00  0.00     0.027 C 
HETATM   28  C23 UNL     1      25.028   0.183  53.540  1.00  0.00     0.175 C 
HETATM   29  O3  UNL     1      25.052   1.090  52.467  1.00  0.00    -0.355 OA
HETATM   30  H17 UNL     1      21.077   2.706  50.284  1.00  0.00     0.169 HD
ENDROOT
TORSDOF 0
ENDMDL
MODEL 2
REMARK VINA RESULT:      -9.0      2.764      7.463
REMARK  0 active torsions:
REMARK  status: ('A' for Active; 'I' for Inactive)
ROOT
HETATM    1  C1  UNL     1      21.711   5.689  47.356  1.00  0.00     0.038 C 
HETATM    2  C2  UNL     1      21.320   4.796  48.455  1.00  0.00     0.001 C 
HETATM    3  C3  UNL     1      21.785   4.413  49.666  1.00  0.00     0.045 C 
HETATM    4  C4  UNL     1      23.059   5.024  50.082  1.00  0.00     0.091 C 
HETATM    5  C5  UNL     1      24.172   4.067  50.195  1.00  0.00    -0.019 C 
HETATM    6  C6  UNL     1      24.876   3.805  51.267  1.00  0.00     0.015 C 
HETATM    7  C7  UNL     1      25.909   2.812  51.053  1.00  0.00     0.117 C 
HETATM    8  N1  UNL     1      26.874   2.022  51.254  1.00  0.00    -0.255 NA
HETATM    9  C8  UNL     1      27.548   1.843  52.491  1.00  0.00     0.228 C 
HETATM   10  N2  UNL     1      28.700   1.254  52.694  1.00  0.00    -0.257 NA
HETATM   11  C9  UNL     1      29.142   1.223  54.102  1.00  0.00     0.325 C 
HETATM   12  O1  UNL     1      28.577   0.016  54.677  1.00  0.00    -0.330 OA
HETATM   13  C10 UNL     1      27.163  -0.043  54.595  1.00  0.00     0.071 A 
HETATM   14  C11 UNL     1      26.202   0.495  55.412  1.00  0.00     0.039 A 
HETATM   15  C12 UNL     1      24.899   0.262  55.047  1.00  0.00     0.032 A 
HETATM   16  C13 UNL     1      24.581  -0.469  53.926  1.00  0.00     0.034 A 
HETATM   17  C14 UNL     1      25.575  -1.012  53.106  1.00  0.00     0.032 A 
HETATM   18  C15 UNL     1      26.878  -0.780  53.468  1.00  0.00     0.039 A 
HETATM   19  N3  UNL     1      23.190  -0.590  53.669  1.00  0.00    -0.327 N 
HETATM   20  C16 UNL     1      21.957  -1.204  54.003  1.00  0.00     0.222 C 
HETATM   21  O2  UNL     1      22.364  -1.941  54.937  1.00  0.00    -0.273 OA
HETATM   22  C17 UNL     1      20.853  -0.686  53.114  1.00  0.00     0.103 C 
HETATM   23  C18 UNL     1      19.539  -1.233  53.475  1.00  0.00     0.009 C 
HETATM   24  C19 UNL     1      18.463  -0.866  52.511  1.00  0.00     0.000 C 
HETATM   25  C20 UNL     1      18.240   0.539  52.155  1.00  0.00     0.000 C 
HETATM   26  C21 UNL     1      19.179   1.207  51.221  1.00  0.00     0.002 C 
HETATM   27  C22 UNL     1      18.755   2.672  51.022  1.00  0.00     0.027 C 
HETATM   28  C23 UNL     1      19.611   3.395  50.032  1.00  0.00     0.175 C 
HETATM   29  O3  UNL     1      20.977   3.485  50.349  1.00  0.00    -0.355 OA
HETATM   30  H17 UNL     1      23.322   0.154  52.912  1.00  0.00     0.169 HD
ENDROOT
TORSDOF 0
ENDMDL
MODEL 3
REMARK VINA RESULT:      -8.9      2.021      5.668
REMARK  0 active torsions:
REMARK  status: ('A' for Active; 'I' for Inactive)
ROOT
HETATM    1  C1  UNL     1      17.409  -2.747  53.352  1.00  0.00     0.038 C 
HETATM    2  C2  UNL     1      18.693  -2.040  53.452  1.00  0.00     0.001 C 
HETATM    3  C3  UNL     1      19.191  -0.802  53.227  1.00  0.00     0.045 C 
HETATM    4  C4  UNL     1      18.224   0.193  52.733  1.00  0.00     0.091 C 
HETATM    5  C5  UNL     1      18.496   0.661  51.364  1.00  0.00    -0.019 C 
HETATM    6  C6  UNL     1      18.732   1.893  50.988  1.00  0.00     0.015 C 
HETATM    7  C7  UNL     1      18.960   2.029  49.563  1.00  0.00     0.117 C 
HETATM    8  N1  UNL     1      19.199   2.532  48.429  1.00  0.00    -0.255 NA
HETATM    9  C8  UNL     1      19.440   3.907  48.172  1.00  0.00     0.228 C 
HETATM   10  N2  UNL     1      19.427   4.516  47.013  1.00  0.00    -0.257 NA
HETATM   11  C9  UNL     1      19.719   5.962  47.067  1.00  0.00     0.325 C 
HETATM   12  O1  UNL     1      21.161   6.088  46.966  1.00  0.00    -0.330 OA
HETATM   13  C10 UNL     1      21.864   5.397  47.984  1.00  0.00     0.071 A 
HETATM   14  C11 UNL     1      22.173   5.776  49.264  1.00  0.00     0.039 A 
HETATM   15  C12 UNL     1      22.866   4.859  50.016  1.00  0.00     0.032 A 
HETATM   16  C13 UNL     1      23.228   3.633  49.508  1.00  0.00     0.034 A 
HETATM   17  C14 UNL     1      22.905   3.264  48.198  1.00  0.00     0.032 A 
HETATM   18  C15 UNL     1      22.211   4.179  47.446  1.00  0.00     0.039 A 
HETATM   19  N3  UNL     1      23.910   2.788  50.422  1.00  0.00    -0.327 N 
HETATM   20  C16 UNL     1      25.115   2.480  51.102  1.00  0.00     0.222 C 
HETATM   21  O2  UNL     1      25.831   3.404  50.636  1.00  0.00    -0.273 OA
HETATM   22  C17 UNL     1      24.928   1.271  51.984  1.00  0.00     0.103 C 
HETATM   23  C18 UNL     1      26.127   0.960  52.772  1.00  0.00     0.009 C 
HETATM   24  C19 UNL     1      26.023  -0.322  53.525  1.00  0.00     0.000 C 
HETATM   25  C20 UNL     1      24.876  -0.570  54.406  1.00  0.00     0.000 C 
HETATM   26  C21 UNL     1      23.565  -0.919  53.805  1.00  0.00     0.002 C 
HETATM   27  C22 UNL     1      22.521  -1.106  54.920  1.00  0.00     0.027 C 
HETATM   28  C23 UNL     1      21.187  -1.535  54.399  1.00  0.00     0.175 C 
HETATM   29  O3  UNL     1      20.562  -0.651  53.504  1.00  0.00    -0.355 OA
HETATM   30  H17 UNL     1      22.988   2.257  50.532  1.00  0.00     0.169 HD
ENDROOT
TORSDOF 0
ENDMDL
MODEL 4
REMARK VINA RESULT:      -8.9      2.704      8.429
REMARK  0 active torsions:
REMARK  status: ('A' for Active; 'I' for Inactive)
ROOT
HETATM    1  C1  UNL     1      15.646   0.581  51.850  1.00  0.00     0.038 C 
HETATM    2  C2  UNL     1      16.642   1.520  51.315  1.00  0.00     0.001 C 
HETATM    3  C3  UNL     1      17.939   1.514  50.929  1.00  0.00     0.045 C 
HETATM    4  C4  UNL     1      18.634   0.222  51.052  1.00  0.00     0.091 C 
HETATM    5  C5  UNL     1      19.718   0.219  52.048  1.00  0.00    -0.019 C 
HETATM    6  C6  UNL     1      20.983  -0.036  51.831  1.00  0.00     0.015 C 
HETATM    7  C7  UNL     1      21.803   0.039  53.023  1.00  0.00     0.117 C 
HETATM    8  N1  UNL     1      22.800   0.007  53.798  1.00  0.00    -0.255 NA
HETATM    9  C8  UNL     1      24.134  -0.289  53.411  1.00  0.00     0.228 C 
HETATM   10  N2  UNL     1      25.141  -0.596  54.191  1.00  0.00    -0.257 NA
HETATM   11  C9  UNL     1      26.414  -0.851  53.489  1.00  0.00     0.325 C 
HETATM   12  O1  UNL     1      27.075   0.435  53.366  1.00  0.00    -0.330 OA
HETATM   13  C10 UNL     1      26.306   1.403  52.672  1.00  0.00     0.071 A 
HETATM   14  C11 UNL     1      26.167   1.629  51.328  1.00  0.00     0.039 A 
HETATM   15  C12 UNL     1      25.326   2.655  50.971  1.00  0.00     0.032 A 
HETATM   16  C13 UNL     1      24.664   3.409  51.912  1.00  0.00     0.034 A 
HETATM   17  C14 UNL     1      24.821   3.165  53.280  1.00  0.00     0.032 A 
HETATM   18  C15 UNL     1      25.661   2.140  53.639  1.00  0.00     0.039 A 
HETATM   19  N3  UNL     1      23.808   4.408  51.380  1.00  0.00    -0.327 N 
HETATM   20  C16 UNL     1      23.683   5.681  50.769  1.00  0.00     0.222 C 
HETATM   21  O2  UNL     1      24.904   5.979  50.711  1.00  0.00    -0.273 OA
HETATM   22  C17 UNL     1      22.231   6.004  50.518  1.00  0.00     0.103 C 
HETATM   23  C18 UNL     1      22.054   7.280  49.813  1.00  0.00     0.009 C 
HETATM   24  C19 UNL     1      20.628   7.699  49.701  1.00  0.00     0.000 C 
HETATM   25  C20 UNL     1      19.630   6.779  49.144  1.00  0.00     0.000 C 
HETATM   26  C21 UNL     1      19.140   5.653  49.977  1.00  0.00     0.002 C 
HETATM   27  C22 UNL     1      18.126   4.821  49.174  1.00  0.00     0.027 C 
HETATM   28  C23 UNL     1      17.527   3.707  49.973  1.00  0.00     0.175 C 
HETATM   29  O3  UNL     1      18.428   2.748  50.465  1.00  0.00    -0.355 OA
HETATM   30  H17 UNL     1      22.994   3.754  51.611  1.00  0.00     0.169 HD
ENDROOT
TORSDOF 0
ENDMDL
MODEL 5
REMARK VINA RESULT:      -8.5      2.118      6.010
REMARK  0 active torsions:
REMARK  status: ('A' for Active; 'I' for Inactive)
ROOT
HETATM    1  C1  UNL     1      15.801  -0.301  48.912  1.00  0.00     0.038 C 
HETATM    2  C2  UNL     1      16.868  -0.141  49.909  1.00  0.00     0.001 C 
HETATM    3  C3  UNL     1      17.681   0.834  50.378  1.00  0.00     0.045 C 
HETATM    4  C4  UNL     1      17.512   2.158  49.756  1.00  0.00     0.091 C 
HETATM    5  C5  UNL     1      18.680   2.606  48.979  1.00  0.00    -0.019 C 
HETATM    6  C6  UNL     1      19.392   3.686  49.184  1.00  0.00     0.015 C 
HETATM    7  C7  UNL     1      20.480   3.849  48.241  1.00  0.00     0.117 C 
HETATM    8  N1  UNL     1      21.485   4.321  47.640  1.00  0.00    -0.255 NA
HETATM    9  C8  UNL     1      22.162   5.522  47.982  1.00  0.00     0.228 C 
HETATM   10  N2  UNL     1      23.021   6.189  47.253  1.00  0.00    -0.257 NA
HETATM   11  C9  UNL     1      23.559   7.408  47.888  1.00  0.00     0.325 C 
HETATM   12  O1  UNL     1      24.727   6.991  48.642  1.00  0.00    -0.330 OA
HETATM   13  C10 UNL     1      24.448   6.001  49.617  1.00  0.00     0.071 A 
HETATM   14  C11 UNL     1      23.976   6.123  50.898  1.00  0.00     0.039 A 
HETATM   15  C12 UNL     1      23.801   4.951  51.592  1.00  0.00     0.032 A 
HETATM   16  C13 UNL     1      24.084   3.728  51.031  1.00  0.00     0.034 A 
HETATM   17  C14 UNL     1      24.567   3.623  49.722  1.00  0.00     0.032 A 
HETATM   18  C15 UNL     1      24.742   4.793  49.026  1.00  0.00     0.039 A 
HETATM   19  N3  UNL     1      23.817   2.612  51.867  1.00  0.00    -0.327 N 
HETATM   20  C16 UNL     1      24.216   1.816  52.969  1.00  0.00     0.222 C 
HETATM   21  O2  UNL     1      25.265   2.439  53.277  1.00  0.00    -0.273 OA
HETATM   22  C17 UNL     1      23.232   0.694  53.193  1.00  0.00     0.103 C 
HETATM   23  C18 UNL     1      23.560  -0.112  54.375  1.00  0.00     0.009 C 
HETATM   24  C19 UNL     1      22.700  -1.321  54.521  1.00  0.00     0.000 C 
HETATM   25  C20 UNL     1      21.239  -1.194  54.501  1.00  0.00     0.000 C 
HETATM   26  C21 UNL     1      20.550  -0.971  53.206  1.00  0.00     0.002 C 
HETATM   27  C22 UNL     1      19.035  -0.847  53.443  1.00  0.00     0.027 C 
HETATM   28  C23 UNL     1      18.260  -0.695  52.173  1.00  0.00     0.175 C 
HETATM   29  O3  UNL     1      18.567   0.433  51.394  1.00  0.00    -0.355 OA
HETATM   30  H17 UNL     1      22.932   2.460  51.286  1.00  0.00     0.169 HD
ENDROOT
TORSDOF 0
ENDMDL
MODEL 6
REMARK VINA RESULT:      -8.3      2.387      6.517
REMARK  0 active torsions:
REMARK  status: ('A' for Active; 'I' for Inactive)
ROOT
HETATM    1  C1  UNL     1      26.059  -0.869  52.774  1.00  0.00     0.038 C 
HETATM    2  C2  UNL     1      25.440   0.343  52.221  1.00  0.00     0.001 C 
HETATM    3  C3  UNL     1      24.309   1.068  52.379  1.00  0.00     0.045 C 
HETATM    4  C4  UNL     1      23.360   0.558  53.384  1.00  0.00     0.091 C 
HETATM    5  C5  UNL     1      22.082   0.095  52.817  1.00  0.00    -0.019 C 
HETATM    6  C6  UNL     1      20.888   0.551  53.099  1.00  0.00     0.015 C 
HETATM    7  C7  UNL     1      19.827  -0.117  52.373  1.00  0.00     0.117 C 
HETATM    8  N1  UNL     1      18.681  -0.442  51.952  1.00  0.00    -0.255 NA
HETATM    9  C8  UNL     1      17.456   0.153  52.356  1.00  0.00     0.228 C 
HETATM   10  N2  UNL     1      16.245  -0.307  52.165  1.00  0.00    -0.257 NA
HETATM   11  C9  UNL     1      15.165   0.544  52.702  1.00  0.00     0.325 C 
HETATM   12  O1  UNL     1      14.829   1.485  51.649  1.00  0.00    -0.330 OA
HETATM   13  C10 UNL     1      15.926   2.276  51.225  1.00  0.00     0.071 A 
HETATM   14  C11 UNL     1      16.442   3.433  51.748  1.00  0.00     0.039 A 
HETATM   15  C12 UNL     1      17.534   3.956  51.099  1.00  0.00     0.032 A 
HETATM   16  C13 UNL     1      18.074   3.350  49.988  1.00  0.00     0.034 A 
HETATM   17  C14 UNL     1      17.532   2.171  49.467  1.00  0.00     0.032 A 
HETATM   18  C15 UNL     1      16.441   1.646  50.115  1.00  0.00     0.039 A 
HETATM   19  N3  UNL     1      19.219   3.997  49.455  1.00  0.00    -0.327 N 
HETATM   20  C16 UNL     1      19.747   5.075  48.702  1.00  0.00     0.222 C 
HETATM   21  O2  UNL     1      18.666   5.659  48.432  1.00  0.00    -0.273 OA
HETATM   22  C17 UNL     1      21.250   4.973  48.617  1.00  0.00     0.103 C 
HETATM   23  C18 UNL     1      21.851   6.113  47.914  1.00  0.00     0.009 C 
HETATM   24  C19 UNL     1      23.313   5.954  47.674  1.00  0.00     0.000 C 
HETATM   25  C20 UNL     1      24.214   5.635  48.788  1.00  0.00     0.000 C 
HETATM   26  C21 UNL     1      24.242   4.251  49.322  1.00  0.00     0.002 C 
HETATM   27  C22 UNL     1      25.237   4.171  50.492  1.00  0.00     0.027 C 
HETATM   28  C23 UNL     1      25.379   2.786  51.039  1.00  0.00     0.175 C 
HETATM   29  O3  UNL     1      24.210   2.205  51.557  1.00  0.00    -0.355 OA
HETATM   30  H17 UNL     1      19.800   3.228  49.920  1.00  0.00     0.169 HD
ENDROOT
TORSDOF 0
ENDMDL
MODEL 7
REMARK VINA RESULT:      -8.1      3.954      8.686
REMARK  0 active torsions:
REMARK  status: ('A' for Active; 'I' for Inactive)
ROOT
HETATM    1  C1  UNL     1      23.076  12.883  47.606  1.00  0.00     0.038 C 
HETATM    2  C2  UNL     1      23.920  11.689  47.461  1.00  0.00     0.001 C 
HETATM    3  C3  UNL     1      23.772  10.349  47.345  1.00  0.00     0.045 C 
HETATM    4  C4  UNL     1      22.384   9.857  47.362  1.00  0.00     0.091 C 
HETATM    5  C5  UNL     1      22.058   9.029  48.535  1.00  0.00    -0.019 C 
HETATM    6  C6  UNL     1      21.647   7.786  48.529  1.00  0.00     0.015 C 
HETATM    7  C7  UNL     1      21.408   7.249  49.853  1.00  0.00     0.117 C 
HETATM    8  N1  UNL     1      21.102   6.459  50.790  1.00  0.00    -0.255 NA
HETATM    9  C8  UNL     1      20.665   5.117  50.627  1.00  0.00     0.228 C 
HETATM   10  N2  UNL     1      20.089   4.352  51.520  1.00  0.00    -0.257 NA
HETATM   11  C9  UNL     1      19.750   2.995  51.048  1.00  0.00     0.325 C 
HETATM   12  O1  UNL     1      20.922   2.175  51.298  1.00  0.00    -0.330 OA
HETATM   13  C10 UNL     1      22.093   2.650  50.656  1.00  0.00     0.071 A 
HETATM   14  C11 UNL     1      22.544   2.460  49.376  1.00  0.00     0.039 A 
HETATM   15  C12 UNL     1      23.730   3.072  49.056  1.00  0.00     0.032 A 
HETATM   16  C13 UNL     1      24.423   3.831  49.970  1.00  0.00     0.034 A 
HETATM   17  C14 UNL     1      23.948   4.012  51.273  1.00  0.00     0.032 A 
HETATM   18  C15 UNL     1      22.762   3.401  51.595  1.00  0.00     0.039 A 
HETATM   19  N3  UNL     1      25.614   4.424  49.473  1.00  0.00    -0.327 N 
HETATM   20  C16 UNL     1      26.969   4.258  49.095  1.00  0.00     0.222 C 
HETATM   21  O2  UNL     1      27.079   3.028  49.335  1.00  0.00    -0.273 OA
HETATM   22  C17 UNL     1      27.549   5.569  48.626  1.00  0.00     0.103 C 
HETATM   23  C18 UNL     1      28.930   5.432  48.147  1.00  0.00     0.009 C 
HETATM   24  C19 UNL     1      29.579   6.737  47.834  1.00  0.00     0.000 C 
HETATM   25  C20 UNL     1      28.922   7.689  46.931  1.00  0.00     0.000 C 
HETATM   26  C21 UNL     1      27.771   8.483  47.429  1.00  0.00     0.002 C 
HETATM   27  C22 UNL     1      27.241   9.385  46.302  1.00  0.00     0.027 C 
HETATM   28  C23 UNL     1      26.124  10.274  46.747  1.00  0.00     0.175 C 
HETATM   29  O3  UNL     1      24.972   9.625  47.222  1.00  0.00    -0.355 OA
HETATM   30  H17 UNL     1      25.066   5.341  49.414  1.00  0.00     0.169 HD
ENDROOT
TORSDOF 0
ENDMDL
MODEL 8
REMARK VINA RESULT:      -8.1      9.362     12.589
REMARK  0 active torsions:
REMARK  status: ('A' for Active; 'I' for Inactive)
ROOT
HETATM    1  C1  UNL     1      34.482   9.378  40.233  1.00  0.00     0.038 C 
HETATM    2  C2  UNL     1      34.200   8.386  41.281  1.00  0.00     0.001 C 
HETATM    3  C3  UNL     1      33.196   8.060  42.126  1.00  0.00     0.045 C 
HETATM    4  C4  UNL     1      31.989   8.899  42.035  1.00  0.00     0.091 C 
HETATM    5  C5  UNL     1      31.727   9.701  43.243  1.00  0.00    -0.019 C 
HETATM    6  C6  UNL     1      30.659   9.656  43.998  1.00  0.00     0.015 C 
HETATM    7  C7  UNL     1      30.702  10.576  45.117  1.00  0.00     0.117 C 
HETATM    8  N1  UNL     1      30.381  11.214  46.158  1.00  0.00    -0.255 NA
HETATM    9  C8  UNL     1      29.169  11.055  46.881  1.00  0.00     0.228 C 
HETATM   10  N2  UNL     1      28.670  11.856  47.789  1.00  0.00    -0.257 NA
HETATM   11  C9  UNL     1      27.385  11.416  48.367  1.00  0.00     0.325 C 
HETATM   12  O1  UNL     1      27.718  10.564  49.494  1.00  0.00    -0.330 OA
HETATM   13  C10 UNL     1      28.517   9.447  49.144  1.00  0.00     0.071 A 
HETATM   14  C11 UNL     1      28.161   8.221  48.645  1.00  0.00     0.039 A 
HETATM   15  C12 UNL     1      29.191   7.347  48.398  1.00  0.00     0.032 A 
HETATM   16  C13 UNL     1      30.503   7.687  48.638  1.00  0.00     0.034 A 
HETATM   17  C14 UNL     1      30.846   8.942  49.149  1.00  0.00     0.032 A 
HETATM   18  C15 UNL     1      29.818   9.818  49.397  1.00  0.00     0.039 A 
HETATM   19  N3  UNL     1      31.449   6.685  48.298  1.00  0.00    -0.327 N 
HETATM   20  C16 UNL     1      32.064   5.453  48.630  1.00  0.00     0.222 C 
HETATM   21  O2  UNL     1      31.442   5.219  49.699  1.00  0.00    -0.273 OA
HETATM   22  C17 UNL     1      33.090   5.078  47.590  1.00  0.00     0.103 C 
HETATM   23  C18 UNL     1      33.698   3.767  47.848  1.00  0.00     0.009 C 
HETATM   24  C19 UNL     1      34.829   3.450  46.930  1.00  0.00     0.000 C 
HETATM   25  C20 UNL     1      34.646   3.539  45.477  1.00  0.00     0.000 C 
HETATM   26  C21 UNL     1      34.616   4.876  44.833  1.00  0.00     0.002 C 
HETATM   27  C22 UNL     1      34.391   4.714  43.320  1.00  0.00     0.027 C 
HETATM   28  C23 UNL     1      34.423   6.016  42.586  1.00  0.00     0.175 C 
HETATM   29  O3  UNL     1      33.456   6.962  42.966  1.00  0.00    -0.355 OA
HETATM   30  H17 UNL     1      31.660   7.262  47.422  1.00  0.00     0.169 HD
ENDROOT
TORSDOF 0
ENDMDL
MODEL 9
REMARK VINA RESULT:      -7.8      7.997     12.425
REMARK  0 active torsions:
REMARK  status: ('A' for Active; 'I' for Inactive)
ROOT
HETATM    1  C1  UNL     1      23.478   7.320  50.267  1.00  0.00     0.038 C 
HETATM    2  C2  UNL     1      24.353   8.241  49.528  1.00  0.00     0.001 C 
HETATM    3  C3  UNL     1      25.363   8.181  48.630  1.00  0.00     0.045 C 
HETATM    4  C4  UNL     1      25.771   6.827  48.219  1.00  0.00     0.091 C 
HETATM    5  C5  UNL     1      27.134   6.460  48.639  1.00  0.00    -0.019 C 
HETATM    6  C6  UNL     1      28.131   6.123  47.861  1.00  0.00     0.015 C 
HETATM    7  C7  UNL     1      29.349   5.814  48.583  1.00  0.00     0.117 C 
HETATM    8  N1  UNL     1      30.541   5.483  48.838  1.00  0.00    -0.255 NA
HETATM    9  C8  UNL     1      31.525   5.139  47.874  1.00  0.00     0.228 C 
HETATM   10  N2  UNL     1      32.671   4.541  48.082  1.00  0.00    -0.257 NA
HETATM   11  C9  UNL     1      33.486   4.320  46.871  1.00  0.00     0.325 C 
HETATM   12  O1  UNL     1      34.293   5.515  46.701  1.00  0.00    -0.330 OA
HETATM   13  C10 UNL     1      33.529   6.702  46.581  1.00  0.00     0.071 A 
HETATM   14  C11 UNL     1      32.922   7.262  45.486  1.00  0.00     0.039 A 
HETATM   15  C12 UNL     1      32.238   8.432  45.706  1.00  0.00     0.032 A 
HETATM   16  C13 UNL     1      32.168   9.006  46.955  1.00  0.00     0.034 A 
HETATM   17  C14 UNL     1      32.795   8.421  48.059  1.00  0.00     0.032 A 
HETATM   18  C15 UNL     1      33.480   7.251  47.842  1.00  0.00     0.039 A 
HETATM   19  N3  UNL     1      31.395  10.195  47.021  1.00  0.00    -0.327 N 
HETATM   20  C16 UNL     1      31.303  11.583  46.752  1.00  0.00     0.222 C 
HETATM   21  O2  UNL     1      32.436  11.745  46.230  1.00  0.00    -0.273 OA
HETATM   22  C17 UNL     1      29.968  12.120  47.206  1.00  0.00     0.103 C 
HETATM   23  C18 UNL     1      29.794  13.540  46.876  1.00  0.00     0.009 C 
HETATM   24  C19 UNL     1      28.556  14.133  47.458  1.00  0.00     0.000 C 
HETATM   25  C20 UNL     1      27.255  13.494  47.232  1.00  0.00     0.000 C 
HETATM   26  C21 UNL     1      26.912  12.264  47.986  1.00  0.00     0.002 C 
HETATM   27  C22 UNL     1      25.518  11.771  47.564  1.00  0.00     0.027 C 
HETATM   28  C23 UNL     1      25.067  10.573  48.336  1.00  0.00     0.175 C 
HETATM   29  O3  UNL     1      25.872   9.427  48.222  1.00  0.00    -0.355 OA
HETATM   30  H17 UNL     1      30.622   9.600  47.461  1.00  0.00     0.169 HD
ENDROOT
TORSDOF 0
ENDMDL
