MODEL 1
REMARK VINA RESULT:      -7.1      0.000      0.000
REMARK  8 active torsions:
REMARK  status: ('A' for Active; 'I' for Inactive)
REMARK    1  A    between atoms: C2_2  and  C3_3 
REMARK    2  A    between atoms: C3_3  and  N1_4 
REMARK    3  A    between atoms: N1_4  and  C4_5 
REMARK    4  A    between atoms: N1_4  and  C12_15 
REMARK    5  A    between atoms: C4_5  and  C5_6 
REMARK       I    between atoms: C5_6  and  N2_8 
REMARK    6  A    between atoms: N2_8  and  C6_9 
REMARK    7  A    between atoms: C12_15  and  C13_16 
REMARK    8  A    between atoms: C18_22  and  O2_23 
ROOT
HETATM    1  N1  UNL     1      22.620   1.035  52.303  1.00  0.00    -0.400 N 
ENDROOT
BRANCH   1   2
HETATM    2  C3  UNL     1      21.948  -0.177  52.258  1.00  0.00     0.117 C 
BRANCH   2   3
HETATM    3  C2  UNL     1      20.942  -0.421  53.353  1.00  0.00     0.015 C 
HETATM    4  C1  UNL     1      21.436  -1.573  54.199  1.00  0.00     0.006 C 
ENDBRANCH   2   3
ENDBRANCH   1   2
BRANCH   1   5
HETATM    5  C4  UNL     1      22.222   2.165  51.601  1.00  0.00     0.220 C 
BRANCH   5   6
HETATM    6  C5  UNL     1      23.239   2.776  50.734  1.00  0.00     0.239 C 
HETATM    7  O1  UNL     1      23.115   2.394  49.543  1.00  0.00    -0.271 OA
HETATM    8  N2  UNL     1      24.259   3.676  51.086  1.00  0.00    -0.326 N 
HETATM    9  H10 UNL     1      24.221   3.891  52.106  1.00  0.00     0.169 HD
BRANCH   8  10
HETATM   10  C6  UNL     1      25.239   4.262  50.254  1.00  0.00     0.034 A 
HETATM   11  C7  UNL     1      26.380   3.699  49.783  1.00  0.00     0.029 A 
HETATM   12  C8  UNL     1      27.312   4.309  48.981  1.00  0.00     0.002 A 
HETATM   13  C9  UNL     1      27.095   5.615  48.601  1.00  0.00     0.000 A 
HETATM   14  C10 UNL     1      25.947   6.230  49.055  1.00  0.00     0.002 A 
HETATM   15  C11 UNL     1      25.046   5.568  49.860  1.00  0.00     0.029 A 
ENDBRANCH   8  10
ENDBRANCH   5   6
ENDBRANCH   1   5
BRANCH   1  16
HETATM   16  C12 UNL     1      23.425   1.352  53.441  1.00  0.00     0.159 C 
BRANCH  16  17
HETATM   17  C13 UNL     1      24.745   0.638  53.289  1.00  0.00    -0.006 A 
HETATM   18  C14 UNL     1      25.041  -0.688  53.053  1.00  0.00     0.012 A 
HETATM   19  C15 UNL     1      26.336  -1.079  52.959  1.00  0.00     0.002 A 
HETATM   20  C16 UNL     1      27.375  -0.181  53.095  1.00  0.00     0.022 A 
HETATM   21  C17 UNL     1      27.115   1.172  53.336  1.00  0.00     0.044 A 
HETATM   22 BR1  UNL     1      28.599   2.326  53.508  1.00  0.00    -0.048 Br
HETATM   23  C18 UNL     1      25.779   1.552  53.428  1.00  0.00     0.090 A 
BRANCH  23  24
HETATM   24  O2  UNL     1      25.669   2.932  53.671  1.00  0.00    -0.359 OA
HETATM   25  H21 UNL     1      25.682   3.214  54.642  1.00  0.00     0.217 HD
ENDBRANCH  23  24
ENDBRANCH  16  17
ENDBRANCH   1  16
TORSDOF 8
ENDMDL
MODEL 2
REMARK VINA RESULT:      -7.0      3.428      5.730
REMARK  8 active torsions:
REMARK  status: ('A' for Active; 'I' for Inactive)
REMARK    1  A    between atoms: C2_2  and  C3_3 
REMARK    2  A    between atoms: C3_3  and  N1_4 
REMARK    3  A    between atoms: N1_4  and  C4_5 
REMARK    4  A    between atoms: N1_4  and  C12_15 
REMARK    5  A    between atoms: C4_5  and  C5_6 
REMARK       I    between atoms: C5_6  and  N2_8 
REMARK    6  A    between atoms: N2_8  and  C6_9 
REMARK    7  A    between atoms: C12_15  and  C13_16 
REMARK    8  A    between atoms: C18_22  and  O2_23 
ROOT
HETATM    1  N1  UNL     1      23.298   2.069  51.753  1.00  0.00    -0.400 N 
ENDROOT
BRANCH   1   2
HETATM    2  C3  UNL     1      23.123   1.735  50.419  1.00  0.00     0.117 C 
BRANCH   2   3
HETATM    3  C2  UNL     1      21.861   2.240  49.767  1.00  0.00     0.015 C 
HETATM    4  C1  UNL     1      21.159   1.063  49.127  1.00  0.00     0.006 C 
ENDBRANCH   2   3
ENDBRANCH   1   2
BRANCH   1   5
HETATM    5  C4  UNL     1      24.402   2.758  52.238  1.00  0.00     0.220 C 
BRANCH   5   6
HETATM    6  C5  UNL     1      25.660   2.000  52.295  1.00  0.00     0.239 C 
HETATM    7  O1  UNL     1      26.342   2.166  51.252  1.00  0.00    -0.271 OA
HETATM    8  N2  UNL     1      26.133   1.170  53.325  1.00  0.00    -0.326 N 
HETATM    9  H10 UNL     1      25.452   1.143  54.114  1.00  0.00     0.169 HD
BRANCH   8  10
HETATM   10  C6  UNL     1      27.341   0.439  53.380  1.00  0.00     0.034 A 
HETATM   11  C7  UNL     1      28.571   0.884  53.736  1.00  0.00     0.029 A 
HETATM   12  C8  UNL     1      29.724   0.139  53.767  1.00  0.00     0.002 A 
HETATM   13  C9  UNL     1      29.654  -1.189  53.408  1.00  0.00     0.000 A 
HETATM   14  C10 UNL     1      28.423  -1.689  53.038  1.00  0.00     0.002 A 
HETATM   15  C11 UNL     1      27.299  -0.892  53.025  1.00  0.00     0.029 A 
ENDBRANCH   8  10
ENDBRANCH   5   6
ENDBRANCH   1   5
BRANCH   1  16
HETATM   16  C12 UNL     1      22.155   2.197  52.603  1.00  0.00     0.159 C 
BRANCH  16  17
HETATM   17  C13 UNL     1      21.872   0.843  53.205  1.00  0.00    -0.006 A 
HETATM   18  C14 UNL     1      22.689  -0.048  53.867  1.00  0.00     0.012 A 
HETATM   19  C15 UNL     1      22.177  -1.221  54.316  1.00  0.00     0.002 A 
HETATM   20  C16 UNL     1      20.851  -1.551  54.127  1.00  0.00     0.022 A 
HETATM   21  C17 UNL     1      19.990  -0.673  53.460  1.00  0.00     0.044 A 
HETATM   22 BR1  UNL     1      18.193  -1.210  53.248  1.00  0.00    -0.048 Br
HETATM   23  C18 UNL     1      20.536   0.525  53.007  1.00  0.00     0.090 A 
BRANCH  23  24
HETATM   24  O2  UNL     1      19.562   1.303  52.360  1.00  0.00    -0.359 OA
HETATM   25  H21 UNL     1      19.904   2.102  51.841  1.00  0.00     0.217 HD
ENDBRANCH  23  24
ENDBRANCH  16  17
ENDBRANCH   1  16
TORSDOF 8
ENDMDL
MODEL 3
REMARK VINA RESULT:      -6.9      2.465      5.660
REMARK  8 active torsions:
REMARK  status: ('A' for Active; 'I' for Inactive)
REMARK    1  A    between atoms: C2_2  and  C3_3 
REMARK    2  A    between atoms: C3_3  and  N1_4 
REMARK    3  A    between atoms: N1_4  and  C4_5 
REMARK    4  A    between atoms: N1_4  and  C12_15 
REMARK    5  A    between atoms: C4_5  and  C5_6 
REMARK       I    between atoms: C5_6  and  N2_8 
REMARK    6  A    between atoms: N2_8  and  C6_9 
REMARK    7  A    between atoms: C12_15  and  C13_16 
REMARK    8  A    between atoms: C18_22  and  O2_23 
ROOT
HETATM    1  N1  UNL     1      23.470   3.389  50.760  1.00  0.00    -0.400 N 
ENDROOT
BRANCH   1   2
HETATM    2  C3  UNL     1      22.196   2.871  50.591  1.00  0.00     0.117 C 
BRANCH   2   3
HETATM    3  C2  UNL     1      22.098   1.371  50.470  1.00  0.00     0.015 C 
HETATM    4  C1  UNL     1      21.294   1.050  49.230  1.00  0.00     0.006 C 
ENDBRANCH   2   3
ENDBRANCH   1   2
BRANCH   1   5
HETATM    5  C4  UNL     1      24.026   3.684  51.998  1.00  0.00     0.220 C 
BRANCH   5   6
HETATM    6  C5  UNL     1      24.980   2.699  52.527  1.00  0.00     0.239 C 
HETATM    7  O1  UNL     1      24.398   1.826  53.219  1.00  0.00    -0.271 OA
HETATM    8  N2  UNL     1      26.372   2.647  52.346  1.00  0.00    -0.326 N 
HETATM    9  H10 UNL     1      26.692   3.439  51.748  1.00  0.00     0.169 HD
BRANCH   8  10
HETATM   10  C6  UNL     1      27.290   1.702  52.856  1.00  0.00     0.034 A 
HETATM   11  C7  UNL     1      27.326   0.365  52.628  1.00  0.00     0.029 A 
HETATM   12  C8  UNL     1      28.233  -0.521  53.152  1.00  0.00     0.002 A 
HETATM   13  C9  UNL     1      29.211  -0.037  53.992  1.00  0.00     0.000 A 
HETATM   14  C10 UNL     1      29.216   1.317  54.254  1.00  0.00     0.002 A 
HETATM   15  C11 UNL     1      28.278   2.160  53.699  1.00  0.00     0.029 A 
ENDBRANCH   8  10
ENDBRANCH   5   6
ENDBRANCH   1   5
BRANCH   1  16
HETATM   16  C12 UNL     1      24.461   3.163  49.754  1.00  0.00     0.159 C 
BRANCH  16  17
HETATM   17  C13 UNL     1      24.898   4.506  49.224  1.00  0.00    -0.006 A 
HETATM   18  C14 UNL     1      24.175   5.632  48.890  1.00  0.00     0.012 A 
HETATM   19  C15 UNL     1      24.822   6.730  48.425  1.00  0.00     0.002 A 
HETATM   20  C16 UNL     1      26.193   6.752  48.274  1.00  0.00     0.022 A 
HETATM   21  C17 UNL     1      26.961   5.629  48.601  1.00  0.00     0.044 A 
HETATM   22 BR1  UNL     1      28.829   5.753  48.361  1.00  0.00    -0.048 Br
HETATM   23  C18 UNL     1      26.278   4.514  49.077  1.00  0.00     0.090 A 
BRANCH  23  24
HETATM   24  O2  UNL     1      27.170   3.467  49.363  1.00  0.00    -0.359 OA
HETATM   25  H21 UNL     1      28.091   3.544  48.951  1.00  0.00     0.217 HD
ENDBRANCH  23  24
ENDBRANCH  16  17
ENDBRANCH   1  16
TORSDOF 8
ENDMDL
MODEL 4
REMARK VINA RESULT:      -6.9      2.348      4.380
REMARK  8 active torsions:
REMARK  status: ('A' for Active; 'I' for Inactive)
REMARK    1  A    between atoms: C2_2  and  C3_3 
REMARK    2  A    between atoms: C3_3  and  N1_4 
REMARK    3  A    between atoms: N1_4  and  C4_5 
REMARK    4  A    between atoms: N1_4  and  C12_15 
REMARK    5  A    between atoms: C4_5  and  C5_6 
REMARK       I    between atoms: C5_6  and  N2_8 
REMARK    6  A    between atoms: N2_8  and  C6_9 
REMARK    7  A    between atoms: C12_15  and  C13_16 
REMARK    8  A    between atoms: C18_22  and  O2_23 
ROOT
HETATM    1  N1  UNL     1      26.291   0.123  53.496  1.00  0.00    -0.400 N 
ENDROOT
BRANCH   1   2
HETATM    2  C3  UNL     1      27.374  -0.731  53.642  1.00  0.00     0.117 C 
BRANCH   2   3
HETATM    3  C2  UNL     1      28.554  -0.184  54.403  1.00  0.00     0.015 C 
HETATM    4  C1  UNL     1      29.798  -0.423  53.577  1.00  0.00     0.006 C 
ENDBRANCH   2   3
ENDBRANCH   1   2
BRANCH   1   5
HETATM    5  C4  UNL     1      26.339   1.485  53.767  1.00  0.00     0.220 C 
BRANCH   5   6
HETATM    6  C5  UNL     1      26.556   2.364  52.609  1.00  0.00     0.239 C 
HETATM    7  O1  UNL     1      27.777   2.454  52.326  1.00  0.00    -0.271 OA
HETATM    8  N2  UNL     1      25.600   3.061  51.851  1.00  0.00    -0.326 N 
HETATM    9  H10 UNL     1      24.640   2.876  52.215  1.00  0.00     0.169 HD
BRANCH   8  10
HETATM   10  C6  UNL     1      25.808   3.908  50.740  1.00  0.00     0.034 A 
HETATM   11  C7  UNL     1      26.824   3.874  49.842  1.00  0.00     0.029 A 
HETATM   12  C8  UNL     1      26.994   4.725  48.779  1.00  0.00     0.002 A 
HETATM   13  C9  UNL     1      26.059   5.716  48.578  1.00  0.00     0.000 A 
HETATM   14  C10 UNL     1      25.005   5.790  49.465  1.00  0.00     0.002 A 
HETATM   15  C11 UNL     1      24.887   4.908  50.517  1.00  0.00     0.029 A 
ENDBRANCH   8  10
ENDBRANCH   5   6
ENDBRANCH   1   5
BRANCH   1  16
HETATM   16  C12 UNL     1      25.244  -0.218  52.583  1.00  0.00     0.159 C 
BRANCH  16  17
HETATM   17  C13 UNL     1      23.955  -0.293  53.364  1.00  0.00    -0.006 A 
HETATM   18  C14 UNL     1      23.612  -1.016  54.487  1.00  0.00     0.012 A 
HETATM   19  C15 UNL     1      22.361  -0.903  55.000  1.00  0.00     0.002 A 
HETATM   20  C16 UNL     1      21.416  -0.079  54.425  1.00  0.00     0.022 A 
HETATM   21  C17 UNL     1      21.726   0.670  53.286  1.00  0.00     0.044 A 
HETATM   22 BR1  UNL     1      20.368   1.770  52.570  1.00  0.00    -0.048 Br
HETATM   23  C18 UNL     1      23.014   0.540  52.776  1.00  0.00     0.090 A 
BRANCH  23  24
HETATM   24  O2  UNL     1      23.184   1.345  51.637  1.00  0.00    -0.359 OA
HETATM   25  H21 UNL     1      22.843   0.960  50.766  1.00  0.00     0.217 HD
ENDBRANCH  23  24
ENDBRANCH  16  17
ENDBRANCH   1  16
TORSDOF 8
ENDMDL
MODEL 5
REMARK VINA RESULT:      -6.8      1.845      3.383
REMARK  8 active torsions:
REMARK  status: ('A' for Active; 'I' for Inactive)
REMARK    1  A    between atoms: C2_2  and  C3_3 
REMARK    2  A    between atoms: C3_3  and  N1_4 
REMARK    3  A    between atoms: N1_4  and  C4_5 
REMARK    4  A    between atoms: N1_4  and  C12_15 
REMARK    5  A    between atoms: C4_5  and  C5_6 
REMARK       I    between atoms: C5_6  and  N2_8 
REMARK    6  A    between atoms: N2_8  and  C6_9 
REMARK    7  A    between atoms: C12_15  and  C13_16 
REMARK    8  A    between atoms: C18_22  and  O2_23 
ROOT
HETATM    1  N1  UNL     1      23.870   3.103  51.415  1.00  0.00    -0.400 N 
ENDROOT
BRANCH   1   2
HETATM    2  C3  UNL     1      22.811   3.925  51.059  1.00  0.00     0.117 C 
BRANCH   2   3
HETATM    3  C2  UNL     1      22.660   5.196  51.855  1.00  0.00     0.015 C 
HETATM    4  C1  UNL     1      23.220   6.335  51.033  1.00  0.00     0.006 C 
ENDBRANCH   2   3
ENDBRANCH   1   2
BRANCH   1   5
HETATM    5  C4  UNL     1      24.795   2.599  50.509  1.00  0.00     0.220 C 
BRANCH   5   6
HETATM    6  C5  UNL     1      25.875   3.515  50.117  1.00  0.00     0.239 C 
HETATM    7  O1  UNL     1      26.948   3.237  50.709  1.00  0.00    -0.271 OA
HETATM    8  N2  UNL     1      25.823   4.590  49.213  1.00  0.00    -0.326 N 
HETATM    9  H10 UNL     1      24.865   4.683  48.811  1.00  0.00     0.169 HD
BRANCH   8  10
HETATM   10  C6  UNL     1      26.860   5.473  48.837  1.00  0.00     0.034 A 
HETATM   11  C7  UNL     1      26.818   6.826  48.759  1.00  0.00     0.029 A 
HETATM   12  C8  UNL     1      27.850   7.647  48.380  1.00  0.00     0.002 A 
HETATM   13  C9  UNL     1      29.055   7.071  48.042  1.00  0.00     0.000 A 
HETATM   14  C10 UNL     1      29.147   5.697  48.108  1.00  0.00     0.002 A 
HETATM   15  C11 UNL     1      28.076   4.922  48.495  1.00  0.00     0.029 A 
ENDBRANCH   8  10
ENDBRANCH   5   6
ENDBRANCH   1   5
BRANCH   1  16
HETATM   16  C12 UNL     1      24.380   3.150  52.750  1.00  0.00     0.159 C 
BRANCH  16  17
HETATM   17  C13 UNL     1      24.650   1.734  53.193  1.00  0.00    -0.006 A 
HETATM   18  C14 UNL     1      23.846   0.614  53.202  1.00  0.00     0.012 A 
HETATM   19  C15 UNL     1      24.341  -0.563  53.662  1.00  0.00     0.002 A 
HETATM   20  C16 UNL     1      25.636  -0.671  54.126  1.00  0.00     0.022 A 
HETATM   21  C17 UNL     1      26.482   0.443  54.133  1.00  0.00     0.044 A 
HETATM   22 BR1  UNL     1      28.236   0.200  54.786  1.00  0.00    -0.048 Br
HETATM   23  C18 UNL     1      25.954   1.640  53.657  1.00  0.00     0.090 A 
BRANCH  23  24
HETATM   24  O2  UNL     1      26.911   2.667  53.723  1.00  0.00    -0.359 OA
HETATM   25  H21 UNL     1      27.154   3.104  52.843  1.00  0.00     0.217 HD
ENDBRANCH  23  24
ENDBRANCH  16  17
ENDBRANCH   1  16
TORSDOF 8
ENDMDL
MODEL 6
REMARK VINA RESULT:      -6.7      1.766      5.526
REMARK  8 active torsions:
REMARK  status: ('A' for Active; 'I' for Inactive)
REMARK    1  A    between atoms: C2_2  and  C3_3 
REMARK    2  A    between atoms: C3_3  and  N1_4 
REMARK    3  A    between atoms: N1_4  and  C4_5 
REMARK    4  A    between atoms: N1_4  and  C12_15 
REMARK    5  A    between atoms: C4_5  and  C5_6 
REMARK       I    between atoms: C5_6  and  N2_8 
REMARK    6  A    between atoms: N2_8  and  C6_9 
REMARK    7  A    between atoms: C12_15  and  C13_16 
REMARK    8  A    between atoms: C18_22  and  O2_23 
ROOT
HETATM    1  N1  UNL     1      24.267   3.388  51.829  1.00  0.00    -0.400 N 
ENDROOT
BRANCH   1   2
HETATM    2  C3  UNL     1      25.062   2.749  50.890  1.00  0.00     0.117 C 
BRANCH   2   3
HETATM    3  C2  UNL     1      25.236   3.458  49.571  1.00  0.00     0.015 C 
HETATM    4  C1  UNL     1      26.704   3.776  49.398  1.00  0.00     0.006 C 
ENDBRANCH   2   3
ENDBRANCH   1   2
BRANCH   1   5
HETATM    5  C4  UNL     1      23.025   3.942  51.541  1.00  0.00     0.220 C 
BRANCH   5   6
HETATM    6  C5  UNL     1      21.860   3.095  51.835  1.00  0.00     0.239 C 
HETATM    7  O1  UNL     1      20.988   3.726  52.483  1.00  0.00    -0.271 OA
HETATM    8  N2  UNL     1      21.649   1.750  51.488  1.00  0.00    -0.326 N 
HETATM    9  H10 UNL     1      22.464   1.379  50.953  1.00  0.00     0.169 HD
BRANCH   8  10
HETATM   10  C6  UNL     1      20.530   0.935  51.772  1.00  0.00     0.034 A 
HETATM   11  C7  UNL     1      19.416   0.754  51.021  1.00  0.00     0.029 A 
HETATM   12  C8  UNL     1      18.345  -0.043  51.340  1.00  0.00     0.002 A 
HETATM   13  C9  UNL     1      18.379  -0.739  52.528  1.00  0.00     0.000 A 
HETATM   14  C10 UNL     1      19.493  -0.589  53.326  1.00  0.00     0.002 A 
HETATM   15  C11 UNL     1      20.539   0.228  52.955  1.00  0.00     0.029 A 
ENDBRANCH   8  10
ENDBRANCH   5   6
ENDBRANCH   1   5
BRANCH   1  16
HETATM   16  C12 UNL     1      24.416   3.067  53.214  1.00  0.00     0.159 C 
BRANCH  16  17
HETATM   17  C13 UNL     1      24.924   1.651  53.309  1.00  0.00    -0.006 A 
HETATM   18  C14 UNL     1      24.302   0.443  53.075  1.00  0.00     0.012 A 
HETATM   19  C15 UNL     1      24.996  -0.711  53.238  1.00  0.00     0.002 A 
HETATM   20  C16 UNL     1      26.317  -0.711  53.636  1.00  0.00     0.022 A 
HETATM   21  C17 UNL     1      26.983   0.494  53.884  1.00  0.00     0.044 A 
HETATM   22 BR1  UNL     1      28.789   0.396  54.424  1.00  0.00    -0.048 Br
HETATM   23  C18 UNL     1      26.252   1.666  53.710  1.00  0.00     0.090 A 
BRANCH  23  24
HETATM   24  O2  UNL     1      27.043   2.793  53.993  1.00  0.00    -0.359 OA
HETATM   25  H21 UNL     1      27.990   2.772  53.636  1.00  0.00     0.217 HD
ENDBRANCH  23  24
ENDBRANCH  16  17
ENDBRANCH   1  16
TORSDOF 8
ENDMDL
MODEL 7
REMARK VINA RESULT:      -6.7      2.554      5.445
REMARK  8 active torsions:
REMARK  status: ('A' for Active; 'I' for Inactive)
REMARK    1  A    between atoms: C2_2  and  C3_3 
REMARK    2  A    between atoms: C3_3  and  N1_4 
REMARK    3  A    between atoms: N1_4  and  C4_5 
REMARK    4  A    between atoms: N1_4  and  C12_15 
REMARK    5  A    between atoms: C4_5  and  C5_6 
REMARK       I    between atoms: C5_6  and  N2_8 
REMARK    6  A    between atoms: N2_8  and  C6_9 
REMARK    7  A    between atoms: C12_15  and  C13_16 
REMARK    8  A    between atoms: C18_22  and  O2_23 
ROOT
HETATM    1  N1  UNL     1      23.893   3.717  50.789  1.00  0.00    -0.400 N 
ENDROOT
BRANCH   1   2
HETATM    2  C3  UNL     1      23.029   3.696  49.704  1.00  0.00     0.117 C 
BRANCH   2   3
HETATM    3  C2  UNL     1      23.203   2.553  48.736  1.00  0.00     0.015 C 
HETATM    4  C1  UNL     1      21.948   1.712  48.770  1.00  0.00     0.006 C 
ENDBRANCH   2   3
ENDBRANCH   1   2
BRANCH   1   5
HETATM    5  C4  UNL     1      25.242   4.034  50.696  1.00  0.00     0.220 C 
BRANCH   5   6
HETATM    6  C5  UNL     1      26.180   2.980  51.106  1.00  0.00     0.239 C 
HETATM    7  O1  UNL     1      26.802   2.512  50.119  1.00  0.00    -0.271 OA
HETATM    8  N2  UNL     1      26.426   2.485  52.398  1.00  0.00    -0.326 N 
HETATM    9  H10 UNL     1      25.832   2.980  53.098  1.00  0.00     0.169 HD
BRANCH   8  10
HETATM   10  C6  UNL     1      27.326   1.470  52.793  1.00  0.00     0.034 A 
HETATM   11  C7  UNL     1      28.555   1.613  53.347  1.00  0.00     0.029 A 
HETATM   12  C8  UNL     1      29.403   0.596  53.709  1.00  0.00     0.002 A 
HETATM   13  C9  UNL     1      28.993  -0.703  53.503  1.00  0.00     0.000 A 
HETATM   14  C10 UNL     1      27.749  -0.899  52.942  1.00  0.00     0.002 A 
HETATM   15  C11 UNL     1      26.940   0.162  52.597  1.00  0.00     0.029 A 
ENDBRANCH   8  10
ENDBRANCH   5   6
ENDBRANCH   1   5
BRANCH   1  16
HETATM   16  C12 UNL     1      23.368   3.930  52.102  1.00  0.00     0.159 C 
BRANCH  16  17
HETATM   17  C13 UNL     1      22.127   3.085  52.248  1.00  0.00    -0.006 A 
HETATM   18  C14 UNL     1      20.805   3.352  51.963  1.00  0.00     0.012 A 
HETATM   19  C15 UNL     1      19.865   2.402  52.193  1.00  0.00     0.002 A 
HETATM   20  C16 UNL     1      20.196   1.166  52.708  1.00  0.00     0.022 A 
HETATM   21  C17 UNL     1      21.527   0.857  53.011  1.00  0.00     0.044 A 
HETATM   22 BR1  UNL     1      21.885  -0.859  53.713  1.00  0.00    -0.048 Br
HETATM   23  C18 UNL     1      22.475   1.846  52.767  1.00  0.00     0.090 A 
BRANCH  23  24
HETATM   24  O2  UNL     1      23.761   1.400  53.116  1.00  0.00    -0.359 OA
HETATM   25  H21 UNL     1      23.806   0.698  53.844  1.00  0.00     0.217 HD
ENDBRANCH  23  24
ENDBRANCH  16  17
ENDBRANCH   1  16
TORSDOF 8
ENDMDL
MODEL 8
REMARK VINA RESULT:      -6.6      2.415      5.586
REMARK  8 active torsions:
REMARK  status: ('A' for Active; 'I' for Inactive)
REMARK    1  A    between atoms: C2_2  and  C3_3 
REMARK    2  A    between atoms: C3_3  and  N1_4 
REMARK    3  A    between atoms: N1_4  and  C4_5 
REMARK    4  A    between atoms: N1_4  and  C12_15 
REMARK    5  A    between atoms: C4_5  and  C5_6 
REMARK       I    between atoms: C5_6  and  N2_8 
REMARK    6  A    between atoms: N2_8  and  C6_9 
REMARK    7  A    between atoms: C12_15  and  C13_16 
REMARK    8  A    between atoms: C18_22  and  O2_23 
ROOT
HETATM    1  N1  UNL     1      24.133   4.043  49.929  1.00  0.00    -0.400 N 
ENDROOT
BRANCH   1   2
HETATM    2  C3  UNL     1      23.738   4.245  48.615  1.00  0.00     0.117 C 
BRANCH   2   3
HETATM    3  C2  UNL     1      23.156   5.599  48.296  1.00  0.00     0.015 C 
HETATM    4  C1  UNL     1      22.246   5.450  47.099  1.00  0.00     0.006 C 
ENDBRANCH   2   3
ENDBRANCH   1   2
BRANCH   1   5
HETATM    5  C4  UNL     1      25.402   4.344  50.408  1.00  0.00     0.220 C 
BRANCH   5   6
HETATM    6  C5  UNL     1      26.210   3.200  50.853  1.00  0.00     0.239 C 
HETATM    7  O1  UNL     1      26.805   2.658  49.887  1.00  0.00    -0.271 OA
HETATM    8  N2  UNL     1      26.365   2.694  52.154  1.00  0.00    -0.326 N 
HETATM    9  H10 UNL     1      25.808   3.256  52.833  1.00  0.00     0.169 HD
BRANCH   8  10
HETATM   10  C6  UNL     1      27.139   1.592  52.582  1.00  0.00     0.034 A 
HETATM   11  C7  UNL     1      26.857   0.272  52.451  1.00  0.00     0.029 A 
HETATM   12  C8  UNL     1      27.636  -0.770  52.890  1.00  0.00     0.002 A 
HETATM   13  C9  UNL     1      28.822  -0.477  53.525  1.00  0.00     0.000 A 
HETATM   14  C10 UNL     1      29.154   0.853  53.681  1.00  0.00     0.002 A 
HETATM   15  C11 UNL     1      28.331   1.857  53.220  1.00  0.00     0.029 A 
ENDBRANCH   8  10
ENDBRANCH   5   6
ENDBRANCH   1   5
BRANCH   1  16
HETATM   16  C12 UNL     1      23.147   4.015  50.964  1.00  0.00     0.159 C 
BRANCH  16  17
HETATM   17  C13 UNL     1      22.471   2.668  50.924  1.00  0.00    -0.006 A 
HETATM   18  C14 UNL     1      21.622   2.102  49.997  1.00  0.00     0.012 A 
HETATM   19  C15 UNL     1      21.142   0.850  50.203  1.00  0.00     0.002 A 
HETATM   20  C16 UNL     1      21.482   0.121  51.323  1.00  0.00     0.022 A 
HETATM   21  C17 UNL     1      22.340   0.660  52.287  1.00  0.00     0.044 A 
HETATM   22 BR1  UNL     1      22.747  -0.411  53.787  1.00  0.00    -0.048 Br
HETATM   23  C18 UNL     1      22.821   1.946  52.056  1.00  0.00     0.090 A 
BRANCH  23  24
HETATM   24  O2  UNL     1      23.666   2.357  53.101  1.00  0.00    -0.359 OA
HETATM   25  H21 UNL     1      24.526   2.812  52.823  1.00  0.00     0.217 HD
ENDBRANCH  23  24
ENDBRANCH  16  17
ENDBRANCH   1  16
TORSDOF 8
ENDMDL
MODEL 9
REMARK VINA RESULT:      -6.6      2.498      5.776
REMARK  8 active torsions:
REMARK  status: ('A' for Active; 'I' for Inactive)
REMARK    1  A    between atoms: C2_2  and  C3_3 
REMARK    2  A    between atoms: C3_3  and  N1_4 
REMARK    3  A    between atoms: N1_4  and  C4_5 
REMARK    4  A    between atoms: N1_4  and  C12_15 
REMARK    5  A    between atoms: C4_5  and  C5_6 
REMARK       I    between atoms: C5_6  and  N2_8 
REMARK    6  A    between atoms: N2_8  and  C6_9 
REMARK    7  A    between atoms: C12_15  and  C13_16 
REMARK    8  A    between atoms: C18_22  and  O2_23 
ROOT
HETATM    1  N1  UNL     1      23.445   2.824  51.512  1.00  0.00    -0.400 N 
ENDROOT
BRANCH   1   2
HETATM    2  C3  UNL     1      22.792   3.822  52.219  1.00  0.00     0.117 C 
BRANCH   2   3
HETATM    3  C2  UNL     1      21.384   4.137  51.779  1.00  0.00     0.015 C 
HETATM    4  C1  UNL     1      20.456   3.128  52.416  1.00  0.00     0.006 C 
ENDBRANCH   2   3
ENDBRANCH   1   2
BRANCH   1   5
HETATM    5  C4  UNL     1      23.649   1.539  51.998  1.00  0.00     0.220 C 
BRANCH   5   6
HETATM    6  C5  UNL     1      24.979   1.267  52.559  1.00  0.00     0.239 C 
HETATM    7  O1  UNL     1      25.255   2.065  53.491  1.00  0.00    -0.271 OA
HETATM    8  N2  UNL     1      25.901   0.277  52.180  1.00  0.00    -0.326 N 
HETATM    9  H10 UNL     1      25.518  -0.298  51.398  1.00  0.00     0.169 HD
BRANCH   8  10
HETATM   10  C6  UNL     1      27.182   0.017  52.717  1.00  0.00     0.034 A 
HETATM   11  C7  UNL     1      28.096   0.911  53.167  1.00  0.00     0.029 A 
HETATM   12  C8  UNL     1      29.336   0.615  53.675  1.00  0.00     0.002 A 
HETATM   13  C9  UNL     1      29.715  -0.707  53.749  1.00  0.00     0.000 A 
HETATM   14  C10 UNL     1      28.817  -1.655  53.304  1.00  0.00     0.002 A 
HETATM   15  C11 UNL     1      27.585  -1.298  52.802  1.00  0.00     0.029 A 
ENDBRANCH   8  10
ENDBRANCH   5   6
ENDBRANCH   1   5
BRANCH   1  16
HETATM   16  C12 UNL     1      23.480   2.882  50.083  1.00  0.00     0.159 C 
BRANCH  16  17
HETATM   17  C13 UNL     1      24.731   3.624  49.680  1.00  0.00    -0.006 A 
HETATM   18  C14 UNL     1      26.062   3.275  49.761  1.00  0.00     0.012 A 
HETATM   19  C15 UNL     1      27.009   4.140  49.322  1.00  0.00     0.002 A 
HETATM   20  C16 UNL     1      26.676   5.371  48.794  1.00  0.00     0.022 A 
HETATM   21  C17 UNL     1      25.337   5.761  48.696  1.00  0.00     0.044 A 
HETATM   22 BR1  UNL     1      24.977   7.462  47.960  1.00  0.00    -0.048 Br
HETATM   23  C18 UNL     1      24.381   4.858  49.152  1.00  0.00     0.090 A 
BRANCH  23  24
HETATM   24  O2  UNL     1      23.086   5.380  48.993  1.00  0.00    -0.359 OA
HETATM   25  H21 UNL     1      22.327   4.715  49.065  1.00  0.00     0.217 HD
ENDBRANCH  23  24
ENDBRANCH  16  17
ENDBRANCH   1  16
TORSDOF 8
ENDMDL
