MODEL 1
REMARK VINA RESULT:      -8.9      0.000      0.000
REMARK  6 active torsions:
REMARK  status: ('A' for Active; 'I' for Inactive)
REMARK    1  A    between atoms: C2_2  and  C3_3 
REMARK    2  A    between atoms: C7_7  and  N1_8 
REMARK       I    between atoms: N1_8  and  C8_9 
REMARK    3  A    between atoms: C8_9  and  C9_11 
REMARK    4  A    between atoms: C10_12  and  C11_13 
REMARK    5  A    between atoms: C11_13  and  N2_14 
REMARK    6  A    between atoms: N2_14  and  C12_15 
ROOT
HETATM    1  N1  UNL     1      29.325   5.913  48.932  1.00  0.00    -0.323 N 
HETATM    2  C8  UNL     1      28.030   6.080  48.373  1.00  0.00     0.245 C 
HETATM    3  O1  UNL     1      27.548   6.825  47.486  1.00  0.00    -0.268 OA
HETATM    4  H8  UNL     1      29.469   5.203  49.680  1.00  0.00     0.169 HD
ENDROOT
BRANCH   2   5
HETATM    5  C9  UNL     1      26.965   5.231  48.891  1.00  0.00     0.072 C 
HETATM    6  C10 UNL     1      26.709   4.093  49.511  1.00  0.00    -0.002 C 
BRANCH   6   7
HETATM    7  C11 UNL     1      25.915   3.035  50.124  1.00  0.00     0.147 C 
BRANCH   7   8
HETATM    8  N2  UNL     1      26.174   3.023  51.550  1.00  0.00    -0.386 N 
HETATM    9  H13 UNL     1      25.795   3.809  52.117  1.00  0.00     0.160 HD
BRANCH   8  10
HETATM   10  C12 UNL     1      26.911   2.001  52.199  1.00  0.00     0.029 A 
HETATM   11  C13 UNL     1      27.974   2.208  53.048  1.00  0.00     0.032 A 
HETATM   12  C14 UNL     1      28.674   1.191  53.666  1.00  0.00     0.046 A 
HETATM   13  C15 UNL     1      28.316  -0.117  53.441  1.00  0.00     0.138 A 
HETATM   14  F1  UNL     1      29.029  -1.080  54.067  1.00  0.00    -0.204 F 
HETATM   15  C16 UNL     1      27.254  -0.378  52.596  1.00  0.00     0.074 A 
HETATM   16 CL1  UNL     1      26.824  -2.030  52.330  1.00  0.00    -0.081 Cl
HETATM   17  C17 UNL     1      26.600   0.685  52.012  1.00  0.00     0.056 A 
ENDBRANCH   8  10
ENDBRANCH   7   8
ENDBRANCH   6   7
ENDBRANCH   2   5
BRANCH   1  18
HETATM   18  C7  UNL     1      30.405   6.685  48.494  1.00  0.00     0.049 A 
HETATM   19  C6  UNL     1      31.422   6.130  47.731  1.00  0.00     0.019 A 
HETATM   20  C5  UNL     1      31.396   4.792  47.383  1.00  0.00     0.017 A 
HETATM   21  C20 UNL     1      32.466   6.967  47.334  1.00  0.00     0.069 A 
HETATM   22  C4  UNL     1      32.414   4.286  46.634  1.00  0.00     0.008 A 
HETATM   23  C3  UNL     1      33.459   5.063  46.218  1.00  0.00    -0.056 A 
HETATM   24  C21 UNL     1      33.488   6.399  46.565  1.00  0.00     0.039 A 
HETATM   25  N3  UNL     1      32.535   8.277  47.649  1.00  0.00    -0.260 NA
HETATM   26  C19 UNL     1      31.566   8.851  48.387  1.00  0.00     0.119 A 
HETATM   27  C18 UNL     1      30.520   8.023  48.789  1.00  0.00     0.050 A 
BRANCH  23  28
HETATM   28  C2  UNL     1      34.590   4.566  45.404  1.00  0.00     0.034 C 
HETATM   29  C1  UNL     1      35.092   3.225  45.914  1.00  0.00     0.010 C 
ENDBRANCH  23  28
ENDBRANCH   1  18
TORSDOF 6
ENDMDL
MODEL 2
REMARK VINA RESULT:      -8.8      3.412      5.484
REMARK  6 active torsions:
REMARK  status: ('A' for Active; 'I' for Inactive)
REMARK    1  A    between atoms: C2_2  and  C3_3 
REMARK    2  A    between atoms: C7_7  and  N1_8 
REMARK       I    between atoms: N1_8  and  C8_9 
REMARK    3  A    between atoms: C8_9  and  C9_11 
REMARK    4  A    between atoms: C10_12  and  C11_13 
REMARK    5  A    between atoms: C11_13  and  N2_14 
REMARK    6  A    between atoms: N2_14  and  C12_15 
ROOT
HETATM    1  N1  UNL     1      23.934   4.302  50.764  1.00  0.00    -0.323 N 
HETATM    2  C8  UNL     1      23.669   3.924  52.108  1.00  0.00     0.245 C 
HETATM    3  O1  UNL     1      23.747   4.511  53.214  1.00  0.00    -0.268 OA
HETATM    4  H8  UNL     1      23.785   3.608  50.002  1.00  0.00     0.169 HD
ENDROOT
BRANCH   2   5
HETATM    5  C9  UNL     1      23.195   2.565  52.338  1.00  0.00     0.072 C 
HETATM    6  C10 UNL     1      23.554   1.362  52.749  1.00  0.00    -0.002 C 
BRANCH   6   7
HETATM    7  C11 UNL     1      23.416  -0.051  53.083  1.00  0.00     0.147 C 
BRANCH   7   8
HETATM    8  N2  UNL     1      24.411  -0.395  54.079  1.00  0.00    -0.386 N 
HETATM    9  H13 UNL     1      24.086  -0.532  55.058  1.00  0.00     0.160 HD
BRANCH   8  10
HETATM   10  C12 UNL     1      25.787  -0.550  53.783  1.00  0.00     0.029 A 
HETATM   11  C13 UNL     1      26.322  -1.547  53.001  1.00  0.00     0.032 A 
HETATM   12  C14 UNL     1      27.670  -1.673  52.730  1.00  0.00     0.046 A 
HETATM   13  C15 UNL     1      28.559  -0.767  53.258  1.00  0.00     0.138 A 
HETATM   14  F1  UNL     1      29.869  -0.928  52.967  1.00  0.00    -0.204 F 
HETATM   15  C16 UNL     1      28.072   0.254  54.051  1.00  0.00     0.074 A 
HETATM   16 CL1  UNL     1      29.209   1.380  54.704  1.00  0.00    -0.081 Cl
HETATM   17  C17 UNL     1      26.715   0.320  54.281  1.00  0.00     0.056 A 
ENDBRANCH   8  10
ENDBRANCH   7   8
ENDBRANCH   6   7
ENDBRANCH   2   5
BRANCH   1  18
HETATM   18  C7  UNL     1      24.391   5.586  50.452  1.00  0.00     0.049 A 
HETATM   19  C6  UNL     1      25.576   5.776  49.757  1.00  0.00     0.019 A 
HETATM   20  C5  UNL     1      26.341   4.697  49.352  1.00  0.00     0.017 A 
HETATM   21  C20 UNL     1      25.964   7.089  49.485  1.00  0.00     0.069 A 
HETATM   22  C4  UNL     1      27.498   4.928  48.672  1.00  0.00     0.008 A 
HETATM   23  C3  UNL     1      27.922   6.194  48.379  1.00  0.00    -0.056 A 
HETATM   24  C21 UNL     1      27.161   7.272  48.783  1.00  0.00     0.039 A 
HETATM   25  N3  UNL     1      25.252   8.171  49.859  1.00  0.00    -0.260 NA
HETATM   26  C19 UNL     1      24.097   8.025  50.535  1.00  0.00     0.119 A 
HETATM   27  C18 UNL     1      23.701   6.719  50.812  1.00  0.00     0.050 A 
BRANCH  23  28
HETATM   28  C2  UNL     1      29.169   6.501  47.645  1.00  0.00     0.034 C 
HETATM   29  C1  UNL     1      30.240   5.456  47.910  1.00  0.00     0.010 C 
ENDBRANCH  23  28
ENDBRANCH   1  18
TORSDOF 6
ENDMDL
MODEL 3
REMARK VINA RESULT:      -8.6      4.641      9.122
REMARK  6 active torsions:
REMARK  status: ('A' for Active; 'I' for Inactive)
REMARK    1  A    between atoms: C2_2  and  C3_3 
REMARK    2  A    between atoms: C7_7  and  N1_8 
REMARK       I    between atoms: N1_8  and  C8_9 
REMARK    3  A    between atoms: C8_9  and  C9_11 
REMARK    4  A    between atoms: C10_12  and  C11_13 
REMARK    5  A    between atoms: C11_13  and  N2_14 
REMARK    6  A    between atoms: N2_14  and  C12_15 
ROOT
HETATM    1  N1  UNL     1      23.330   3.004  51.619  1.00  0.00    -0.323 N 
HETATM    2  C8  UNL     1      23.544   4.253  52.261  1.00  0.00     0.245 C 
HETATM    3  O1  UNL     1      23.780   4.600  53.443  1.00  0.00    -0.268 OA
HETATM    4  H8  UNL     1      23.149   2.983  50.593  1.00  0.00     0.169 HD
ENDROOT
BRANCH   2   5
HETATM    5  C9  UNL     1      23.495   5.449  51.428  1.00  0.00     0.072 C 
HETATM    6  C10 UNL     1      24.209   6.454  50.957  1.00  0.00    -0.002 C 
BRANCH   6   7
HETATM    7  C11 UNL     1      24.504   7.672  50.212  1.00  0.00     0.147 C 
BRANCH   7   8
HETATM    8  N2  UNL     1      24.990   7.310  48.896  1.00  0.00    -0.386 N 
HETATM    9  H13 UNL     1      24.377   7.516  48.081  1.00  0.00     0.160 HD
BRANCH   8  10
HETATM   10  C12 UNL     1      26.247   6.695  48.672  1.00  0.00     0.029 A 
HETATM   11  C13 UNL     1      26.518   5.358  48.852  1.00  0.00     0.032 A 
HETATM   12  C14 UNL     1      27.754   4.786  48.627  1.00  0.00     0.046 A 
HETATM   13  C15 UNL     1      28.799   5.570  48.197  1.00  0.00     0.138 A 
HETATM   14  F1  UNL     1      29.992   4.969  47.988  1.00  0.00    -0.204 F 
HETATM   15  C16 UNL     1      28.578   6.920  48.000  1.00  0.00     0.074 A 
HETATM   16 CL1  UNL     1      29.907   7.883  47.460  1.00  0.00    -0.081 Cl
HETATM   17  C17 UNL     1      27.319   7.424  48.245  1.00  0.00     0.056 A 
ENDBRANCH   8  10
ENDBRANCH   7   8
ENDBRANCH   6   7
ENDBRANCH   2   5
BRANCH   1  18
HETATM   18  C7  UNL     1      23.360   1.807  52.340  1.00  0.00     0.049 A 
HETATM   19  C6  UNL     1      24.534   1.082  52.480  1.00  0.00     0.019 A 
HETATM   20  C5  UNL     1      25.712   1.525  51.906  1.00  0.00     0.017 A 
HETATM   21  C20 UNL     1      24.481  -0.103  53.214  1.00  0.00     0.069 A 
HETATM   22  C4  UNL     1      26.843   0.783  52.066  1.00  0.00     0.008 A 
HETATM   23  C3  UNL     1      26.845  -0.385  52.777  1.00  0.00    -0.056 A 
HETATM   24  C21 UNL     1      25.670  -0.829  53.350  1.00  0.00     0.039 A 
HETATM   25  N3  UNL     1      23.357  -0.575  53.792  1.00  0.00    -0.260 NA
HETATM   26  C19 UNL     1      22.198   0.102  53.678  1.00  0.00     0.119 A 
HETATM   27  C18 UNL     1      22.241   1.286  52.946  1.00  0.00     0.050 A 
BRANCH  23  28
HETATM   28  C2  UNL     1      28.042  -1.228  52.982  1.00  0.00     0.034 C 
HETATM   29  C1  UNL     1      29.116  -0.487  53.762  1.00  0.00     0.010 C 
ENDBRANCH  23  28
ENDBRANCH   1  18
TORSDOF 6
ENDMDL
MODEL 4
REMARK VINA RESULT:      -8.5      5.320     10.454
REMARK  6 active torsions:
REMARK  status: ('A' for Active; 'I' for Inactive)
REMARK    1  A    between atoms: C2_2  and  C3_3 
REMARK    2  A    between atoms: C7_7  and  N1_8 
REMARK       I    between atoms: N1_8  and  C8_9 
REMARK    3  A    between atoms: C8_9  and  C9_11 
REMARK    4  A    between atoms: C10_12  and  C11_13 
REMARK    5  A    between atoms: C11_13  and  N2_14 
REMARK    6  A    between atoms: N2_14  and  C12_15 
ROOT
HETATM    1  N1  UNL     1      26.160   3.245  51.391  1.00  0.00    -0.323 N 
HETATM    2  C8  UNL     1      26.445   3.313  50.001  1.00  0.00     0.245 C 
HETATM    3  O1  UNL     1      26.719   2.462  49.121  1.00  0.00    -0.268 OA
HETATM    4  H8  UNL     1      25.958   4.123  51.913  1.00  0.00     0.169 HD
ENDROOT
BRANCH   2   5
HETATM    5  C9  UNL     1      26.436   4.633  49.382  1.00  0.00     0.072 C 
HETATM    6  C10 UNL     1      27.204   5.602  48.919  1.00  0.00    -0.002 C 
BRANCH   6   7
HETATM    7  C11 UNL     1      27.548   6.883  48.313  1.00  0.00     0.147 C 
BRANCH   7   8
HETATM    8  N2  UNL     1      27.866   7.828  49.365  1.00  0.00    -0.386 N 
HETATM    9  H13 UNL     1      27.405   7.694  50.289  1.00  0.00     0.160 HD
BRANCH   8  10
HETATM   10  C12 UNL     1      28.763   8.911  49.195  1.00  0.00     0.029 A 
HETATM   11  C13 UNL     1      30.125   8.794  49.038  1.00  0.00     0.032 A 
HETATM   12  C14 UNL     1      30.975   9.869  48.875  1.00  0.00     0.046 A 
HETATM   13  C15 UNL     1      30.465  11.146  48.864  1.00  0.00     0.138 A 
HETATM   14  F1  UNL     1      31.334  12.169  48.701  1.00  0.00    -0.204 F 
HETATM   15  C16 UNL     1      29.103  11.316  49.017  1.00  0.00     0.074 A 
HETATM   16 CL1  UNL     1      28.486  12.931  49.000  1.00  0.00    -0.081 Cl
HETATM   17  C17 UNL     1      28.312  10.199  49.177  1.00  0.00     0.056 A 
ENDBRANCH   8  10
ENDBRANCH   7   8
ENDBRANCH   6   7
ENDBRANCH   2   5
BRANCH   1  18
HETATM   18  C7  UNL     1      26.147   2.020  52.066  1.00  0.00     0.049 A 
HETATM   19  C6  UNL     1      24.953   1.408  52.418  1.00  0.00     0.019 A 
HETATM   20  C5  UNL     1      23.739   1.994  52.110  1.00  0.00     0.017 A 
HETATM   21  C20 UNL     1      25.025   0.187  53.091  1.00  0.00     0.069 A 
HETATM   22  C4  UNL     1      22.590   1.360  52.474  1.00  0.00     0.008 A 
HETATM   23  C3  UNL     1      22.605   0.162  53.134  1.00  0.00    -0.056 A 
HETATM   24  C21 UNL     1      23.816  -0.424  53.443  1.00  0.00     0.039 A 
HETATM   25  N3  UNL     1      26.184  -0.422  53.412  1.00  0.00    -0.260 NA
HETATM   26  C19 UNL     1      27.363   0.142  53.086  1.00  0.00     0.119 A 
HETATM   27  C18 UNL     1      27.301   1.361  52.415  1.00  0.00     0.050 A 
BRANCH  23  28
HETATM   28  C2  UNL     1      21.389  -0.569  53.552  1.00  0.00     0.034 C 
HETATM   29  C1  UNL     1      21.723  -1.689  54.524  1.00  0.00     0.010 C 
ENDBRANCH  23  28
ENDBRANCH   1  18
TORSDOF 6
ENDMDL
MODEL 5
REMARK VINA RESULT:      -8.4      3.123      8.428
REMARK  6 active torsions:
REMARK  status: ('A' for Active; 'I' for Inactive)
REMARK    1  A    between atoms: C2_2  and  C3_3 
REMARK    2  A    between atoms: C7_7  and  N1_8 
REMARK       I    between atoms: N1_8  and  C8_9 
REMARK    3  A    between atoms: C8_9  and  C9_11 
REMARK    4  A    between atoms: C10_12  and  C11_13 
REMARK    5  A    between atoms: C11_13  and  N2_14 
REMARK    6  A    between atoms: N2_14  and  C12_15 
ROOT
HETATM    1  N1  UNL     1      26.180   4.007  49.237  1.00  0.00    -0.323 N 
HETATM    2  C8  UNL     1      26.197   5.423  49.350  1.00  0.00     0.245 C 
HETATM    3  O1  UNL     1      25.496   6.261  49.968  1.00  0.00    -0.268 OA
HETATM    4  H8  UNL     1      26.894   3.536  48.642  1.00  0.00     0.169 HD
ENDROOT
BRANCH   2   5
HETATM    5  C9  UNL     1      27.231   6.140  48.614  1.00  0.00     0.072 C 
HETATM    6  C10 UNL     1      28.481   6.079  48.192  1.00  0.00    -0.002 C 
BRANCH   6   7
HETATM    7  C11 UNL     1      29.708   6.507  47.531  1.00  0.00     0.147 C 
BRANCH   7   8
HETATM    8  N2  UNL     1      30.803   6.422  48.476  1.00  0.00    -0.386 N 
HETATM    9  H13 UNL     1      30.728   6.978  49.353  1.00  0.00     0.160 HD
BRANCH   8  10
HETATM   10  C12 UNL     1      31.956   5.627  48.263  1.00  0.00     0.029 A 
HETATM   11  C13 UNL     1      33.246   6.011  48.547  1.00  0.00     0.032 A 
HETATM   12  C14 UNL     1      34.352   5.214  48.328  1.00  0.00     0.046 A 
HETATM   13  C15 UNL     1      34.191   3.957  47.795  1.00  0.00     0.138 A 
HETATM   14  F1  UNL     1      35.301   3.211  47.597  1.00  0.00    -0.204 F 
HETATM   15  C16 UNL     1      32.915   3.525  47.492  1.00  0.00     0.074 A 
HETATM   16 CL1  UNL     1      32.739   1.941  46.822  1.00  0.00    -0.081 Cl
HETATM   17  C17 UNL     1      31.856   4.372  47.736  1.00  0.00     0.056 A 
ENDBRANCH   8  10
ENDBRANCH   7   8
ENDBRANCH   6   7
ENDBRANCH   2   5
BRANCH   1  18
HETATM   18  C7  UNL     1      25.224   3.241  49.909  1.00  0.00     0.049 A 
HETATM   19  C6  UNL     1      25.568   2.460  51.002  1.00  0.00     0.019 A 
HETATM   20  C5  UNL     1      26.873   2.418  51.459  1.00  0.00     0.017 A 
HETATM   21  C20 UNL     1      24.556   1.723  51.617  1.00  0.00     0.069 A 
HETATM   22  C4  UNL     1      27.170   1.638  52.535  1.00  0.00     0.008 A 
HETATM   23  C3  UNL     1      26.215   0.898  53.174  1.00  0.00    -0.056 A 
HETATM   24  C21 UNL     1      24.912   0.938  52.720  1.00  0.00     0.039 A 
HETATM   25  N3  UNL     1      23.270   1.732  51.208  1.00  0.00    -0.260 NA
HETATM   26  C19 UNL     1      22.898   2.479  50.151  1.00  0.00     0.119 A 
HETATM   27  C18 UNL     1      23.902   3.217  49.530  1.00  0.00     0.050 A 
BRANCH  23  28
HETATM   28  C2  UNL     1      26.482   0.035  54.345  1.00  0.00     0.034 C 
HETATM   29  C1  UNL     1      27.915   0.186  54.830  1.00  0.00     0.010 C 
ENDBRANCH  23  28
ENDBRANCH   1  18
TORSDOF 6
ENDMDL
MODEL 6
REMARK VINA RESULT:      -8.4      5.459      9.769
REMARK  6 active torsions:
REMARK  status: ('A' for Active; 'I' for Inactive)
REMARK    1  A    between atoms: C2_2  and  C3_3 
REMARK    2  A    between atoms: C7_7  and  N1_8 
REMARK       I    between atoms: N1_8  and  C8_9 
REMARK    3  A    between atoms: C8_9  and  C9_11 
REMARK    4  A    between atoms: C10_12  and  C11_13 
REMARK    5  A    between atoms: C11_13  and  N2_14 
REMARK    6  A    between atoms: N2_14  and  C12_15 
ROOT
HETATM    1  N1  UNL     1      25.026   3.793  51.629  1.00  0.00    -0.323 N 
HETATM    2  C8  UNL     1      25.001   4.062  50.234  1.00  0.00     0.245 C 
HETATM    3  O1  UNL     1      24.614   3.423  49.226  1.00  0.00    -0.268 OA
HETATM    4  H8  UNL     1      25.410   4.510  52.279  1.00  0.00     0.169 HD
ENDROOT
BRANCH   2   5
HETATM    5  C9  UNL     1      25.525   5.348  49.793  1.00  0.00     0.072 C 
HETATM    6  C10 UNL     1      26.477   5.931  49.087  1.00  0.00    -0.002 C 
BRANCH   6   7
HETATM    7  C11 UNL     1      27.244   7.015  48.484  1.00  0.00     0.147 C 
BRANCH   7   8
HETATM    8  N2  UNL     1      27.673   7.922  49.530  1.00  0.00    -0.386 N 
HETATM    9  H13 UNL     1      27.299   7.765  50.488  1.00  0.00     0.160 HD
BRANCH   8  10
HETATM   10  C12 UNL     1      28.565   9.000  49.308  1.00  0.00     0.029 A 
HETATM   11  C13 UNL     1      29.932   8.886  49.194  1.00  0.00     0.032 A 
HETATM   12  C14 UNL     1      30.777   9.956  48.979  1.00  0.00     0.046 A 
HETATM   13  C15 UNL     1      30.258  11.224  48.867  1.00  0.00     0.138 A 
HETATM   14  F1  UNL     1      31.122  12.241  48.656  1.00  0.00    -0.204 F 
HETATM   15  C16 UNL     1      28.890  11.391  48.973  1.00  0.00     0.074 A 
HETATM   16 CL1  UNL     1      28.261  12.994  48.830  1.00  0.00    -0.081 Cl
HETATM   17  C17 UNL     1      28.105  10.279  49.189  1.00  0.00     0.056 A 
ENDBRANCH   8  10
ENDBRANCH   7   8
ENDBRANCH   6   7
ENDBRANCH   2   5
BRANCH   1  18
HETATM   18  C7  UNL     1      24.543   2.584  52.139  1.00  0.00     0.049 A 
HETATM   19  C6  UNL     1      25.389   1.506  52.352  1.00  0.00     0.019 A 
HETATM   20  C5  UNL     1      26.739   1.597  52.064  1.00  0.00     0.017 A 
HETATM   21  C20 UNL     1      24.830   0.334  52.864  1.00  0.00     0.069 A 
HETATM   22  C4  UNL     1      27.535   0.516  52.288  1.00  0.00     0.008 A 
HETATM   23  C3  UNL     1      27.038  -0.655  52.788  1.00  0.00    -0.056 A 
HETATM   24  C21 UNL     1      25.691  -0.749  53.076  1.00  0.00     0.039 A 
HETATM   25  N3  UNL     1      23.521   0.197  53.160  1.00  0.00    -0.260 NA
HETATM   26  C19 UNL     1      22.670   1.222  52.967  1.00  0.00     0.119 A 
HETATM   27  C18 UNL     1      23.219   2.396  52.456  1.00  0.00     0.050 A 
BRANCH  23  28
HETATM   28  C2  UNL     1      27.857  -1.859  53.049  1.00  0.00     0.034 C 
HETATM   29  C1  UNL     1      29.293  -1.490  53.383  1.00  0.00     0.010 C 
ENDBRANCH  23  28
ENDBRANCH   1  18
TORSDOF 6
ENDMDL
MODEL 7
REMARK VINA RESULT:      -8.4      5.939     11.301
REMARK  6 active torsions:
REMARK  status: ('A' for Active; 'I' for Inactive)
REMARK    1  A    between atoms: C2_2  and  C3_3 
REMARK    2  A    between atoms: C7_7  and  N1_8 
REMARK       I    between atoms: N1_8  and  C8_9 
REMARK    3  A    between atoms: C8_9  and  C9_11 
REMARK    4  A    between atoms: C10_12  and  C11_13 
REMARK    5  A    between atoms: C11_13  and  N2_14 
REMARK    6  A    between atoms: N2_14  and  C12_15 
ROOT
HETATM    1  N1  UNL     1      25.012   0.416  52.460  1.00  0.00    -0.323 N 
HETATM    2  C8  UNL     1      25.343   1.794  52.557  1.00  0.00     0.245 C 
HETATM    3  O1  UNL     1      25.057   2.708  53.367  1.00  0.00    -0.268 OA
HETATM    4  H8  UNL     1      25.390  -0.143  51.666  1.00  0.00     0.169 HD
ENDROOT
BRANCH   2   5
HETATM    5  C9  UNL     1      26.206   2.348  51.520  1.00  0.00     0.072 C 
HETATM    6  C10 UNL     1      26.248   3.179  50.495  1.00  0.00    -0.002 C 
BRANCH   6   7
HETATM    7  C11 UNL     1      26.816   3.911  49.369  1.00  0.00     0.147 C 
BRANCH   7   8
HETATM    8  N2  UNL     1      26.787   5.328  49.670  1.00  0.00    -0.386 N 
HETATM    9  H13 UNL     1      27.692   5.793  49.890  1.00  0.00     0.160 HD
BRANCH   8  10
HETATM   10  C12 UNL     1      25.598   6.098  49.680  1.00  0.00     0.029 A 
HETATM   11  C13 UNL     1      25.254   7.011  50.649  1.00  0.00     0.032 A 
HETATM   12  C14 UNL     1      24.086   7.748  50.633  1.00  0.00     0.046 A 
HETATM   13  C15 UNL     1      23.192   7.584  49.601  1.00  0.00     0.138 A 
HETATM   14  F1  UNL     1      22.062   8.325  49.625  1.00  0.00    -0.204 F 
HETATM   15  C16 UNL     1      23.492   6.678  48.602  1.00  0.00     0.074 A 
HETATM   16 CL1  UNL     1      22.352   6.490  47.317  1.00  0.00    -0.081 Cl
HETATM   17  C17 UNL     1      24.675   5.976  48.682  1.00  0.00     0.056 A 
ENDBRANCH   8  10
ENDBRANCH   7   8
ENDBRANCH   6   7
ENDBRANCH   2   5
BRANCH   1  18
HETATM   18  C7  UNL     1      24.191  -0.198  53.410  1.00  0.00     0.049 A 
HETATM   19  C6  UNL     1      22.818  -0.274  53.230  1.00  0.00     0.019 A 
HETATM   20  C5  UNL     1      22.221   0.258  52.101  1.00  0.00     0.017 A 
HETATM   21  C20 UNL     1      22.067  -0.902  54.225  1.00  0.00     0.069 A 
HETATM   22  C4  UNL     1      20.870   0.163  51.963  1.00  0.00     0.008 A 
HETATM   23  C3  UNL     1      20.089  -0.443  52.908  1.00  0.00    -0.056 A 
HETATM   24  C21 UNL     1      20.682  -0.974  54.035  1.00  0.00     0.039 A 
HETATM   25  N3  UNL     1      22.604  -1.435  55.342  1.00  0.00    -0.260 NA
HETATM   26  C19 UNL     1      23.933  -1.381  55.550  1.00  0.00     0.119 A 
HETATM   27  C18 UNL     1      24.691  -0.755  54.563  1.00  0.00     0.050 A 
BRANCH  23  28
HETATM   28  C2  UNL     1      18.619  -0.573  52.809  1.00  0.00     0.034 C 
HETATM   29  C1  UNL     1      18.123  -1.815  53.532  1.00  0.00     0.010 C 
ENDBRANCH  23  28
ENDBRANCH   1  18
TORSDOF 6
ENDMDL
MODEL 8
REMARK VINA RESULT:      -8.3      1.947      2.229
REMARK  6 active torsions:
REMARK  status: ('A' for Active; 'I' for Inactive)
REMARK    1  A    between atoms: C2_2  and  C3_3 
REMARK    2  A    between atoms: C7_7  and  N1_8 
REMARK       I    between atoms: N1_8  and  C8_9 
REMARK    3  A    between atoms: C8_9  and  C9_11 
REMARK    4  A    between atoms: C10_12  and  C11_13 
REMARK    5  A    between atoms: C11_13  and  N2_14 
REMARK    6  A    between atoms: N2_14  and  C12_15 
ROOT
HETATM    1  N1  UNL     1      29.660   5.864  48.952  1.00  0.00    -0.323 N 
HETATM    2  C8  UNL     1      28.475   6.200  48.243  1.00  0.00     0.245 C 
HETATM    3  O1  UNL     1      28.210   6.990  47.305  1.00  0.00    -0.268 OA
HETATM    4  H8  UNL     1      29.614   5.153  49.711  1.00  0.00     0.169 HD
ENDROOT
BRANCH   2   5
HETATM    5  C9  UNL     1      27.248   5.515  48.631  1.00  0.00     0.072 C 
HETATM    6  C10 UNL     1      26.756   4.535  49.366  1.00  0.00    -0.002 C 
BRANCH   6   7
HETATM    7  C11 UNL     1      25.752   3.653  49.949  1.00  0.00     0.147 C 
BRANCH   7   8
HETATM    8  N2  UNL     1      26.349   2.929  51.053  1.00  0.00    -0.386 N 
HETATM    9  H13 UNL     1      27.323   3.178  51.323  1.00  0.00     0.160 HD
BRANCH   8  10
HETATM   10  C12 UNL     1      25.676   1.910  51.771  1.00  0.00     0.029 A 
HETATM   11  C13 UNL     1      26.278   0.809  52.335  1.00  0.00     0.032 A 
HETATM   12  C14 UNL     1      25.596  -0.170  53.029  1.00  0.00     0.046 A 
HETATM   13  C15 UNL     1      24.233  -0.071  53.184  1.00  0.00     0.138 A 
HETATM   14  F1  UNL     1      23.605  -1.052  53.871  1.00  0.00    -0.204 F 
HETATM   15  C16 UNL     1      23.581   1.017  52.636  1.00  0.00     0.074 A 
HETATM   16 CL1  UNL     1      21.869   1.118  52.844  1.00  0.00    -0.081 Cl
HETATM   17  C17 UNL     1      24.324   1.956  51.955  1.00  0.00     0.056 A 
ENDBRANCH   8  10
ENDBRANCH   7   8
ENDBRANCH   6   7
ENDBRANCH   2   5
BRANCH   1  18
HETATM   18  C7  UNL     1      30.881   6.472  48.645  1.00  0.00     0.049 A 
HETATM   19  C6  UNL     1      31.861   5.795  47.936  1.00  0.00     0.019 A 
HETATM   20  C5  UNL     1      31.658   4.495  47.511  1.00  0.00     0.017 A 
HETATM   21  C20 UNL     1      33.053   6.471  47.671  1.00  0.00     0.069 A 
HETATM   22  C4  UNL     1      32.646   3.865  46.818  1.00  0.00     0.008 A 
HETATM   23  C3  UNL     1      33.832   4.483  46.531  1.00  0.00    -0.056 A 
HETATM   24  C21 UNL     1      34.038   5.780  46.955  1.00  0.00     0.039 A 
HETATM   25  N3  UNL     1      33.298   7.738  48.064  1.00  0.00    -0.260 NA
HETATM   26  C19 UNL     1      32.369   8.427  48.754  1.00  0.00     0.119 A 
HETATM   27  C18 UNL     1      31.176   7.760  49.024  1.00  0.00     0.050 A 
BRANCH  23  28
HETATM   28  C2  UNL     1      34.938   3.847  45.783  1.00  0.00     0.034 C 
HETATM   29  C1  UNL     1      34.958   4.300  44.332  1.00  0.00     0.010 C 
ENDBRANCH  23  28
ENDBRANCH   1  18
TORSDOF 6
ENDMDL
MODEL 9
REMARK VINA RESULT:      -8.2      4.046     10.002
REMARK  6 active torsions:
REMARK  status: ('A' for Active; 'I' for Inactive)
REMARK    1  A    between atoms: C2_2  and  C3_3 
REMARK    2  A    between atoms: C7_7  and  N1_8 
REMARK       I    between atoms: N1_8  and  C8_9 
REMARK    3  A    between atoms: C8_9  and  C9_11 
REMARK    4  A    between atoms: C10_12  and  C11_13 
REMARK    5  A    between atoms: C11_13  and  N2_14 
REMARK    6  A    between atoms: N2_14  and  C12_15 
ROOT
HETATM    1  N1  UNL     1      25.755   2.983  51.608  1.00  0.00    -0.323 N 
HETATM    2  C8  UNL     1      26.295   3.142  50.304  1.00  0.00     0.245 C 
HETATM    3  O1  UNL     1      26.881   2.377  49.500  1.00  0.00    -0.268 OA
HETATM    4  H8  UNL     1      25.305   3.799  52.075  1.00  0.00     0.169 HD
ENDROOT
BRANCH   2   5
HETATM    5  C9  UNL     1      26.184   4.459  49.691  1.00  0.00     0.072 C 
HETATM    6  C10 UNL     1      26.853   5.402  49.053  1.00  0.00    -0.002 C 
BRANCH   6   7
HETATM    7  C11 UNL     1      27.087   6.670  48.371  1.00  0.00     0.147 C 
BRANCH   7   8
HETATM    8  N2  UNL     1      28.383   7.182  48.769  1.00  0.00    -0.386 N 
HETATM    9  H13 UNL     1      28.433   7.740  49.646  1.00  0.00     0.160 HD
BRANCH   8  10
HETATM   10  C12 UNL     1      29.570   6.961  48.027  1.00  0.00     0.029 A 
HETATM   11  C13 UNL     1      30.169   7.881  47.199  1.00  0.00     0.032 A 
HETATM   12  C14 UNL     1      31.326   7.637  46.486  1.00  0.00     0.046 A 
HETATM   13  C15 UNL     1      31.942   6.412  46.586  1.00  0.00     0.138 A 
HETATM   14  F1  UNL     1      33.072   6.216  45.872  1.00  0.00    -0.204 F 
HETATM   15  C16 UNL     1      31.379   5.452  47.406  1.00  0.00     0.074 A 
HETATM   16 CL1  UNL     1      32.171   3.920  47.514  1.00  0.00    -0.081 Cl
HETATM   17  C17 UNL     1      30.223   5.764  48.088  1.00  0.00     0.056 A 
ENDBRANCH   8  10
ENDBRANCH   7   8
ENDBRANCH   6   7
ENDBRANCH   2   5
BRANCH   1  18
HETATM   18  C7  UNL     1      25.817   1.754  52.271  1.00  0.00     0.049 A 
HETATM   19  C6  UNL     1      24.673   1.146  52.764  1.00  0.00     0.019 A 
HETATM   20  C5  UNL     1      23.433   1.741  52.614  1.00  0.00     0.017 A 
HETATM   21  C20 UNL     1      24.819  -0.080  53.415  1.00  0.00     0.069 A 
HETATM   22  C4  UNL     1      22.334   1.111  53.113  1.00  0.00     0.008 A 
HETATM   23  C3  UNL     1      22.423  -0.092  53.758  1.00  0.00    -0.056 A 
HETATM   24  C21 UNL     1      23.659  -0.687  53.910  1.00  0.00     0.039 A 
HETATM   25  N3  UNL     1      26.005  -0.699  53.586  1.00  0.00    -0.260 NA
HETATM   26  C19 UNL     1      27.138  -0.139  53.120  1.00  0.00     0.119 A 
HETATM   27  C18 UNL     1      27.002   1.086  52.470  1.00  0.00     0.050 A 
BRANCH  23  28
HETATM   28  C2  UNL     1      21.264  -0.819  54.318  1.00  0.00     0.034 C 
HETATM   29  C1  UNL     1      19.987  -0.498  53.557  1.00  0.00     0.010 C 
ENDBRANCH  23  28
ENDBRANCH   1  18
TORSDOF 6
ENDMDL
