MODEL 1
REMARK VINA RESULT:      -8.7      0.000      0.000
REMARK  4 active torsions:
REMARK  status: ('A' for Active; 'I' for Inactive)
REMARK       I    between atoms: N2_7  and  C5_8 
REMARK    1  A    between atoms: C5_8  and  C6_10 
REMARK    2  A    between atoms: C9_13  and  C10_14 
REMARK    3  A    between atoms: C12_17  and  C13_18 
REMARK    4  A    between atoms: C13_18  and  N4_19 
ROOT
HETATM    1  C6  UNL     1      24.934   0.827  53.312  1.00  0.00     0.033 A 
HETATM    2  C7  UNL     1      24.165  -0.214  53.809  1.00  0.00     0.017 A 
HETATM    3  C8  UNL     1      22.901  -0.426  53.304  1.00  0.00     0.008 A 
HETATM    4  C9  UNL     1      22.316   0.332  52.316  1.00  0.00    -0.052 A 
HETATM    5  C19 UNL     1      23.076   1.378  51.810  1.00  0.00     0.008 A 
HETATM    6  C20 UNL     1      24.359   1.610  52.307  1.00  0.00     0.017 A 
ENDROOT
BRANCH   4   7
HETATM    7  C10 UNL     1      20.964   0.006  51.826  1.00  0.00     0.049 C 
HETATM    8  C11 UNL     1      19.840   0.464  52.698  1.00  0.00     0.279 C 
HETATM    9  N3  UNL     1      19.231   1.609  52.018  1.00  0.00     0.090 N 
HETATM   10  C12 UNL     1      19.320   1.258  50.589  1.00  0.00     0.249 C 
HETATM   11  H11 UNL     1      19.925   2.411  52.123  1.00  0.00     0.316 HD
HETATM   12  C18 UNL     1      20.691   0.709  50.513  1.00  0.00     0.048 C 
BRANCH  10  13
HETATM   13  C13 UNL     1      18.174   0.465  50.129  1.00  0.00     0.307 C 
BRANCH  13  14
HETATM   14  N4  UNL     1      16.854   0.854  50.472  1.00  0.00     0.090 N 
HETATM   15  C14 UNL     1      16.006   0.848  49.250  1.00  0.00     0.272 C 
HETATM   16  C15 UNL     1      15.806  -0.621  48.994  1.00  0.00     0.032 C 
HETATM   17  C16 UNL     1      15.475  -1.111  50.387  1.00  0.00     0.032 C 
HETATM   18  C17 UNL     1      16.145  -0.110  51.305  1.00  0.00     0.272 C 
ENDBRANCH  13  14
ENDBRANCH  10  13
ENDBRANCH   4   7
BRANCH   1  19
HETATM   19  C5  UNL     1      26.273   1.277  53.640  1.00  0.00     0.265 C 
HETATM   20  N2  UNL     1      27.512   0.595  53.593  1.00  0.00    -0.241 N 
HETATM   21  C1  UNL     1      28.666   1.305  53.973  1.00  0.00     0.329 A 
HETATM   22  C4  UNL     1      27.706  -0.750  53.193  1.00  0.00     0.102 A 
HETATM   23  O1  UNL     1      28.603   2.505  54.345  1.00  0.00    -0.246 OA
HETATM   24  N1  UNL     1      29.950   0.720  53.963  1.00  0.00    -0.339 N 
HETATM   25  C2  UNL     1      30.182  -0.651  53.566  1.00  0.00     0.153 A 
HETATM   26  H1  UNL     1      30.806   1.260  54.243  1.00  0.00     0.164 HD
HETATM   27  C3  UNL     1      28.887  -1.286  53.186  1.00  0.00     0.011 A 
HETATM   28  O2  UNL     1      26.178   2.483  54.011  1.00  0.00    -0.267 OA
ENDBRANCH   1  19
TORSDOF 4
ENDMDL
MODEL 2
REMARK VINA RESULT:      -8.2      6.694     10.172
REMARK  4 active torsions:
REMARK  status: ('A' for Active; 'I' for Inactive)
REMARK       I    between atoms: N2_7  and  C5_8 
REMARK    1  A    between atoms: C5_8  and  C6_10 
REMARK    2  A    between atoms: C9_13  and  C10_14 
REMARK    3  A    between atoms: C12_17  and  C13_18 
REMARK    4  A    between atoms: C13_18  and  N4_19 
ROOT
HETATM    1  C6  UNL     1      25.280   2.996  50.552  1.00  0.00     0.033 A 
HETATM    2  C7  UNL     1      26.493   2.986  49.880  1.00  0.00     0.017 A 
HETATM    3  C8  UNL     1      26.904   4.114  49.205  1.00  0.00     0.008 A 
HETATM    4  C9  UNL     1      26.192   5.290  49.138  1.00  0.00    -0.052 A 
HETATM    5  C19 UNL     1      24.977   5.313  49.807  1.00  0.00     0.008 A 
HETATM    6  C20 UNL     1      24.540   4.181  50.497  1.00  0.00     0.017 A 
ENDROOT
BRANCH   4   7
HETATM    7  C10 UNL     1      26.734   6.451  48.409  1.00  0.00     0.049 C 
HETATM    8  C11 UNL     1      26.653   7.756  49.134  1.00  0.00     0.279 C 
HETATM    9  N3  UNL     1      28.015   8.070  49.570  1.00  0.00     0.090 N 
HETATM   10  C12 UNL     1      28.860   7.580  48.466  1.00  0.00     0.249 C 
HETATM   11  H11 UNL     1      28.227   7.394  50.367  1.00  0.00     0.316 HD
HETATM   12  C18 UNL     1      28.219   6.282  48.167  1.00  0.00     0.048 C 
BRANCH  10  13
HETATM   13  C13 UNL     1      29.045   8.581  47.408  1.00  0.00     0.307 C 
BRANCH  13  14
HETATM   14  N4  UNL     1      30.331   9.121  47.155  1.00  0.00     0.090 N 
HETATM   15  C14 UNL     1      30.188  10.505  46.627  1.00  0.00     0.272 C 
HETATM   16  C15 UNL     1      29.793  11.286  47.851  1.00  0.00     0.032 C 
HETATM   17  C16 UNL     1      30.782  10.748  48.863  1.00  0.00     0.032 C 
HETATM   18  C17 UNL     1      31.124   9.363  48.354  1.00  0.00     0.272 C 
ENDBRANCH  13  14
ENDBRANCH  10  13
ENDBRANCH   4   7
BRANCH   1  19
HETATM   19  C5  UNL     1      24.606   1.980  51.336  1.00  0.00     0.265 C 
HETATM   20  N2  UNL     1      25.043   1.243  52.462  1.00  0.00    -0.241 N 
HETATM   21  C1  UNL     1      24.150   0.312  53.024  1.00  0.00     0.329 A 
HETATM   22  C4  UNL     1      26.309   1.355  53.088  1.00  0.00     0.102 A 
HETATM   23  O1  UNL     1      23.001   0.137  52.543  1.00  0.00    -0.246 OA
HETATM   24  N1  UNL     1      24.486  -0.474  54.146  1.00  0.00    -0.339 N 
HETATM   25  C2  UNL     1      25.770  -0.389  54.805  1.00  0.00     0.153 A 
HETATM   26  H1  UNL     1      23.810  -1.162  54.562  1.00  0.00     0.164 HD
HETATM   27  C3  UNL     1      26.616   0.630  54.119  1.00  0.00     0.011 A 
HETATM   28  O2  UNL     1      23.456   1.824  50.830  1.00  0.00    -0.267 OA
ENDBRANCH   1  19
TORSDOF 4
ENDMDL
MODEL 3
REMARK VINA RESULT:      -8.1      6.388      8.110
REMARK  4 active torsions:
REMARK  status: ('A' for Active; 'I' for Inactive)
REMARK       I    between atoms: N2_7  and  C5_8 
REMARK    1  A    between atoms: C5_8  and  C6_10 
REMARK    2  A    between atoms: C9_13  and  C10_14 
REMARK    3  A    between atoms: C12_17  and  C13_18 
REMARK    4  A    between atoms: C13_18  and  N4_19 
ROOT
HETATM    1  C6  UNL     1      26.591   6.213  48.634  1.00  0.00     0.033 A 
HETATM    2  C7  UNL     1      27.355   5.055  48.628  1.00  0.00     0.017 A 
HETATM    3  C8  UNL     1      26.938   3.963  49.357  1.00  0.00     0.008 A 
HETATM    4  C9  UNL     1      25.791   3.920  50.115  1.00  0.00    -0.052 A 
HETATM    5  C19 UNL     1      25.018   5.073  50.129  1.00  0.00     0.008 A 
HETATM    6  C20 UNL     1      25.421   6.191  49.398  1.00  0.00     0.017 A 
ENDROOT
BRANCH   4   7
HETATM    7  C10 UNL     1      25.420   2.691  50.840  1.00  0.00     0.049 C 
HETATM    8  C11 UNL     1      26.294   2.345  52.003  1.00  0.00     0.279 C 
HETATM    9  N3  UNL     1      25.518   2.652  53.206  1.00  0.00     0.090 N 
HETATM   10  C12 UNL     1      24.139   2.287  52.838  1.00  0.00     0.249 C 
HETATM   11  H11 UNL     1      25.489   3.715  53.269  1.00  0.00     0.316 HD
HETATM   12  C18 UNL     1      24.051   2.837  51.470  1.00  0.00     0.048 C 
BRANCH  10  13
HETATM   13  C13 UNL     1      23.841   0.871  53.092  1.00  0.00     0.307 C 
BRANCH  13  14
HETATM   14  N4  UNL     1      22.625   0.306  52.631  1.00  0.00     0.090 N 
HETATM   15  C14 UNL     1      22.517  -1.094  53.122  1.00  0.00     0.272 C 
HETATM   16  C15 UNL     1      22.202  -0.909  54.581  1.00  0.00     0.032 C 
HETATM   17  C16 UNL     1      21.135   0.162  54.509  1.00  0.00     0.032 C 
HETATM   18  C17 UNL     1      21.430   0.898  53.218  1.00  0.00     0.272 C 
ENDBRANCH  13  14
ENDBRANCH  10  13
ENDBRANCH   4   7
BRANCH   1  19
HETATM   19  C5  UNL     1      26.774   7.489  47.971  1.00  0.00     0.265 C 
HETATM   20  N2  UNL     1      27.766   8.483  48.142  1.00  0.00    -0.241 N 
HETATM   21  C1  UNL     1      27.685   9.635  47.337  1.00  0.00     0.329 A 
HETATM   22  C4  UNL     1      28.847   8.431  49.056  1.00  0.00     0.102 A 
HETATM   23  O1  UNL     1      26.764   9.781  46.494  1.00  0.00    -0.246 OA
HETATM   24  N1  UNL     1      28.622  10.686  47.428  1.00  0.00    -0.339 N 
HETATM   25  C2  UNL     1      29.733  10.666  48.353  1.00  0.00     0.153 A 
HETATM   26  H1  UNL     1      28.557  11.540  46.819  1.00  0.00     0.164 HD
HETATM   27  C3  UNL     1      29.706   9.399  49.138  1.00  0.00     0.011 A 
HETATM   28  O2  UNL     1      25.834   7.609  47.131  1.00  0.00    -0.267 OA
ENDBRANCH   1  19
TORSDOF 4
ENDMDL
MODEL 4
REMARK VINA RESULT:      -8.1      6.033      9.412
REMARK  4 active torsions:
REMARK  status: ('A' for Active; 'I' for Inactive)
REMARK       I    between atoms: N2_7  and  C5_8 
REMARK    1  A    between atoms: C5_8  and  C6_10 
REMARK    2  A    between atoms: C9_13  and  C10_14 
REMARK    3  A    between atoms: C12_17  and  C13_18 
REMARK    4  A    between atoms: C13_18  and  N4_19 
ROOT
HETATM    1  C6  UNL     1      25.236   2.291  51.939  1.00  0.00     0.033 A 
HETATM    2  C7  UNL     1      24.383   3.370  51.762  1.00  0.00     0.017 A 
HETATM    3  C8  UNL     1      24.681   4.323  50.814  1.00  0.00     0.008 A 
HETATM    4  C9  UNL     1      25.789   4.296  49.998  1.00  0.00    -0.052 A 
HETATM    5  C19 UNL     1      26.651   3.221  50.165  1.00  0.00     0.008 A 
HETATM    6  C20 UNL     1      26.368   2.244  51.121  1.00  0.00     0.017 A 
ENDROOT
BRANCH   4   7
HETATM    7  C10 UNL     1      26.004   5.354  48.994  1.00  0.00     0.049 C 
HETATM    8  C11 UNL     1      25.743   6.748  49.467  1.00  0.00     0.279 C 
HETATM    9  N3  UNL     1      27.055   7.378  49.632  1.00  0.00     0.090 N 
HETATM   10  C12 UNL     1      27.855   6.822  48.527  1.00  0.00     0.249 C 
HETATM   11  H11 UNL     1      27.483   6.933  50.501  1.00  0.00     0.316 HD
HETATM   12  C18 UNL     1      27.457   5.399  48.572  1.00  0.00     0.048 C 
BRANCH  10  13
HETATM   13  C13 UNL     1      27.719   7.594  47.285  1.00  0.00     0.307 C 
BRANCH  13  14
HETATM   14  N4  UNL     1      28.497   8.762  47.084  1.00  0.00     0.090 N 
HETATM   15  C14 UNL     1      29.887   8.513  47.549  1.00  0.00     0.272 C 
HETATM   16  C15 UNL     1      30.441   7.620  46.473  1.00  0.00     0.032 C 
HETATM   17  C16 UNL     1      29.966   8.343  45.230  1.00  0.00     0.032 C 
HETATM   18  C17 UNL     1      28.729   9.091  45.682  1.00  0.00     0.272 C 
ENDBRANCH  13  14
ENDBRANCH  10  13
ENDBRANCH   4   7
BRANCH   1  19
HETATM   19  C5  UNL     1      25.177   1.155  52.838  1.00  0.00     0.265 C 
HETATM   20  N2  UNL     1      24.070   0.514  53.442  1.00  0.00    -0.241 N 
HETATM   21  C1  UNL     1      24.328  -0.588  54.279  1.00  0.00     0.329 A 
HETATM   22  C4  UNL     1      22.710   0.877  53.283  1.00  0.00     0.102 A 
HETATM   23  O1  UNL     1      25.500  -0.992  54.487  1.00  0.00    -0.246 OA
HETATM   24  N1  UNL     1      23.297  -1.298  54.930  1.00  0.00    -0.339 N 
HETATM   25  C2  UNL     1      21.900  -0.950  54.793  1.00  0.00     0.153 A 
HETATM   26  H1  UNL     1      23.498  -2.123  55.548  1.00  0.00     0.164 HD
HETATM   27  C3  UNL     1      21.765   0.223  53.884  1.00  0.00     0.011 A 
HETATM   28  O2  UNL     1      26.368   0.773  53.030  1.00  0.00    -0.267 OA
ENDBRANCH   1  19
TORSDOF 4
ENDMDL
MODEL 5
REMARK VINA RESULT:      -8.1      6.787     11.891
REMARK  4 active torsions:
REMARK  status: ('A' for Active; 'I' for Inactive)
REMARK       I    between atoms: N2_7  and  C5_8 
REMARK    1  A    between atoms: C5_8  and  C6_10 
REMARK    2  A    between atoms: C9_13  and  C10_14 
REMARK    3  A    between atoms: C12_17  and  C13_18 
REMARK    4  A    between atoms: C13_18  and  N4_19 
ROOT
HETATM    1  C6  UNL     1      25.305   4.528  49.686  1.00  0.00     0.033 A 
HETATM    2  C7  UNL     1      26.490   3.870  49.392  1.00  0.00     0.017 A 
HETATM    3  C8  UNL     1      27.528   4.567  48.814  1.00  0.00     0.008 A 
HETATM    4  C9  UNL     1      27.490   5.905  48.494  1.00  0.00    -0.052 A 
HETATM    5  C19 UNL     1      26.310   6.575  48.784  1.00  0.00     0.008 A 
HETATM    6  C20 UNL     1      25.245   5.888  49.369  1.00  0.00     0.017 A 
ENDROOT
BRANCH   4   7
HETATM    7  C10 UNL     1      28.668   6.565  47.901  1.00  0.00     0.049 C 
HETATM    8  C11 UNL     1      29.022   7.892  48.490  1.00  0.00     0.279 C 
HETATM    9  N3  UNL     1      30.219   7.675  49.305  1.00  0.00     0.090 N 
HETATM   10  C12 UNL     1      30.986   6.674  48.543  1.00  0.00     0.249 C 
HETATM   11  H11 UNL     1      29.891   7.139  50.166  1.00  0.00     0.316 HD
HETATM   12  C18 UNL     1      29.915   5.740  48.137  1.00  0.00     0.048 C 
BRANCH  10  13
HETATM   13  C13 UNL     1      31.867   7.280  47.537  1.00  0.00     0.307 C 
BRANCH  13  14
HETATM   14  N4  UNL     1      32.933   6.530  46.978  1.00  0.00     0.090 N 
HETATM   15  C14 UNL     1      34.034   7.453  46.594  1.00  0.00     0.272 C 
HETATM   16  C15 UNL     1      34.627   7.832  47.924  1.00  0.00     0.032 C 
HETATM   17  C16 UNL     1      34.707   6.478  48.597  1.00  0.00     0.032 C 
HETATM   18  C17 UNL     1      33.617   5.664  47.931  1.00  0.00     0.272 C 
ENDBRANCH  13  14
ENDBRANCH  10  13
ENDBRANCH   4   7
BRANCH   1  19
HETATM   19  C5  UNL     1      24.070   4.064  50.287  1.00  0.00     0.265 C 
HETATM   20  N2  UNL     1      23.055   3.221  49.775  1.00  0.00    -0.241 N 
HETATM   21  C1  UNL     1      21.957   2.937  50.608  1.00  0.00     0.329 A 
HETATM   22  C4  UNL     1      23.039   2.626  48.490  1.00  0.00     0.102 A 
HETATM   23  O1  UNL     1      21.875   3.416  51.768  1.00  0.00    -0.246 OA
HETATM   24  N1  UNL     1      20.891   2.110  50.195  1.00  0.00    -0.339 N 
HETATM   25  C2  UNL     1      20.840   1.492  48.889  1.00  0.00     0.153 A 
HETATM   26  H1  UNL     1      20.078   1.899  50.826  1.00  0.00     0.164 HD
HETATM   27  C3  UNL     1      22.057   1.866  48.113  1.00  0.00     0.011 A 
HETATM   28  O2  UNL     1      24.014   4.561  51.450  1.00  0.00    -0.267 OA
ENDBRANCH   1  19
TORSDOF 4
ENDMDL
MODEL 6
REMARK VINA RESULT:      -8.0      7.594     11.629
REMARK  4 active torsions:
REMARK  status: ('A' for Active; 'I' for Inactive)
REMARK       I    between atoms: N2_7  and  C5_8 
REMARK    1  A    between atoms: C5_8  and  C6_10 
REMARK    2  A    between atoms: C9_13  and  C10_14 
REMARK    3  A    between atoms: C12_17  and  C13_18 
REMARK    4  A    between atoms: C13_18  and  N4_19 
ROOT
HETATM    1  C6  UNL     1      25.865   4.308  49.390  1.00  0.00     0.033 A 
HETATM    2  C7  UNL     1      27.177   4.123  48.981  1.00  0.00     0.017 A 
HETATM    3  C8  UNL     1      27.920   5.208  48.569  1.00  0.00     0.008 A 
HETATM    4  C9  UNL     1      27.457   6.503  48.529  1.00  0.00    -0.052 A 
HETATM    5  C19 UNL     1      26.145   6.702  48.937  1.00  0.00     0.008 A 
HETATM    6  C20 UNL     1      25.374   5.616  49.356  1.00  0.00     0.017 A 
ENDROOT
BRANCH   4   7
HETATM    7  C10 UNL     1      28.342   7.600  48.097  1.00  0.00     0.049 C 
HETATM    8  C11 UNL     1      28.146   8.899  48.810  1.00  0.00     0.279 C 
HETATM    9  N3  UNL     1      29.288   9.049  49.714  1.00  0.00     0.090 N 
HETATM   10  C12 UNL     1      30.414   8.474  48.957  1.00  0.00     0.249 C 
HETATM   11  H11 UNL     1      29.129   8.347  50.500  1.00  0.00     0.316 HD
HETATM   12  C18 UNL     1      29.789   7.262  48.387  1.00  0.00     0.048 C 
BRANCH  10  13
HETATM   13  C13 UNL     1      31.068   9.456  48.083  1.00  0.00     0.307 C 
BRANCH  13  14
HETATM   14  N4  UNL     1      31.745   9.028  46.913  1.00  0.00     0.090 N 
HETATM   15  C14 UNL     1      31.991  10.201  46.031  1.00  0.00     0.272 C 
HETATM   16  C15 UNL     1      33.099  10.925  46.745  1.00  0.00     0.032 C 
HETATM   17  C16 UNL     1      34.023   9.774  47.081  1.00  0.00     0.032 C 
HETATM   18  C17 UNL     1      33.108   8.567  47.146  1.00  0.00     0.272 C 
ENDBRANCH  13  14
ENDBRANCH  10  13
ENDBRANCH   4   7
BRANCH   1  19
HETATM   19  C5  UNL     1      24.866   3.374  49.869  1.00  0.00     0.265 C 
HETATM   20  N2  UNL     1      24.866   2.523  51.000  1.00  0.00    -0.241 N 
HETATM   21  C1  UNL     1      23.732   1.718  51.215  1.00  0.00     0.329 A 
HETATM   22  C4  UNL     1      25.911   2.402  51.949  1.00  0.00     0.102 A 
HETATM   23  O1  UNL     1      22.750   1.749  50.431  1.00  0.00    -0.246 OA
HETATM   24  N1  UNL     1      23.631   0.835  52.311  1.00  0.00    -0.339 N 
HETATM   25  C2  UNL     1      24.680   0.683  53.294  1.00  0.00     0.153 A 
HETATM   26  H1  UNL     1      22.777   0.242  52.466  1.00  0.00     0.164 HD
HETATM   27  C3  UNL     1      25.816   1.588  52.955  1.00  0.00     0.011 A 
HETATM   28  O2  UNL     1      23.892   3.426  49.062  1.00  0.00    -0.267 OA
ENDBRANCH   1  19
TORSDOF 4
ENDMDL
MODEL 7
REMARK VINA RESULT:      -7.7      5.446      9.298
REMARK  4 active torsions:
REMARK  status: ('A' for Active; 'I' for Inactive)
REMARK       I    between atoms: N2_7  and  C5_8 
REMARK    1  A    between atoms: C5_8  and  C6_10 
REMARK    2  A    between atoms: C9_13  and  C10_14 
REMARK    3  A    between atoms: C12_17  and  C13_18 
REMARK    4  A    between atoms: C13_18  and  N4_19 
ROOT
HETATM    1  C6  UNL     1      23.085   2.049  51.853  1.00  0.00     0.033 A 
HETATM    2  C7  UNL     1      23.216   2.086  50.473  1.00  0.00     0.017 A 
HETATM    3  C8  UNL     1      23.595   3.259  49.858  1.00  0.00     0.008 A 
HETATM    4  C9  UNL     1      23.865   4.436  50.517  1.00  0.00    -0.052 A 
HETATM    5  C19 UNL     1      23.738   4.412  51.899  1.00  0.00     0.008 A 
HETATM    6  C20 UNL     1      23.355   3.234  52.543  1.00  0.00     0.017 A 
ENDROOT
BRANCH   4   7
HETATM    7  C10 UNL     1      24.290   5.632  49.767  1.00  0.00     0.049 C 
HETATM    8  C11 UNL     1      24.521   6.857  50.593  1.00  0.00     0.279 C 
HETATM    9  N3  UNL     1      25.972   7.039  50.661  1.00  0.00     0.090 N 
HETATM   10  C12 UNL     1      26.443   6.617  49.330  1.00  0.00     0.249 C 
HETATM   11  H11 UNL     1      26.330   6.273  51.309  1.00  0.00     0.316 HD
HETATM   12  C18 UNL     1      25.635   5.399  49.112  1.00  0.00     0.048 C 
BRANCH  10  13
HETATM   13  C13 UNL     1      26.423   7.710  48.350  1.00  0.00     0.307 C 
BRANCH  13  14
HETATM   14  N4  UNL     1      27.629   8.149  47.747  1.00  0.00     0.090 N 
HETATM   15  C14 UNL     1      27.573   9.622  47.551  1.00  0.00     0.272 C 
HETATM   16  C15 UNL     1      27.752  10.149  48.949  1.00  0.00     0.032 C 
HETATM   17  C16 UNL     1      28.905   9.294  49.430  1.00  0.00     0.032 C 
HETATM   18  C17 UNL     1      28.803   8.028  48.603  1.00  0.00     0.272 C 
ENDBRANCH  13  14
ENDBRANCH  10  13
ENDBRANCH   4   7
BRANCH   1  19
HETATM   19  C5  UNL     1      22.714   0.977  52.756  1.00  0.00     0.265 C 
HETATM   20  N2  UNL     1      21.478   0.314  52.942  1.00  0.00    -0.241 N 
HETATM   21  C1  UNL     1      21.422  -0.710  53.906  1.00  0.00     0.329 A 
HETATM   22  C4  UNL     1      20.276   0.584  52.242  1.00  0.00     0.102 A 
HETATM   23  O1  UNL     1      22.433  -1.027  54.583  1.00  0.00    -0.246 OA
HETATM   24  N1  UNL     1      20.240  -1.433  54.171  1.00  0.00    -0.339 N 
HETATM   25  C2  UNL     1      18.995  -1.180  53.478  1.00  0.00     0.153 A 
HETATM   26  H1  UNL     1      20.209  -2.200  54.888  1.00  0.00     0.164 HD
HETATM   27  C3  UNL     1      19.191  -0.082  52.488  1.00  0.00     0.011 A 
HETATM   28  O2  UNL     1      23.748   0.680  53.423  1.00  0.00    -0.267 OA
ENDBRANCH   1  19
TORSDOF 4
ENDMDL
MODEL 8
REMARK VINA RESULT:      -7.6      7.343      8.856
REMARK  4 active torsions:
REMARK  status: ('A' for Active; 'I' for Inactive)
REMARK       I    between atoms: N2_7  and  C5_8 
REMARK    1  A    between atoms: C5_8  and  C6_10 
REMARK    2  A    between atoms: C9_13  and  C10_14 
REMARK    3  A    between atoms: C12_17  and  C13_18 
REMARK    4  A    between atoms: C13_18  and  N4_19 
ROOT
HETATM    1  C6  UNL     1      28.037   7.108  48.104  1.00  0.00     0.033 A 
HETATM    2  C7  UNL     1      26.715   7.222  48.508  1.00  0.00     0.017 A 
HETATM    3  C8  UNL     1      26.041   6.104  48.950  1.00  0.00     0.008 A 
HETATM    4  C9  UNL     1      26.585   4.843  49.029  1.00  0.00    -0.052 A 
HETATM    5  C19 UNL     1      27.908   4.716  48.629  1.00  0.00     0.008 A 
HETATM    6  C20 UNL     1      28.609   5.835  48.177  1.00  0.00     0.017 A 
ENDROOT
BRANCH   4   7
HETATM    7  C10 UNL     1      25.786   3.715  49.542  1.00  0.00     0.049 C 
HETATM    8  C11 UNL     1      26.444   2.895  50.604  1.00  0.00     0.279 C 
HETATM    9  N3  UNL     1      25.781   3.243  51.863  1.00  0.00     0.090 N 
HETATM   10  C12 UNL     1      24.374   3.448  51.474  1.00  0.00     0.249 C 
HETATM   11  H11 UNL     1      26.119   4.224  52.108  1.00  0.00     0.316 HD
HETATM   12  C18 UNL     1      24.531   4.219  50.223  1.00  0.00     0.048 C 
BRANCH  10  13
HETATM   13  C13 UNL     1      23.595   2.203  51.489  1.00  0.00     0.307 C 
BRANCH  13  14
HETATM   14  N4  UNL     1      22.549   2.029  52.430  1.00  0.00     0.090 N 
HETATM   15  C14 UNL     1      21.260   1.866  51.707  1.00  0.00     0.272 C 
HETATM   16  C15 UNL     1      21.368   0.473  51.149  1.00  0.00     0.032 C 
HETATM   17  C16 UNL     1      21.886  -0.279  52.357  1.00  0.00     0.032 C 
HETATM   18  C17 UNL     1      22.613   0.774  53.169  1.00  0.00     0.272 C 
ENDBRANCH  13  14
ENDBRANCH  10  13
ENDBRANCH   4   7
BRANCH   1  19
HETATM   19  C5  UNL     1      28.979   8.091  47.608  1.00  0.00     0.265 C 
HETATM   20  N2  UNL     1      29.091   9.477  47.872  1.00  0.00    -0.241 N 
HETATM   21  C1  UNL     1      30.129  10.184  47.238  1.00  0.00     0.329 A 
HETATM   22  C4  UNL     1      28.248  10.231  48.726  1.00  0.00     0.102 A 
HETATM   23  O1  UNL     1      30.932   9.608  46.460  1.00  0.00    -0.246 OA
HETATM   24  N1  UNL     1      30.329  11.567  47.431  1.00  0.00    -0.339 N 
HETATM   25  C2  UNL     1      29.484  12.367  48.291  1.00  0.00     0.153 A 
HETATM   26  H1  UNL     1      31.110  12.085  46.958  1.00  0.00     0.164 HD
HETATM   27  C3  UNL     1      28.434  11.503  48.901  1.00  0.00     0.011 A 
HETATM   28  O2  UNL     1      29.772   7.485  46.830  1.00  0.00    -0.267 OA
ENDBRANCH   1  19
TORSDOF 4
ENDMDL
MODEL 9
REMARK VINA RESULT:      -7.5      2.353      2.624
REMARK  4 active torsions:
REMARK  status: ('A' for Active; 'I' for Inactive)
REMARK       I    between atoms: N2_7  and  C5_8 
REMARK    1  A    between atoms: C5_8  and  C6_10 
REMARK    2  A    between atoms: C9_13  and  C10_14 
REMARK    3  A    between atoms: C12_17  and  C13_18 
REMARK    4  A    between atoms: C13_18  and  N4_19 
ROOT
HETATM    1  C6  UNL     1      24.938   1.143  53.373  1.00  0.00     0.033 A 
HETATM    2  C7  UNL     1      23.922   0.199  53.357  1.00  0.00     0.017 A 
HETATM    3  C8  UNL     1      22.687   0.539  52.850  1.00  0.00     0.008 A 
HETATM    4  C9  UNL     1      22.364   1.774  52.339  1.00  0.00    -0.052 A 
HETATM    5  C19 UNL     1      23.372   2.728  52.348  1.00  0.00     0.008 A 
HETATM    6  C20 UNL     1      24.631   2.406  52.858  1.00  0.00     0.017 A 
ENDROOT
BRANCH   4   7
HETATM    7  C10 UNL     1      21.018   2.029  51.794  1.00  0.00     0.049 C 
HETATM    8  C11 UNL     1      20.305   3.208  52.376  1.00  0.00     0.279 C 
HETATM    9  N3  UNL     1      20.335   4.253  51.351  1.00  0.00     0.090 N 
HETATM   10  C12 UNL     1      20.190   3.511  50.086  1.00  0.00     0.249 C 
HETATM   11  H11 UNL     1      21.342   4.603  51.324  1.00  0.00     0.316 HD
HETATM   12  C18 UNL     1      21.095   2.366  50.321  1.00  0.00     0.048 C 
BRANCH  10  13
HETATM   13  C13 UNL     1      18.787   3.289  49.717  1.00  0.00     0.307 C 
BRANCH  13  14
HETATM   14  N4  UNL     1      18.000   4.362  49.228  1.00  0.00     0.090 N 
HETATM   15  C14 UNL     1      18.577   4.850  47.946  1.00  0.00     0.272 C 
HETATM   16  C15 UNL     1      18.198   3.763  46.978  1.00  0.00     0.032 C 
HETATM   17  C16 UNL     1      16.746   3.543  47.350  1.00  0.00     0.032 C 
HETATM   18  C17 UNL     1      16.662   3.975  48.800  1.00  0.00     0.272 C 
ENDBRANCH  13  14
ENDBRANCH  10  13
ENDBRANCH   4   7
BRANCH   1  19
HETATM   19  C5  UNL     1      26.311   1.071  53.831  1.00  0.00     0.265 C 
HETATM   20  N2  UNL     1      27.294   0.070  53.645  1.00  0.00    -0.241 N 
HETATM   21  C1  UNL     1      28.563   0.285  54.214  1.00  0.00     0.329 A 
HETATM   22  C4  UNL     1      27.121  -1.142  52.933  1.00  0.00     0.102 A 
HETATM   23  O1  UNL     1      28.820   1.328  54.866  1.00  0.00    -0.246 OA
HETATM   24  N1  UNL     1      29.613  -0.650  54.089  1.00  0.00    -0.339 N 
HETATM   25  C2  UNL     1      29.469  -1.898  53.374  1.00  0.00     0.153 A 
HETATM   26  H1  UNL     1      30.560  -0.478  54.512  1.00  0.00     0.164 HD
HETATM   27  C3  UNL     1      28.088  -2.000  52.821  1.00  0.00     0.011 A 
HETATM   28  O2  UNL     1      26.540   2.131  54.483  1.00  0.00    -0.267 OA
ENDBRANCH   1  19
TORSDOF 4
ENDMDL
