MODEL 1
REMARK VINA RESULT:      -8.3      0.000      0.000
REMARK  5 active torsions:
REMARK  status: ('A' for Active; 'I' for Inactive)
REMARK    1  A    between atoms: O1_2  and  C2_3 
REMARK    2  A    between atoms: C5_6  and  C6_7 
REMARK    3  A    between atoms: C17_21  and  O2_22 
REMARK    4  A    between atoms: O2_22  and  C18_23 
REMARK    5  A    between atoms: C18_23  and  N4_24 
ROOT
HETATM    1  C2  UNL     1      25.012  -0.100  53.192  1.00  0.00     0.077 C 
HETATM    2  C3  UNL     1      25.960   0.462  52.478  1.00  0.00     0.050 C 
HETATM    3  C4  UNL     1      26.854   1.241  51.580  1.00  0.00     0.055 C 
HETATM    4  C5  UNL     1      26.302   2.255  50.982  1.00  0.00     0.069 C 
HETATM    5  N2  UNL     1      25.470   2.605  52.164  1.00  0.00    -0.244 NA
HETATM    6  C15 UNL     1      25.993   2.202  53.359  1.00  0.00     0.232 C 
HETATM    7  N3  UNL     1      26.967   1.577  54.242  1.00  0.00    -0.255 NA
HETATM    8  C16 UNL     1      26.973   0.255  54.402  1.00  0.00     0.129 C 
HETATM    9  C17 UNL     1      26.066  -0.916  53.790  1.00  0.00     0.220 C 
ENDROOT
BRANCH   4  10
HETATM   10  C6  UNL     1      25.910   3.436  50.192  1.00  0.00     0.082 A 
HETATM   11  C7  UNL     1      26.572   4.501  49.638  1.00  0.00     0.046 A 
HETATM   12  C8  UNL     1      25.748   5.382  48.986  1.00  0.00    -0.022 A 
HETATM   13  C9  UNL     1      26.496   6.428  48.456  1.00  0.00     0.012 A 
HETATM   14  C13 UNL     1      24.403   5.208  48.899  1.00  0.00    -0.008 A 
HETATM   15  C10 UNL     1      25.761   7.395  47.763  1.00  0.00     0.001 A 
HETATM   16  C11 UNL     1      24.386   7.274  47.640  1.00  0.00     0.001 A 
HETATM   17  C12 UNL     1      23.743   6.191  48.208  1.00  0.00     0.014 A 
HETATM   18  C14 UNL     1      23.753   4.135  49.459  1.00  0.00     0.129 A 
HETATM   19  N1  UNL     1      24.572   3.259  50.109  1.00  0.00    -0.258 NA
ENDBRANCH   4  10
BRANCH   1  20
HETATM   20  O1  UNL     1      24.043   0.650  52.642  1.00  0.00    -0.357 OA
HETATM   21  C1  UNL     1      22.652   0.468  52.871  1.00  0.00     0.209 C 
ENDBRANCH   1  20
BRANCH   9  22
HETATM   22  O2  UNL     1      26.799  -1.750  53.053  1.00  0.00    -0.356 OA
BRANCH  22  23
HETATM   23  C18 UNL     1      28.147  -1.834  53.285  1.00  0.00     0.284 C 
BRANCH  23  24
HETATM   24  N4  UNL     1      28.527  -3.223  53.117  1.00  0.00    -0.411 N 
HETATM   25  H17 UNL     1      29.531  -3.411  53.167  1.00  0.00     0.151 HD
HETATM   26  H18 UNL     1      27.894  -3.882  53.579  1.00  0.00     0.151 HD
ENDBRANCH  23  24
ENDBRANCH  22  23
ENDBRANCH   9  22
TORSDOF 5
ENDMDL
MODEL 2
REMARK VINA RESULT:      -8.1      2.425      3.582
REMARK  5 active torsions:
REMARK  status: ('A' for Active; 'I' for Inactive)
REMARK    1  A    between atoms: O1_2  and  C2_3 
REMARK    2  A    between atoms: C5_6  and  C6_7 
REMARK    3  A    between atoms: C17_21  and  O2_22 
REMARK    4  A    between atoms: O2_22  and  C18_23 
REMARK    5  A    between atoms: C18_23  and  N4_24 
ROOT
HETATM    1  C2  UNL     1      27.301  -0.020  54.524  1.00  0.00     0.077 C 
HETATM    2  C3  UNL     1      27.134   0.472  53.318  1.00  0.00     0.050 C 
HETATM    3  C4  UNL     1      26.712   1.066  52.021  1.00  0.00     0.055 C 
HETATM    4  C5  UNL     1      25.508   1.558  51.995  1.00  0.00     0.069 C 
HETATM    5  N2  UNL     1      25.602   2.079  53.385  1.00  0.00    -0.244 NA
HETATM    6  C15 UNL     1      26.877   2.344  53.801  1.00  0.00     0.232 C 
HETATM    7  N3  UNL     1      28.325   2.426  53.682  1.00  0.00    -0.255 NA
HETATM    8  C16 UNL     1      29.072   1.336  53.840  1.00  0.00     0.129 C 
HETATM    9  C17 UNL     1      28.707  -0.191  54.165  1.00  0.00     0.220 C 
ENDROOT
BRANCH   4  10
HETATM   10  C6  UNL     1      24.197   2.167  51.716  1.00  0.00     0.082 A 
HETATM   11  C7  UNL     1      22.977   2.185  52.343  1.00  0.00     0.046 A 
HETATM   12  C8  UNL     1      22.022   2.901  51.668  1.00  0.00    -0.022 A 
HETATM   13  C9  UNL     1      20.821   2.868  52.368  1.00  0.00     0.012 A 
HETATM   14  C13 UNL     1      22.269   3.534  50.490  1.00  0.00    -0.008 A 
HETATM   15  C10 UNL     1      19.765   3.568  51.776  1.00  0.00     0.001 A 
HETATM   16  C11 UNL     1      19.954   4.234  50.574  1.00  0.00     0.001 A 
HETATM   17  C12 UNL     1      21.193   4.201  49.963  1.00  0.00     0.014 A 
HETATM   18  C14 UNL     1      23.496   3.508  49.875  1.00  0.00     0.129 A 
HETATM   19  N1  UNL     1      24.446   2.795  50.545  1.00  0.00    -0.258 NA
ENDBRANCH   4  10
BRANCH   1  20
HETATM   20  O1  UNL     1      26.009   0.138  54.853  1.00  0.00    -0.357 OA
HETATM   21  C1  UNL     1      25.047  -0.908  54.875  1.00  0.00     0.209 C 
ENDBRANCH   1  20
BRANCH   9  22
HETATM   22  O2  UNL     1      29.074  -0.991  53.164  1.00  0.00    -0.356 OA
BRANCH  22  23
HETATM   23  C18 UNL     1      29.565  -2.238  53.453  1.00  0.00     0.284 C 
BRANCH  23  24
HETATM   24  N4  UNL     1      28.529  -3.195  53.121  1.00  0.00    -0.411 N 
HETATM   25  H17 UNL     1      28.344  -3.905  53.834  1.00  0.00     0.151 HD
HETATM   26  H18 UNL     1      27.725  -2.783  52.640  1.00  0.00     0.151 HD
ENDBRANCH  23  24
ENDBRANCH  22  23
ENDBRANCH   9  22
TORSDOF 5
ENDMDL
MODEL 3
REMARK VINA RESULT:      -7.8      3.285      6.202
REMARK  5 active torsions:
REMARK  status: ('A' for Active; 'I' for Inactive)
REMARK    1  A    between atoms: O1_2  and  C2_3 
REMARK    2  A    between atoms: C5_6  and  C6_7 
REMARK    3  A    between atoms: C17_21  and  O2_22 
REMARK    4  A    between atoms: O2_22  and  C18_23 
REMARK    5  A    between atoms: C18_23  and  N4_24 
ROOT
HETATM    1  C2  UNL     1      27.623   0.724  52.582  1.00  0.00     0.077 C 
HETATM    2  C3  UNL     1      26.805   0.247  53.490  1.00  0.00     0.050 C 
HETATM    3  C4  UNL     1      25.699  -0.230  54.364  1.00  0.00     0.055 C 
HETATM    4  C5  UNL     1      24.513  -0.206  53.830  1.00  0.00     0.069 C 
HETATM    5  N2  UNL     1      25.017  -0.613  52.491  1.00  0.00    -0.244 NA
HETATM    6  C15 UNL     1      26.181  -1.327  52.522  1.00  0.00     0.232 C 
HETATM    7  N3  UNL     1      27.323  -1.984  53.142  1.00  0.00    -0.255 NA
HETATM    8  C16 UNL     1      28.377  -1.269  53.529  1.00  0.00     0.129 C 
HETATM    9  C17 UNL     1      28.710   0.297  53.461  1.00  0.00     0.220 C 
ENDROOT
BRANCH   4  10
HETATM   10  C6  UNL     1      23.089  -0.267  53.457  1.00  0.00     0.082 A 
HETATM   11  C7  UNL     1      22.334   0.205  52.414  1.00  0.00     0.046 A 
HETATM   12  C8  UNL     1      21.002  -0.102  52.517  1.00  0.00    -0.022 A 
HETATM   13  C9  UNL     1      20.311   0.412  51.425  1.00  0.00     0.012 A 
HETATM   14  C13 UNL     1      20.485  -0.811  53.556  1.00  0.00    -0.008 A 
HETATM   15  C10 UNL     1      18.935   0.160  51.417  1.00  0.00     0.001 A 
HETATM   16  C11 UNL     1      18.349  -0.557  52.449  1.00  0.00     0.001 A 
HETATM   17  C12 UNL     1      19.132  -1.022  53.487  1.00  0.00     0.014 A 
HETATM   18  C14 UNL     1      21.254  -1.278  54.593  1.00  0.00     0.129 A 
HETATM   19  N1  UNL     1      22.580  -0.972  54.492  1.00  0.00    -0.258 NA
ENDBRANCH   4  10
BRANCH   1  20
HETATM   20  O1  UNL     1      26.625   1.116  51.774  1.00  0.00    -0.357 OA
HETATM   21  C1  UNL     1      26.474   2.431  51.255  1.00  0.00     0.209 C 
ENDBRANCH   1  20
BRANCH   9  22
HETATM   22  O2  UNL     1      28.852   0.807  54.684  1.00  0.00    -0.356 OA
BRANCH  22  23
HETATM   23  C18 UNL     1      29.645   1.911  54.857  1.00  0.00     0.284 C 
BRANCH  23  24
HETATM   24  N4  UNL     1      29.453   2.764  53.701  1.00  0.00    -0.411 N 
HETATM   25  H17 UNL     1      30.095   3.558  53.632  1.00  0.00     0.151 HD
HETATM   26  H18 UNL     1      29.233   2.252  52.843  1.00  0.00     0.151 HD
ENDBRANCH  23  24
ENDBRANCH  22  23
ENDBRANCH   9  22
TORSDOF 5
ENDMDL
MODEL 4
REMARK VINA RESULT:      -7.6      3.973      7.014
REMARK  5 active torsions:
REMARK  status: ('A' for Active; 'I' for Inactive)
REMARK    1  A    between atoms: O1_2  and  C2_3 
REMARK    2  A    between atoms: C5_6  and  C6_7 
REMARK    3  A    between atoms: C17_21  and  O2_22 
REMARK    4  A    between atoms: O2_22  and  C18_23 
REMARK    5  A    between atoms: C18_23  and  N4_24 
ROOT
HETATM    1  C2  UNL     1      20.360   0.788  50.523  1.00  0.00     0.077 C 
HETATM    2  C3  UNL     1      20.767   0.533  51.744  1.00  0.00     0.050 C 
HETATM    3  C4  UNL     1      21.455   0.279  53.039  1.00  0.00     0.055 C 
HETATM    4  C5  UNL     1      22.734   0.510  53.049  1.00  0.00     0.069 C 
HETATM    5  N2  UNL     1      22.610   1.699  52.164  1.00  0.00    -0.244 NA
HETATM    6  C15 UNL     1      21.393   2.317  52.222  1.00  0.00     0.232 C 
HETATM    7  N3  UNL     1      20.024   2.521  52.673  1.00  0.00    -0.255 NA
HETATM    8  C16 UNL     1      19.034   1.798  52.154  1.00  0.00     0.129 C 
HETATM    9  C17 UNL     1      19.000   0.647  51.039  1.00  0.00     0.220 C 
ENDROOT
BRANCH   4  10
HETATM   10  C6  UNL     1      24.173   0.690  53.307  1.00  0.00     0.082 A 
HETATM   11  C7  UNL     1      25.120   1.615  52.948  1.00  0.00     0.046 A 
HETATM   12  C8  UNL     1      26.371   1.340  53.436  1.00  0.00    -0.022 A 
HETATM   13  C9  UNL     1      27.267   2.322  53.026  1.00  0.00     0.012 A 
HETATM   14  C13 UNL     1      26.641   0.251  54.204  1.00  0.00    -0.008 A 
HETATM   15  C10 UNL     1      28.583   2.149  53.465  1.00  0.00     0.001 A 
HETATM   16  C11 UNL     1      28.922   1.059  54.252  1.00  0.00     0.001 A 
HETATM   17  C12 UNL     1      27.949   0.141  54.601  1.00  0.00     0.014 A 
HETATM   18  C14 UNL     1      25.683  -0.667  54.557  1.00  0.00     0.129 A 
HETATM   19  N1  UNL     1      24.438  -0.394  54.071  1.00  0.00    -0.258 NA
ENDBRANCH   4  10
BRANCH   1  20
HETATM   20  O1  UNL     1      21.609   0.918  50.049  1.00  0.00    -0.357 OA
HETATM   21  C1  UNL     1      21.934   1.348  48.733  1.00  0.00     0.209 C 
ENDBRANCH   1  20
BRANCH   9  22
HETATM   22  O2  UNL     1      18.572  -0.504  51.557  1.00  0.00    -0.356 OA
BRANCH  22  23
HETATM   23  C18 UNL     1      17.505  -0.491  52.416  1.00  0.00     0.284 C 
BRANCH  23  24
HETATM   24  N4  UNL     1      17.880  -1.272  53.579  1.00  0.00    -0.411 N 
HETATM   25  H17 UNL     1      18.885  -1.421  53.701  1.00  0.00     0.151 HD
HETATM   26  H18 UNL     1      17.324  -1.063  54.413  1.00  0.00     0.151 HD
ENDBRANCH  23  24
ENDBRANCH  22  23
ENDBRANCH   9  22
TORSDOF 5
ENDMDL
MODEL 5
REMARK VINA RESULT:      -7.5      3.443      6.537
REMARK  5 active torsions:
REMARK  status: ('A' for Active; 'I' for Inactive)
REMARK    1  A    between atoms: O1_2  and  C2_3 
REMARK    2  A    between atoms: C5_6  and  C6_7 
REMARK    3  A    between atoms: C17_21  and  O2_22 
REMARK    4  A    between atoms: O2_22  and  C18_23 
REMARK    5  A    between atoms: C18_23  and  N4_24 
ROOT
HETATM    1  C2  UNL     1      25.488   2.805  53.445  1.00  0.00     0.077 C 
HETATM    2  C3  UNL     1      25.137   1.540  53.471  1.00  0.00     0.050 C 
HETATM    3  C4  UNL     1      24.508   0.192  53.482  1.00  0.00     0.055 C 
HETATM    4  C5  UNL     1      23.229   0.168  53.251  1.00  0.00     0.069 C 
HETATM    5  N2  UNL     1      23.306   1.260  52.244  1.00  0.00    -0.244 NA
HETATM    6  C15 UNL     1      24.521   1.371  51.628  1.00  0.00     0.232 C 
HETATM    7  N3  UNL     1      25.906   1.026  51.347  1.00  0.00    -0.255 NA
HETATM    8  C16 UNL     1      26.877   1.447  52.155  1.00  0.00     0.129 C 
HETATM    9  C17 UNL     1      26.870   2.332  53.491  1.00  0.00     0.220 C 
ENDROOT
BRANCH   4  10
HETATM   10  C6  UNL     1      21.801  -0.117  53.024  1.00  0.00     0.082 A 
HETATM   11  C7  UNL     1      20.848   0.323  52.142  1.00  0.00     0.046 A 
HETATM   12  C8  UNL     1      19.613  -0.240  52.340  1.00  0.00    -0.022 A 
HETATM   13  C9  UNL     1      18.710   0.259  51.408  1.00  0.00     0.012 A 
HETATM   14  C13 UNL     1      19.365  -1.150  53.319  1.00  0.00    -0.008 A 
HETATM   15  C10 UNL     1      17.409  -0.245  51.510  1.00  0.00     0.001 A 
HETATM   16  C11 UNL     1      17.093  -1.176  52.488  1.00  0.00     0.001 A 
HETATM   17  C12 UNL     1      18.072  -1.603  53.364  1.00  0.00     0.014 A 
HETATM   18  C14 UNL     1      20.330  -1.581  54.196  1.00  0.00     0.129 A 
HETATM   19  N1  UNL     1      21.558  -1.021  54.000  1.00  0.00    -0.258 NA
ENDBRANCH   4  10
BRANCH   1  20
HETATM   20  O1  UNL     1      24.218   3.239  53.402  1.00  0.00    -0.357 OA
HETATM   21  C1  UNL     1      23.831   4.581  53.138  1.00  0.00     0.209 C 
ENDBRANCH   1  20
BRANCH   9  22
HETATM   22  O2  UNL     1      27.328   1.632  54.528  1.00  0.00    -0.356 OA
BRANCH  22  23
HETATM   23  C18 UNL     1      28.327   0.716  54.324  1.00  0.00     0.284 C 
BRANCH  23  24
HETATM   24  N4  UNL     1      27.940  -0.502  55.006  1.00  0.00    -0.411 N 
HETATM   25  H17 UNL     1      27.936  -1.346  54.427  1.00  0.00     0.151 HD
HETATM   26  H18 UNL     1      28.311  -0.578  55.958  1.00  0.00     0.151 HD
ENDBRANCH  23  24
ENDBRANCH  22  23
ENDBRANCH   9  22
TORSDOF 5
ENDMDL
MODEL 6
REMARK VINA RESULT:      -7.4      1.662      2.230
REMARK  5 active torsions:
REMARK  status: ('A' for Active; 'I' for Inactive)
REMARK    1  A    between atoms: O1_2  and  C2_3 
REMARK    2  A    between atoms: C5_6  and  C6_7 
REMARK    3  A    between atoms: C17_21  and  O2_22 
REMARK    4  A    between atoms: O2_22  and  C18_23 
REMARK    5  A    between atoms: C18_23  and  N4_24 
ROOT
HETATM    1  C2  UNL     1      24.816   0.035  53.187  1.00  0.00     0.077 C 
HETATM    2  C3  UNL     1      25.492   0.924  52.497  1.00  0.00     0.050 C 
HETATM    3  C4  UNL     1      26.042   2.048  51.692  1.00  0.00     0.055 C 
HETATM    4  C5  UNL     1      25.216   3.025  51.455  1.00  0.00     0.069 C 
HETATM    5  N2  UNL     1      24.590   2.931  52.801  1.00  0.00    -0.244 NA
HETATM    6  C15 UNL     1      25.404   2.404  53.764  1.00  0.00     0.232 C 
HETATM    7  N3  UNL     1      26.627   1.828  54.303  1.00  0.00    -0.255 NA
HETATM    8  C16 UNL     1      26.890   0.535  54.129  1.00  0.00     0.129 C 
HETATM    9  C17 UNL     1      26.092  -0.645  53.395  1.00  0.00     0.220 C 
ENDROOT
BRANCH   4  10
HETATM   10  C6  UNL     1      24.479   4.234  51.052  1.00  0.00     0.082 A 
HETATM   11  C7  UNL     1      23.245   4.763  51.335  1.00  0.00     0.046 A 
HETATM   12  C8  UNL     1      22.991   5.944  50.686  1.00  0.00    -0.022 A 
HETATM   13  C9  UNL     1      21.725   6.409  51.026  1.00  0.00     0.012 A 
HETATM   14  C13 UNL     1      23.883   6.531  49.845  1.00  0.00    -0.008 A 
HETATM   15  C10 UNL     1      21.351   7.615  50.423  1.00  0.00     0.001 A 
HETATM   16  C11 UNL     1      22.217   8.262  49.556  1.00  0.00     0.001 A 
HETATM   17  C12 UNL     1      23.455   7.709  49.288  1.00  0.00     0.014 A 
HETATM   18  C14 UNL     1      25.116   5.990  49.572  1.00  0.00     0.129 A 
HETATM   19  N1  UNL     1      25.369   4.815  50.216  1.00  0.00    -0.258 NA
ENDBRANCH   4  10
BRANCH   1  20
HETATM   20  O1  UNL     1      23.644   0.661  52.996  1.00  0.00    -0.357 OA
HETATM   21  C1  UNL     1      22.368   0.062  53.183  1.00  0.00     0.209 C 
ENDBRANCH   1  20
BRANCH   9  22
HETATM   22  O2  UNL     1      26.794  -1.129  52.370  1.00  0.00    -0.356 OA
BRANCH  22  23
HETATM   23  C18 UNL     1      26.938  -2.486  52.242  1.00  0.00     0.284 C 
BRANCH  23  24
HETATM   24  N4  UNL     1      28.055  -2.880  53.077  1.00  0.00    -0.411 N 
HETATM   25  H17 UNL     1      28.692  -3.565  52.662  1.00  0.00     0.151 HD
HETATM   26  H18 UNL     1      28.466  -2.108  53.609  1.00  0.00     0.151 HD
ENDBRANCH  23  24
ENDBRANCH  22  23
ENDBRANCH   9  22
TORSDOF 5
ENDMDL
MODEL 7
REMARK VINA RESULT:      -7.3      3.504      7.472
REMARK  5 active torsions:
REMARK  status: ('A' for Active; 'I' for Inactive)
REMARK    1  A    between atoms: O1_2  and  C2_3 
REMARK    2  A    between atoms: C5_6  and  C6_7 
REMARK    3  A    between atoms: C17_21  and  O2_22 
REMARK    4  A    between atoms: O2_22  and  C18_23 
REMARK    5  A    between atoms: C18_23  and  N4_24 
ROOT
HETATM    1  C2  UNL     1      24.133   5.282  48.688  1.00  0.00     0.077 C 
HETATM    2  C3  UNL     1      24.448   5.006  49.932  1.00  0.00     0.050 C 
HETATM    3  C4  UNL     1      24.622   4.530  51.331  1.00  0.00     0.055 C 
HETATM    4  C5  UNL     1      23.900   3.502  51.667  1.00  0.00     0.069 C 
HETATM    5  N2  UNL     1      24.048   2.858  50.333  1.00  0.00    -0.244 NA
HETATM    6  C15 UNL     1      25.179   3.219  49.657  1.00  0.00     0.232 C 
HETATM    7  N3  UNL     1      26.437   3.920  49.448  1.00  0.00    -0.255 NA
HETATM    8  C16 UNL     1      26.435   5.189  49.044  1.00  0.00     0.129 C 
HETATM    9  C17 UNL     1      25.255   6.217  48.702  1.00  0.00     0.220 C 
ENDROOT
BRANCH   4  10
HETATM   10  C6  UNL     1      23.193   2.365  52.282  1.00  0.00     0.082 A 
HETATM   11  C7  UNL     1      23.570   1.221  52.936  1.00  0.00     0.046 A 
HETATM   12  C8  UNL     1      22.516   0.435  53.324  1.00  0.00    -0.022 A 
HETATM   13  C9  UNL     1      22.984  -0.700  53.977  1.00  0.00     0.012 A 
HETATM   14  C13 UNL     1      21.220   0.767  53.082  1.00  0.00    -0.008 A 
HETATM   15  C10 UNL     1      21.995  -1.582  54.423  1.00  0.00     0.001 A 
HETATM   16  C11 UNL     1      20.655  -1.300  54.206  1.00  0.00     0.001 A 
HETATM   17  C12 UNL     1      20.301  -0.139  53.544  1.00  0.00     0.014 A 
HETATM   18  C14 UNL     1      20.856   1.918  52.426  1.00  0.00     0.129 A 
HETATM   19  N1  UNL     1      21.905   2.699  52.039  1.00  0.00    -0.258 NA
ENDBRANCH   4  10
BRANCH   1  20
HETATM   20  O1  UNL     1      23.102   4.421  48.675  1.00  0.00    -0.357 OA
HETATM   21  C1  UNL     1      22.151   4.316  47.624  1.00  0.00     0.209 C 
ENDBRANCH   1  20
BRANCH   9  22
HETATM   22  O2  UNL     1      25.277   7.260  49.532  1.00  0.00    -0.356 OA
BRANCH  22  23
HETATM   23  C18 UNL     1      26.244   8.217  49.373  1.00  0.00     0.284 C 
BRANCH  23  24
HETATM   24  N4  UNL     1      26.823   8.464  50.678  1.00  0.00    -0.411 N 
HETATM   25  H17 UNL     1      27.774   8.110  50.810  1.00  0.00     0.151 HD
HETATM   26  H18 UNL     1      26.601   9.388  51.060  1.00  0.00     0.151 HD
ENDBRANCH  23  24
ENDBRANCH  22  23
ENDBRANCH   9  22
TORSDOF 5
ENDMDL
MODEL 8
REMARK VINA RESULT:      -7.3      3.495      7.152
REMARK  5 active torsions:
REMARK  status: ('A' for Active; 'I' for Inactive)
REMARK    1  A    between atoms: O1_2  and  C2_3 
REMARK    2  A    between atoms: C5_6  and  C6_7 
REMARK    3  A    between atoms: C17_21  and  O2_22 
REMARK    4  A    between atoms: O2_22  and  C18_23 
REMARK    5  A    between atoms: C18_23  and  N4_24 
ROOT
HETATM    1  C2  UNL     1      21.548   3.554  52.095  1.00  0.00     0.077 C 
HETATM    2  C3  UNL     1      22.041   2.433  51.624  1.00  0.00     0.050 C 
HETATM    3  C4  UNL     1      22.808   1.229  51.202  1.00  0.00     0.055 C 
HETATM    4  C5  UNL     1      23.993   1.109  51.723  1.00  0.00     0.069 C 
HETATM    5  N2  UNL     1      23.558   1.643  53.042  1.00  0.00    -0.244 NA
HETATM    6  C15 UNL     1      22.230   1.467  53.308  1.00  0.00     0.232 C 
HETATM    7  N3  UNL     1      20.867   1.030  53.046  1.00  0.00    -0.255 NA
HETATM    8  C16 UNL     1      20.066   1.762  52.274  1.00  0.00     0.129 C 
HETATM    9  C17 UNL     1      20.279   3.146  51.496  1.00  0.00     0.220 C 
ENDROOT
BRANCH   4  10
HETATM   10  C6  UNL     1      25.353   0.758  52.168  1.00  0.00     0.082 A 
HETATM   11  C7  UNL     1      26.042  -0.412  52.365  1.00  0.00     0.046 A 
HETATM   12  C8  UNL     1      27.324  -0.225  52.816  1.00  0.00    -0.022 A 
HETATM   13  C9  UNL     1      27.949  -1.455  52.989  1.00  0.00     0.012 A 
HETATM   14  C13 UNL     1      27.855   1.005  53.043  1.00  0.00    -0.008 A 
HETATM   15  C10 UNL     1      29.269  -1.394  53.449  1.00  0.00     0.001 A 
HETATM   16  C11 UNL     1      29.867  -0.168  53.698  1.00  0.00     0.001 A 
HETATM   17  C12 UNL     1      29.151   0.995  53.491  1.00  0.00     0.014 A 
HETATM   18  C14 UNL     1      27.153   2.168  52.840  1.00  0.00     0.129 A 
HETATM   19  N1  UNL     1      25.878   1.983  52.392  1.00  0.00    -0.258 NA
ENDBRANCH   4  10
BRANCH   1  20
HETATM   20  O1  UNL     1      22.713   3.928  52.647  1.00  0.00    -0.357 OA
HETATM   21  C1  UNL     1      23.447   5.087  52.276  1.00  0.00     0.209 C 
ENDBRANCH   1  20
BRANCH   9  22
HETATM   22  O2  UNL     1      20.158   2.976  50.180  1.00  0.00    -0.356 OA
BRANCH  22  23
HETATM   23  C18 UNL     1      19.193   3.676  49.503  1.00  0.00     0.284 C 
BRANCH  23  24
HETATM   24  N4  UNL     1      18.460   4.453  50.482  1.00  0.00    -0.411 N 
HETATM   25  H17 UNL     1      18.918   5.316  50.789  1.00  0.00     0.151 HD
HETATM   26  H18 UNL     1      17.451   4.483  50.314  1.00  0.00     0.151 HD
ENDBRANCH  23  24
ENDBRANCH  22  23
ENDBRANCH   9  22
TORSDOF 5
ENDMDL
MODEL 9
REMARK VINA RESULT:      -7.3      3.269      4.527
REMARK  5 active torsions:
REMARK  status: ('A' for Active; 'I' for Inactive)
REMARK    1  A    between atoms: O1_2  and  C2_3 
REMARK    2  A    between atoms: C5_6  and  C6_7 
REMARK    3  A    between atoms: C17_21  and  O2_22 
REMARK    4  A    between atoms: O2_22  and  C18_23 
REMARK    5  A    between atoms: C18_23  and  N4_24 
ROOT
HETATM    1  C2  UNL     1      21.136   2.568  52.394  1.00  0.00     0.077 C 
HETATM    2  C3  UNL     1      22.045   2.092  51.576  1.00  0.00     0.050 C 
HETATM    3  C4  UNL     1      23.139   1.787  50.614  1.00  0.00     0.055 C 
HETATM    4  C5  UNL     1      23.871   2.801  50.258  1.00  0.00     0.069 C 
HETATM    5  N2  UNL     1      23.832   3.411  51.615  1.00  0.00    -0.244 NA
HETATM    6  C15 UNL     1      23.632   2.516  52.627  1.00  0.00     0.232 C 
HETATM    7  N3  UNL     1      23.415   1.205  53.221  1.00  0.00    -0.255 NA
HETATM    8  C16 UNL     1      22.198   0.665  53.223  1.00  0.00     0.129 C 
HETATM    9  C17 UNL     1      20.783   1.178  52.673  1.00  0.00     0.220 C 
ENDROOT
BRANCH   4  10
HETATM   10  C6  UNL     1      24.824   3.778  49.704  1.00  0.00     0.082 A 
HETATM   11  C7  UNL     1      26.173   3.790  49.453  1.00  0.00     0.046 A 
HETATM   12  C8  UNL     1      26.624   4.973  48.928  1.00  0.00    -0.022 A 
HETATM   13  C9  UNL     1      27.995   4.900  48.705  1.00  0.00     0.012 A 
HETATM   14  C13 UNL     1      25.807   6.030  48.680  1.00  0.00    -0.008 A 
HETATM   15  C10 UNL     1      28.574   6.055  48.167  1.00  0.00     0.001 A 
HETATM   16  C11 UNL     1      27.792   7.166  47.892  1.00  0.00     0.001 A 
HETATM   17  C12 UNL     1      26.436   7.129  48.154  1.00  0.00     0.014 A 
HETATM   18  C14 UNL     1      24.458   6.004  48.936  1.00  0.00     0.129 A 
HETATM   19  N1  UNL     1      24.008   4.827  49.459  1.00  0.00    -0.258 NA
ENDBRANCH   4  10
BRANCH   1  20
HETATM   20  O1  UNL     1      21.460   3.845  52.138  1.00  0.00    -0.357 OA
HETATM   21  C1  UNL     1      20.746   4.698  51.252  1.00  0.00     0.209 C 
ENDBRANCH   1  20
BRANCH   9  22
HETATM   22  O2  UNL     1      20.326   0.373  51.714  1.00  0.00    -0.356 OA
BRANCH  22  23
HETATM   23  C18 UNL     1      19.016   0.476  51.326  1.00  0.00     0.284 C 
BRANCH  23  24
HETATM   24  N4  UNL     1      19.009   0.831  49.922  1.00  0.00    -0.411 N 
HETATM   25  H17 UNL     1      19.130   1.827  49.721  1.00  0.00     0.151 HD
HETATM   26  H18 UNL     1      19.501   0.161  49.324  1.00  0.00     0.151 HD
ENDBRANCH  23  24
ENDBRANCH  22  23
ENDBRANCH   9  22
TORSDOF 5
ENDMDL
