MODEL 1
REMARK VINA RESULT:      -7.7      0.000      0.000
REMARK  4 active torsions:
REMARK  status: ('A' for Active; 'I' for Inactive)
REMARK    1  A    between atoms: C2_2  and  C3_3 
REMARK       I    between atoms: C3_3  and  N1_5 
REMARK    2  A    between atoms: N1_5  and  C4_6 
REMARK    3  A    between atoms: C10_12  and  N2_13 
REMARK    4  A    between atoms: N2_13  and  C11_14 
ROOT
HETATM    1  C4  UNL     1      25.930   0.197  52.778  1.00  0.00     0.029 A 
HETATM    2  C5  UNL     1      24.585   0.026  52.990  1.00  0.00     0.015 A 
HETATM    3  C6  UNL     1      23.897   0.993  52.197  1.00  0.00     0.011 A 
HETATM    4  C7  UNL     1      23.287   1.877  51.471  1.00  0.00     0.022 A 
HETATM    5  C8  UNL     1      24.768   1.735  51.539  1.00  0.00     0.021 A 
HETATM    6  C9  UNL     1      26.010   1.285  51.865  1.00  0.00     0.016 A 
HETATM    7  C10 UNL     1      24.819   3.274  51.427  1.00  0.00     0.118 A 
HETATM    8  C17 UNL     1      24.031   3.541  52.765  1.00  0.00    -0.003 A 
HETATM    9  N3  UNL     1      23.722   2.491  52.177  1.00  0.00     0.000 N 
ENDROOT
BRANCH   7  10
HETATM   10  N2  UNL     1      24.234   3.843  50.301  1.00  0.00    -0.381 N 
HETATM   11  H11 UNL     1      23.300   3.439  50.046  1.00  0.00     0.160 HD
BRANCH  10  12
HETATM   12  C11 UNL     1      24.814   4.866  49.550  1.00  0.00     0.029 A 
HETATM   13  C12 UNL     1      24.026   5.877  49.027  1.00  0.00     0.029 A 
HETATM   14  C13 UNL     1      24.621   6.884  48.286  1.00  0.00     0.004 A 
HETATM   15  C14 UNL     1      26.000   6.889  48.058  1.00  0.00     0.019 A 
HETATM   16  C15 UNL     1      26.793   5.879  48.579  1.00  0.00     0.013 A 
HETATM   17 BR1  UNL     1      28.678   5.793  48.330  1.00  0.00    -0.051 Br
HETATM   18  C16 UNL     1      26.176   4.875  49.324  1.00  0.00     0.048 A 
ENDBRANCH  10  12
ENDBRANCH   7  10
BRANCH   1  19
HETATM   19  N1  UNL     1      27.016  -0.459  53.229  1.00  0.00    -0.328 N 
HETATM   20  C3  UNL     1      27.784   0.366  54.047  1.00  0.00     0.221 C 
HETATM   21  O1  UNL     1      27.846   1.500  54.530  1.00  0.00    -0.273 OA
HETATM   22  H6  UNL     1      27.099  -1.418  52.909  1.00  0.00     0.169 HD
BRANCH  20  23
HETATM   23  C2  UNL     1      29.004  -0.275  54.590  1.00  0.00     0.098 C 
HETATM   24  C1  UNL     1      29.779  -0.973  53.495  1.00  0.00     0.014 C 
ENDBRANCH  20  23
ENDBRANCH   1  19
TORSDOF 4
ENDMDL
MODEL 2
REMARK VINA RESULT:      -7.7      3.883      6.074
REMARK  4 active torsions:
REMARK  status: ('A' for Active; 'I' for Inactive)
REMARK    1  A    between atoms: C2_2  and  C3_3 
REMARK       I    between atoms: C3_3  and  N1_5 
REMARK    2  A    between atoms: N1_5  and  C4_6 
REMARK    3  A    between atoms: C10_12  and  N2_13 
REMARK    4  A    between atoms: N2_13  and  C11_14 
ROOT
HETATM    1  C4  UNL     1      26.861   0.818  52.729  1.00  0.00     0.029 A 
HETATM    2  C5  UNL     1      26.802   2.180  52.882  1.00  0.00     0.015 A 
HETATM    3  C6  UNL     1      25.425   2.543  52.986  1.00  0.00     0.011 A 
HETATM    4  C7  UNL     1      24.171   2.856  53.079  1.00  0.00     0.022 A 
HETATM    5  C8  UNL     1      24.669   1.466  52.888  1.00  0.00     0.021 A 
HETATM    6  C9  UNL     1      25.500   0.401  52.730  1.00  0.00     0.016 A 
HETATM    7  C10 UNL     1      23.425   1.251  51.999  1.00  0.00     0.118 A 
HETATM    8  C17 UNL     1      23.821   2.340  50.933  1.00  0.00    -0.003 A 
HETATM    9  N3  UNL     1      24.215   2.573  52.088  1.00  0.00     0.000 N 
ENDROOT
BRANCH   7  10
HETATM   10  N2  UNL     1      22.184   1.461  52.591  1.00  0.00    -0.381 N 
HETATM   11  H11 UNL     1      21.920   2.471  52.700  1.00  0.00     0.160 HD
BRANCH  10  12
HETATM   12  C11 UNL     1      21.337   0.438  53.017  1.00  0.00     0.029 A 
HETATM   13  C12 UNL     1      21.798  -0.526  53.897  1.00  0.00     0.029 A 
HETATM   14  C13 UNL     1      20.941  -1.533  54.308  1.00  0.00     0.004 A 
HETATM   15  C14 UNL     1      19.623  -1.587  53.846  1.00  0.00     0.019 A 
HETATM   16  C15 UNL     1      19.157  -0.624  52.966  1.00  0.00     0.013 A 
HETATM   17 BR1  UNL     1      17.382  -0.606  52.278  1.00  0.00    -0.051 Br
HETATM   18  C16 UNL     1      20.034   0.382  52.564  1.00  0.00     0.048 A 
ENDBRANCH  10  12
ENDBRANCH   7  10
BRANCH   1  19
HETATM   19  N1  UNL     1      27.889  -0.045  52.629  1.00  0.00    -0.328 N 
HETATM   20  C3  UNL     1      28.573  -0.137  53.838  1.00  0.00     0.221 C 
HETATM   21  O1  UNL     1      28.593   0.284  54.998  1.00  0.00    -0.273 OA
HETATM   22  H6  UNL     1      27.998  -0.477  51.717  1.00  0.00     0.169 HD
BRANCH  20  23
HETATM   23  C2  UNL     1      29.726  -1.069  53.821  1.00  0.00     0.098 C 
HETATM   24  C1  UNL     1      29.319  -2.418  53.271  1.00  0.00     0.014 C 
ENDBRANCH  20  23
ENDBRANCH   1  19
TORSDOF 4
ENDMDL
MODEL 3
REMARK VINA RESULT:      -7.4      1.428      1.742
REMARK  4 active torsions:
REMARK  status: ('A' for Active; 'I' for Inactive)
REMARK    1  A    between atoms: C2_2  and  C3_3 
REMARK       I    between atoms: C3_3  and  N1_5 
REMARK    2  A    between atoms: N1_5  and  C4_6 
REMARK    3  A    between atoms: C10_12  and  N2_13 
REMARK    4  A    between atoms: N2_13  and  C11_14 
ROOT
HETATM    1  C4  UNL     1      26.135   0.061  52.686  1.00  0.00     0.029 A 
HETATM    2  C5  UNL     1      24.845  -0.159  53.096  1.00  0.00     0.015 A 
HETATM    3  C6  UNL     1      24.018   0.815  52.460  1.00  0.00     0.011 A 
HETATM    4  C7  UNL     1      23.280   1.706  51.875  1.00  0.00     0.022 A 
HETATM    5  C8  UNL     1      24.757   1.607  51.706  1.00  0.00     0.021 A 
HETATM    6  C9  UNL     1      26.044   1.184  51.817  1.00  0.00     0.016 A 
HETATM    7  C10 UNL     1      24.752   3.150  51.651  1.00  0.00     0.118 A 
HETATM    8  C17 UNL     1      24.176   3.343  53.105  1.00  0.00    -0.003 A 
HETATM    9  N3  UNL     1      23.805   2.306  52.529  1.00  0.00     0.000 N 
ENDROOT
BRANCH   7  10
HETATM   10  N2  UNL     1      23.984   3.742  50.653  1.00  0.00    -0.381 N 
HETATM   11  H11 UNL     1      23.001   3.380  50.590  1.00  0.00     0.160 HD
BRANCH  10  12
HETATM   12  C11 UNL     1      24.451   4.735  49.792  1.00  0.00     0.029 A 
HETATM   13  C12 UNL     1      25.803   5.028  49.737  1.00  0.00     0.029 A 
HETATM   14  C13 UNL     1      26.247   6.017  48.876  1.00  0.00     0.004 A 
HETATM   15  C14 UNL     1      25.350   6.720  48.066  1.00  0.00     0.019 A 
HETATM   16  C15 UNL     1      23.996   6.430  48.118  1.00  0.00     0.013 A 
HETATM   17 BR1  UNL     1      22.692   7.325  47.059  1.00  0.00    -0.051 Br
HETATM   18  C16 UNL     1      23.569   5.430  48.991  1.00  0.00     0.048 A 
ENDBRANCH  10  12
ENDBRANCH   7  10
BRANCH   1  19
HETATM   19  N1  UNL     1      27.294  -0.577  52.936  1.00  0.00    -0.328 N 
HETATM   20  C3  UNL     1      28.024   0.094  53.913  1.00  0.00     0.221 C 
HETATM   21  O1  UNL     1      28.010   1.078  54.658  1.00  0.00    -0.273 OA
HETATM   22  H6  UNL     1      27.445  -1.418  52.387  1.00  0.00     0.169 HD
BRANCH  20  23
HETATM   23  C2  UNL     1      29.320  -0.540  54.252  1.00  0.00     0.098 C 
HETATM   24  C1  UNL     1      29.574  -1.748  53.378  1.00  0.00     0.014 C 
ENDBRANCH  20  23
ENDBRANCH   1  19
TORSDOF 4
ENDMDL
MODEL 4
REMARK VINA RESULT:      -7.3      3.441      6.436
REMARK  4 active torsions:
REMARK  status: ('A' for Active; 'I' for Inactive)
REMARK    1  A    between atoms: C2_2  and  C3_3 
REMARK       I    between atoms: C3_3  and  N1_5 
REMARK    2  A    between atoms: N1_5  and  C4_6 
REMARK    3  A    between atoms: C10_12  and  N2_13 
REMARK    4  A    between atoms: N2_13  and  C11_14 
ROOT
HETATM    1  C4  UNL     1      22.053   1.526  50.641  1.00  0.00     0.029 A 
HETATM    2  C5  UNL     1      22.215   2.748  50.040  1.00  0.00     0.015 A 
HETATM    3  C6  UNL     1      23.505   3.240  50.401  1.00  0.00     0.011 A 
HETATM    4  C7  UNL     1      24.680   3.673  50.738  1.00  0.00     0.022 A 
HETATM    5  C8  UNL     1      24.108   2.376  51.196  1.00  0.00     0.021 A 
HETATM    6  C9  UNL     1      23.261   1.325  51.367  1.00  0.00     0.016 A 
HETATM    7  C10 UNL     1      24.823   2.651  52.537  1.00  0.00     0.118 A 
HETATM    8  C17 UNL     1      24.028   3.973  52.855  1.00  0.00    -0.003 A 
HETATM    9  N3  UNL     1      24.193   3.741  51.645  1.00  0.00     0.000 N 
ENDROOT
BRANCH   7  10
HETATM   10  N2  UNL     1      26.203   2.815  52.492  1.00  0.00    -0.381 N 
HETATM   11  H11 UNL     1      26.518   3.743  52.116  1.00  0.00     0.160 HD
BRANCH  10  12
HETATM   12  C11 UNL     1      27.120   1.848  52.905  1.00  0.00     0.029 A 
HETATM   13  C12 UNL     1      28.261   2.222  53.594  1.00  0.00     0.029 A 
HETATM   14  C13 UNL     1      29.158   1.247  53.996  1.00  0.00     0.004 A 
HETATM   15  C14 UNL     1      28.928  -0.102  53.713  1.00  0.00     0.019 A 
HETATM   16  C15 UNL     1      27.787  -0.481  53.023  1.00  0.00     0.013 A 
HETATM   17 BR1  UNL     1      27.377  -2.288  52.588  1.00  0.00    -0.051 Br
HETATM   18  C16 UNL     1      26.895   0.515  52.628  1.00  0.00     0.048 A 
ENDBRANCH  10  12
ENDBRANCH   7  10
BRANCH   1  19
HETATM   19  N1  UNL     1      21.062   0.615  50.607  1.00  0.00    -0.328 N 
HETATM   20  C3  UNL     1      20.161   0.831  51.646  1.00  0.00     0.221 C 
HETATM   21  O1  UNL     1      19.919   1.562  52.611  1.00  0.00    -0.273 OA
HETATM   22  H6  UNL     1      21.130  -0.062  49.854  1.00  0.00     0.169 HD
BRANCH  20  23
HETATM   23  C2  UNL     1      19.033  -0.129  51.687  1.00  0.00     0.098 C 
HETATM   24  C1  UNL     1      18.805  -0.633  53.095  1.00  0.00     0.014 C 
ENDBRANCH  20  23
ENDBRANCH   1  19
TORSDOF 4
ENDMDL
MODEL 5
REMARK VINA RESULT:      -7.1      4.445      6.535
REMARK  4 active torsions:
REMARK  status: ('A' for Active; 'I' for Inactive)
REMARK    1  A    between atoms: C2_2  and  C3_3 
REMARK       I    between atoms: C3_3  and  N1_5 
REMARK    2  A    between atoms: N1_5  and  C4_6 
REMARK    3  A    between atoms: C10_12  and  N2_13 
REMARK    4  A    between atoms: N2_13  and  C11_14 
ROOT
HETATM    1  C4  UNL     1      24.937   1.098  53.364  1.00  0.00     0.029 A 
HETATM    2  C5  UNL     1      24.892   2.435  53.058  1.00  0.00     0.015 A 
HETATM    3  C6  UNL     1      23.568   2.734  52.618  1.00  0.00     0.011 A 
HETATM    4  C7  UNL     1      22.361   2.989  52.220  1.00  0.00     0.022 A 
HETATM    5  C8  UNL     1      22.832   1.638  52.635  1.00  0.00     0.021 A 
HETATM    6  C9  UNL     1      23.625   0.626  53.079  1.00  0.00     0.016 A 
HETATM    7  C10 UNL     1      21.914   1.088  51.522  1.00  0.00     0.118 A 
HETATM    8  C17 UNL     1      22.666   1.814  50.344  1.00  0.00    -0.003 A 
HETATM    9  N3  UNL     1      22.695   2.415  51.431  1.00  0.00     0.000 N 
ENDROOT
BRANCH   7  10
HETATM   10  N2  UNL     1      20.562   1.400  51.610  1.00  0.00    -0.381 N 
HETATM   11  H11 UNL     1      20.330   2.397  51.376  1.00  0.00     0.160 HD
BRANCH  10  12
HETATM   12  C11 UNL     1      19.570   0.490  51.977  1.00  0.00     0.029 A 
HETATM   13  C12 UNL     1      19.726  -0.289  53.111  1.00  0.00     0.029 A 
HETATM   14  C13 UNL     1      18.730  -1.185  53.458  1.00  0.00     0.004 A 
HETATM   15  C14 UNL     1      17.576  -1.314  52.681  1.00  0.00     0.019 A 
HETATM   16  C15 UNL     1      17.416  -0.536  51.545  1.00  0.00     0.013 A 
HETATM   17 BR1  UNL     1      15.884  -0.632  50.418  1.00  0.00    -0.051 Br
HETATM   18  C16 UNL     1      18.429   0.361  51.212  1.00  0.00     0.048 A 
ENDBRANCH  10  12
ENDBRANCH   7  10
BRANCH   1  19
HETATM   19  N1  UNL     1      25.907   0.306  53.857  1.00  0.00    -0.328 N 
HETATM   20  C3  UNL     1      26.678  -0.227  52.828  1.00  0.00     0.221 C 
HETATM   21  O1  UNL     1      26.813  -0.246  51.601  1.00  0.00    -0.273 OA
HETATM   22  H6  UNL     1      25.919   0.225  54.869  1.00  0.00     0.169 HD
BRANCH  20  23
HETATM   23  C2  UNL     1      27.774  -1.116  53.280  1.00  0.00     0.098 C 
HETATM   24  C1  UNL     1      28.928  -0.309  53.832  1.00  0.00     0.014 C 
ENDBRANCH  20  23
ENDBRANCH   1  19
TORSDOF 4
ENDMDL
MODEL 6
REMARK VINA RESULT:      -6.9      3.800      7.013
REMARK  4 active torsions:
REMARK  status: ('A' for Active; 'I' for Inactive)
REMARK    1  A    between atoms: C2_2  and  C3_3 
REMARK       I    between atoms: C3_3  and  N1_5 
REMARK    2  A    between atoms: N1_5  and  C4_6 
REMARK    3  A    between atoms: C10_12  and  N2_13 
REMARK    4  A    between atoms: N2_13  and  C11_14 
ROOT
HETATM    1  C4  UNL     1      23.619   5.869  51.243  1.00  0.00     0.029 A 
HETATM    2  C5  UNL     1      22.322   6.252  51.016  1.00  0.00     0.015 A 
HETATM    3  C6  UNL     1      21.476   5.176  51.420  1.00  0.00     0.011 A 
HETATM    4  C7  UNL     1      20.722   4.189  51.792  1.00  0.00     0.022 A 
HETATM    5  C8  UNL     1      22.209   4.172  51.862  1.00  0.00     0.021 A 
HETATM    6  C9  UNL     1      23.512   4.551  51.770  1.00  0.00     0.016 A 
HETATM    7  C10 UNL     1      22.107   2.677  51.485  1.00  0.00     0.118 A 
HETATM    8  C17 UNL     1      21.427   2.928  50.087  1.00  0.00    -0.003 A 
HETATM    9  N3  UNL     1      21.163   3.776  50.956  1.00  0.00     0.000 N 
ENDROOT
BRANCH   7  10
HETATM   10  N2  UNL     1      21.370   1.862  52.337  1.00  0.00    -0.381 N 
HETATM   11  H11 UNL     1      20.336   2.046  52.327  1.00  0.00     0.160 HD
BRANCH  10  12
HETATM   12  C11 UNL     1      21.925   0.875  53.151  1.00  0.00     0.029 A 
HETATM   13  C12 UNL     1      21.134   0.206  54.070  1.00  0.00     0.029 A 
HETATM   14  C13 UNL     1      21.704  -0.772  54.867  1.00  0.00     0.004 A 
HETATM   15  C14 UNL     1      23.061  -1.088  54.757  1.00  0.00     0.019 A 
HETATM   16  C15 UNL     1      23.856  -0.422  53.839  1.00  0.00     0.013 A 
HETATM   17 BR1  UNL     1      25.712  -0.776  53.608  1.00  0.00    -0.051 Br
HETATM   18  C16 UNL     1      23.264   0.559  53.044  1.00  0.00     0.048 A 
ENDBRANCH  10  12
ENDBRANCH   7  10
BRANCH   1  19
HETATM   19  N1  UNL     1      24.798   6.499  51.088  1.00  0.00    -0.328 N 
HETATM   20  C3  UNL     1      25.250   6.382  49.777  1.00  0.00     0.221 C 
HETATM   21  O1  UNL     1      24.970   5.906  48.672  1.00  0.00    -0.273 OA
HETATM   22  H6  UNL     1      25.158   6.944  51.927  1.00  0.00     0.169 HD
BRANCH  20  23
HETATM   23  C2  UNL     1      26.547   7.048  49.514  1.00  0.00     0.098 C 
HETATM   24  C1  UNL     1      27.264   6.393  48.354  1.00  0.00     0.014 C 
ENDBRANCH  20  23
ENDBRANCH   1  19
TORSDOF 4
ENDMDL
MODEL 7
REMARK VINA RESULT:      -6.9      5.394      8.507
REMARK  4 active torsions:
REMARK  status: ('A' for Active; 'I' for Inactive)
REMARK    1  A    between atoms: C2_2  and  C3_3 
REMARK       I    between atoms: C3_3  and  N1_5 
REMARK    2  A    between atoms: N1_5  and  C4_6 
REMARK    3  A    between atoms: C10_12  and  N2_13 
REMARK    4  A    between atoms: N2_13  and  C11_14 
ROOT
HETATM    1  C4  UNL     1      27.382   6.244  48.266  1.00  0.00     0.029 A 
HETATM    2  C5  UNL     1      27.505   7.432  47.591  1.00  0.00     0.015 A 
HETATM    3  C6  UNL     1      28.875   7.577  47.217  1.00  0.00     0.011 A 
HETATM    4  C7  UNL     1      30.122   7.693  46.885  1.00  0.00     0.022 A 
HETATM    5  C8  UNL     1      29.569   6.541  47.650  1.00  0.00     0.021 A 
HETATM    6  C9  UNL     1      28.702   5.712  48.291  1.00  0.00     0.016 A 
HETATM    7  C10 UNL     1      30.905   6.544  48.424  1.00  0.00     0.118 A 
HETATM    8  C17 UNL     1      30.724   7.992  49.017  1.00  0.00    -0.003 A 
HETATM    9  N3  UNL     1      30.194   7.812  47.907  1.00  0.00     0.000 N 
ENDROOT
BRANCH   7  10
HETATM   10  N2  UNL     1      32.066   6.378  47.676  1.00  0.00    -0.381 N 
HETATM   11  H11 UNL     1      32.303   7.191  47.056  1.00  0.00     0.160 HD
BRANCH  10  12
HETATM   12  C11 UNL     1      32.871   5.239  47.721  1.00  0.00     0.029 A 
HETATM   13  C12 UNL     1      34.195   5.339  48.113  1.00  0.00     0.029 A 
HETATM   14  C13 UNL     1      34.976   4.197  48.152  1.00  0.00     0.004 A 
HETATM   15  C14 UNL     1      34.447   2.952  47.801  1.00  0.00     0.019 A 
HETATM   16  C15 UNL     1      33.122   2.847  47.408  1.00  0.00     0.013 A 
HETATM   17 BR1  UNL     1      32.304   1.202  46.911  1.00  0.00    -0.051 Br
HETATM   18  C16 UNL     1      32.351   4.008  47.375  1.00  0.00     0.048 A 
ENDBRANCH  10  12
ENDBRANCH   7  10
BRANCH   1  19
HETATM   19  N1  UNL     1      26.325   5.599  48.796  1.00  0.00    -0.328 N 
HETATM   20  C3  UNL     1      25.764   6.343  49.831  1.00  0.00     0.221 C 
HETATM   21  O1  UNL     1      25.871   7.398  50.462  1.00  0.00    -0.273 OA
HETATM   22  H6  UNL     1      26.115   4.702  48.370  1.00  0.00     0.169 HD
BRANCH  20  23
HETATM   23  C2  UNL     1      24.591   5.707  50.475  1.00  0.00     0.098 C 
HETATM   24  C1  UNL     1      23.749   6.736  51.197  1.00  0.00     0.014 C 
ENDBRANCH  20  23
ENDBRANCH   1  19
TORSDOF 4
ENDMDL
MODEL 8
REMARK VINA RESULT:      -6.7      3.105      6.772
REMARK  4 active torsions:
REMARK  status: ('A' for Active; 'I' for Inactive)
REMARK    1  A    between atoms: C2_2  and  C3_3 
REMARK       I    between atoms: C3_3  and  N1_5 
REMARK    2  A    between atoms: N1_5  and  C4_6 
REMARK    3  A    between atoms: C10_12  and  N2_13 
REMARK    4  A    between atoms: N2_13  and  C11_14 
ROOT
HETATM    1  C4  UNL     1      23.271   6.456  51.375  1.00  0.00     0.029 A 
HETATM    2  C5  UNL     1      21.944   6.138  51.240  1.00  0.00     0.015 A 
HETATM    3  C6  UNL     1      21.797   4.755  51.562  1.00  0.00     0.011 A 
HETATM    4  C7  UNL     1      21.680   3.499  51.859  1.00  0.00     0.022 A 
HETATM    5  C8  UNL     1      22.972   4.239  51.869  1.00  0.00     0.021 A 
HETATM    6  C9  UNL     1      23.891   5.236  51.765  1.00  0.00     0.016 A 
HETATM    7  C10 UNL     1      23.607   2.933  51.342  1.00  0.00     0.118 A 
HETATM    8  C17 UNL     1      22.775   2.898  50.005  1.00  0.00    -0.003 A 
HETATM    9  N3  UNL     1      22.195   3.428  50.968  1.00  0.00     0.000 N 
ENDROOT
BRANCH   7  10
HETATM   10  N2  UNL     1      23.459   1.798  52.133  1.00  0.00    -0.381 N 
HETATM   11  H11 UNL     1      22.486   1.405  52.150  1.00  0.00     0.160 HD
BRANCH  10  12
HETATM   12  C11 UNL     1      24.496   1.207  52.856  1.00  0.00     0.029 A 
HETATM   13  C12 UNL     1      24.285   0.012  53.522  1.00  0.00     0.029 A 
HETATM   14  C13 UNL     1      25.327  -0.559  54.233  1.00  0.00     0.004 A 
HETATM   15  C14 UNL     1      26.581   0.055  54.287  1.00  0.00     0.019 A 
HETATM   16  C15 UNL     1      26.797   1.252  53.621  1.00  0.00     0.013 A 
HETATM   17 BR1  UNL     1      28.465   2.169  53.629  1.00  0.00    -0.051 Br
HETATM   18  C16 UNL     1      25.736   1.811  52.910  1.00  0.00     0.048 A 
ENDBRANCH  10  12
ENDBRANCH   7  10
BRANCH   1  19
HETATM   19  N1  UNL     1      23.952   7.610  51.241  1.00  0.00    -0.328 N 
HETATM   20  C3  UNL     1      24.543   7.689  49.982  1.00  0.00     0.221 C 
HETATM   21  O1  UNL     1      24.681   7.086  48.915  1.00  0.00    -0.273 OA
HETATM   22  H6  UNL     1      23.927   8.218  52.054  1.00  0.00     0.169 HD
BRANCH  20  23
HETATM   23  C2  UNL     1      25.316   8.931  49.746  1.00  0.00     0.098 C 
HETATM   24  C1  UNL     1      26.760   8.754  50.161  1.00  0.00     0.014 C 
ENDBRANCH  20  23
ENDBRANCH   1  19
TORSDOF 4
ENDMDL
MODEL 9
REMARK VINA RESULT:      -6.7      3.121      6.496
REMARK  4 active torsions:
REMARK  status: ('A' for Active; 'I' for Inactive)
REMARK    1  A    between atoms: C2_2  and  C3_3 
REMARK       I    between atoms: C3_3  and  N1_5 
REMARK    2  A    between atoms: N1_5  and  C4_6 
REMARK    3  A    between atoms: C10_12  and  N2_13 
REMARK    4  A    between atoms: N2_13  and  C11_14 
ROOT
HETATM    1  C4  UNL     1      25.787   5.979  49.145  1.00  0.00     0.029 A 
HETATM    2  C5  UNL     1      24.541   6.375  48.730  1.00  0.00     0.015 A 
HETATM    3  C6  UNL     1      23.581   5.568  49.413  1.00  0.00     0.011 A 
HETATM    4  C7  UNL     1      22.723   4.828  50.041  1.00  0.00     0.022 A 
HETATM    5  C8  UNL     1      24.199   4.707  50.199  1.00  0.00     0.021 A 
HETATM    6  C9  UNL     1      25.535   4.923  50.064  1.00  0.00     0.016 A 
HETATM    7  C10 UNL     1      23.959   3.187  50.324  1.00  0.00     0.118 A 
HETATM    8  C17 UNL     1      23.345   3.020  48.883  1.00  0.00    -0.003 A 
HETATM    9  N3  UNL     1      23.143   4.126  49.412  1.00  0.00     0.000 N 
ENDROOT
BRANCH   7  10
HETATM   10  N2  UNL     1      23.121   2.764  51.351  1.00  0.00    -0.381 N 
HETATM   11  H11 UNL     1      22.263   3.355  51.482  1.00  0.00     0.160 HD
BRANCH  10  12
HETATM   12  C11 UNL     1      23.371   1.654  52.158  1.00  0.00     0.029 A 
HETATM   13  C12 UNL     1      22.359   1.121  52.939  1.00  0.00     0.029 A 
HETATM   14  C13 UNL     1      22.626   0.018  53.732  1.00  0.00     0.004 A 
HETATM   15  C14 UNL     1      23.899  -0.559  53.754  1.00  0.00     0.019 A 
HETATM   16  C15 UNL     1      24.914  -0.029  52.973  1.00  0.00     0.013 A 
HETATM   17 BR1  UNL     1      26.680  -0.739  52.929  1.00  0.00    -0.051 Br
HETATM   18  C16 UNL     1      24.626   1.081  52.181  1.00  0.00     0.048 A 
ENDBRANCH  10  12
ENDBRANCH   7  10
BRANCH   1  19
HETATM   19  N1  UNL     1      27.027   6.421  48.862  1.00  0.00    -0.328 N 
HETATM   20  C3  UNL     1      27.882   5.353  48.605  1.00  0.00     0.221 C 
HETATM   21  O1  UNL     1      27.935   4.121  48.535  1.00  0.00    -0.273 OA
HETATM   22  H6  UNL     1      27.136   7.430  48.882  1.00  0.00     0.169 HD
BRANCH  20  23
HETATM   23  C2  UNL     1      29.274   5.746  48.283  1.00  0.00     0.098 C 
HETATM   24  C1  UNL     1      29.299   7.024  47.475  1.00  0.00     0.014 C 
ENDBRANCH  20  23
ENDBRANCH   1  19
TORSDOF 4
ENDMDL
