MODEL 1
REMARK VINA RESULT:      -9.1      0.000      0.000
REMARK  5 active torsions:
REMARK  status: ('A' for Active; 'I' for Inactive)
REMARK    1  A    between atoms: C3_3  and  C4_4 
REMARK       I    between atoms: C4_4  and  N1_6 
REMARK    2  A    between atoms: N1_6  and  C5_7 
REMARK    3  A    between atoms: C8_10  and  N2_11 
REMARK    4  A    between atoms: N2_11  and  C9_12 
REMARK    5  A    between atoms: C20_26  and  O2_27 
ROOT
HETATM    1  C1  UNL     1      28.859   6.552  47.965  1.00  0.00     0.112 C 
HETATM    2  C2  UNL     1      27.951   5.525  48.498  1.00  0.00    -0.101 C 
HETATM    3  C3  UNL     1      27.189   4.672  48.923  1.00  0.00    -0.006 C 
ENDROOT
BRANCH   3   4
HETATM    4  C4  UNL     1      26.306   3.651  49.426  1.00  0.00     0.301 C 
HETATM    5  O1  UNL     1      26.832   2.600  49.889  1.00  0.00    -0.258 OA
HETATM    6  N1  UNL     1      24.908   3.910  49.360  1.00  0.00    -0.314 N 
HETATM    7  H4  UNL     1      24.553   4.808  48.960  1.00  0.00     0.170 HD
BRANCH   6   8
HETATM    8  C5  UNL     1      23.892   3.008  49.812  1.00  0.00     0.070 A 
HETATM    9  C6  UNL     1      24.045   2.387  51.049  1.00  0.00     0.048 A 
HETATM   10  C7  UNL     1      23.041   1.528  51.441  1.00  0.00     0.023 A 
HETATM   11  C8  UNL     1      23.179   0.905  52.666  1.00  0.00     0.067 A 
HETATM   12  C18 UNL     1      21.929   1.275  50.664  1.00  0.00     0.071 A 
HETATM   13  C15 UNL     1      22.173   0.045  53.055  1.00  0.00     0.089 A 
HETATM   14  C16 UNL     1      22.222  -0.660  54.326  1.00  0.00     0.103 C 
HETATM   15  C17 UNL     1      21.054  -0.217  52.290  1.00  0.00     0.142 A 
HETATM   16  N3  UNL     1      22.248  -1.219  55.349  1.00  0.00    -0.191 NA
HETATM   17  N4  UNL     1      20.968   0.414  51.104  1.00  0.00    -0.259 NA
HETATM   18  C19 UNL     1      21.830   1.922  49.442  1.00  0.00     0.071 A 
HETATM   19  C20 UNL     1      22.798   2.795  48.986  1.00  0.00     0.097 A 
BRANCH  11  20
HETATM   20  N2  UNL     1      24.252   1.068  53.553  1.00  0.00    -0.354 N 
HETATM   21  H6  UNL     1      23.943   1.659  54.357  1.00  0.00     0.166 HD
BRANCH  20  22
HETATM   22  C9  UNL     1      25.564   0.535  53.422  1.00  0.00     0.033 A 
HETATM   23  C10 UNL     1      25.680  -0.739  52.913  1.00  0.00     0.029 A 
HETATM   24  C11 UNL     1      26.978  -1.245  52.792  1.00  0.00     0.004 A 
HETATM   25  C12 UNL     1      28.050  -0.461  53.179  1.00  0.00     0.019 A 
HETATM   26  C13 UNL     1      27.894   0.830  53.692  1.00  0.00     0.013 A 
HETATM   27 BR1  UNL     1      29.416   1.849  54.204  1.00  0.00    -0.051 Br
HETATM   28  C14 UNL     1      26.606   1.340  53.816  1.00  0.00     0.048 A 
ENDBRANCH  20  22
ENDBRANCH  11  20
BRANCH  19  29
HETATM   29  O2  UNL     1      22.648   3.408  47.764  1.00  0.00    -0.354 OA
HETATM   30  C21 UNL     1      21.548   3.126  46.902  1.00  0.00     0.210 C 
ENDBRANCH  19  29
ENDBRANCH   6   8
ENDBRANCH   3   4
TORSDOF 5
ENDMDL
MODEL 2
REMARK VINA RESULT:      -8.8      2.406      5.081
REMARK  5 active torsions:
REMARK  status: ('A' for Active; 'I' for Inactive)
REMARK    1  A    between atoms: C3_3  and  C4_4 
REMARK       I    between atoms: C4_4  and  N1_6 
REMARK    2  A    between atoms: N1_6  and  C5_7 
REMARK    3  A    between atoms: C8_10  and  N2_11 
REMARK    4  A    between atoms: N2_11  and  C9_12 
REMARK    5  A    between atoms: C20_26  and  O2_27 
ROOT
HETATM    1  C1  UNL     1      28.438   6.619  47.899  1.00  0.00     0.112 C 
HETATM    2  C2  UNL     1      27.720   5.526  48.574  1.00  0.00    -0.101 C 
HETATM    3  C3  UNL     1      27.124   4.631  49.149  1.00  0.00    -0.006 C 
ENDROOT
BRANCH   3   4
HETATM    4  C4  UNL     1      26.402   3.577  49.816  1.00  0.00     0.301 C 
HETATM    5  O1  UNL     1      25.478   3.005  49.172  1.00  0.00    -0.258 OA
HETATM    6  N1  UNL     1      26.791   3.265  51.148  1.00  0.00    -0.314 N 
HETATM    7  H4  UNL     1      27.569   3.788  51.611  1.00  0.00     0.170 HD
BRANCH   6   8
HETATM    8  C5  UNL     1      26.183   2.250  51.956  1.00  0.00     0.070 A 
HETATM    9  C6  UNL     1      24.795   2.149  51.978  1.00  0.00     0.048 A 
HETATM   10  C7  UNL     1      24.257   1.157  52.769  1.00  0.00     0.023 A 
HETATM   11  C8  UNL     1      22.880   1.044  52.801  1.00  0.00     0.067 A 
HETATM   12  C18 UNL     1      25.033   0.293  53.515  1.00  0.00     0.071 A 
HETATM   13  C15 UNL     1      22.345   0.051  53.594  1.00  0.00     0.089 A 
HETATM   14  C16 UNL     1      20.908  -0.151  53.697  1.00  0.00     0.103 C 
HETATM   15  C17 UNL     1      23.108  -0.821  54.345  1.00  0.00     0.142 A 
HETATM   16  N3  UNL     1      19.759  -0.327  53.774  1.00  0.00    -0.191 NA
HETATM   17  N4  UNL     1      24.444  -0.669  54.281  1.00  0.00    -0.259 NA
HETATM   18  C19 UNL     1      26.410   0.441  53.454  1.00  0.00     0.071 A 
HETATM   19  C20 UNL     1      27.017   1.412  52.683  1.00  0.00     0.097 A 
BRANCH  11  20
HETATM   20  N2  UNL     1      21.975   1.851  52.097  1.00  0.00    -0.354 N 
HETATM   21  H6  UNL     1      21.370   2.361  52.778  1.00  0.00     0.166 HD
BRANCH  20  22
HETATM   22  C9  UNL     1      21.861   1.985  50.686  1.00  0.00     0.033 A 
HETATM   23  C10 UNL     1      21.529   0.857  49.968  1.00  0.00     0.029 A 
HETATM   24  C11 UNL     1      21.422   1.009  48.582  1.00  0.00     0.004 A 
HETATM   25  C12 UNL     1      21.649   2.251  48.018  1.00  0.00     0.019 A 
HETATM   26  C13 UNL     1      21.984   3.375  48.778  1.00  0.00     0.013 A 
HETATM   27 BR1  UNL     1      22.282   5.052  47.930  1.00  0.00    -0.051 Br
HETATM   28  C14 UNL     1      22.093   3.232  50.156  1.00  0.00     0.048 A 
ENDBRANCH  20  22
ENDBRANCH  11  20
BRANCH  19  29
HETATM   29  O2  UNL     1      28.388   1.513  52.661  1.00  0.00    -0.354 OA
HETATM   30  C21 UNL     1      29.210   0.918  53.663  1.00  0.00     0.210 C 
ENDBRANCH  19  29
ENDBRANCH   6   8
ENDBRANCH   3   4
TORSDOF 5
ENDMDL
MODEL 3
REMARK VINA RESULT:      -8.5      3.135      6.193
REMARK  5 active torsions:
REMARK  status: ('A' for Active; 'I' for Inactive)
REMARK    1  A    between atoms: C3_3  and  C4_4 
REMARK       I    between atoms: C4_4  and  N1_6 
REMARK    2  A    between atoms: N1_6  and  C5_7 
REMARK    3  A    between atoms: C8_10  and  N2_11 
REMARK    4  A    between atoms: N2_11  and  C9_12 
REMARK    5  A    between atoms: C20_26  and  O2_27 
ROOT
HETATM    1  C1  UNL     1      30.106  -1.116  54.071  1.00  0.00     0.112 C 
HETATM    2  C2  UNL     1      28.896  -0.498  53.505  1.00  0.00    -0.101 C 
HETATM    3  C3  UNL     1      27.891   0.025  53.051  1.00  0.00    -0.006 C 
ENDROOT
BRANCH   3   4
HETATM    4  C4  UNL     1      26.717   0.652  52.500  1.00  0.00     0.301 C 
HETATM    5  O1  UNL     1      26.776   1.052  51.303  1.00  0.00    -0.258 OA
HETATM    6  N1  UNL     1      25.583   0.770  53.352  1.00  0.00    -0.314 N 
HETATM    7  H4  UNL     1      25.616   0.413  54.333  1.00  0.00     0.170 HD
BRANCH   6   8
HETATM    8  C5  UNL     1      24.338   1.365  52.969  1.00  0.00     0.070 A 
HETATM    9  C6  UNL     1      24.318   2.707  52.599  1.00  0.00     0.048 A 
HETATM   10  C7  UNL     1      23.097   3.235  52.239  1.00  0.00     0.023 A 
HETATM   11  C8  UNL     1      23.062   4.565  51.870  1.00  0.00     0.067 A 
HETATM   12  C18 UNL     1      21.934   2.492  52.237  1.00  0.00     0.071 A 
HETATM   13  C15 UNL     1      21.838   5.090  51.510  1.00  0.00     0.089 A 
HETATM   14  C16 UNL     1      21.694   6.480  51.105  1.00  0.00     0.103 C 
HETATM   15  C17 UNL     1      20.667   4.360  51.502  1.00  0.00     0.142 A 
HETATM   16  N3  UNL     1      21.573   7.589  50.767  1.00  0.00    -0.191 NA
HETATM   17  N4  UNL     1      20.754   3.068  51.871  1.00  0.00    -0.259 NA
HETATM   18  C19 UNL     1      22.014   1.160  52.614  1.00  0.00     0.071 A 
HETATM   19  C20 UNL     1      23.203   0.567  52.987  1.00  0.00     0.097 A 
BRANCH  11  20
HETATM   20  N2  UNL     1      24.162   5.434  51.827  1.00  0.00    -0.354 N 
HETATM   21  H6  UNL     1      24.278   5.884  52.761  1.00  0.00     0.166 HD
BRANCH  20  22
HETATM   22  C9  UNL     1      25.010   5.691  50.715  1.00  0.00     0.033 A 
HETATM   23  C10 UNL     1      25.506   4.602  50.032  1.00  0.00     0.029 A 
HETATM   24  C11 UNL     1      26.339   4.877  48.943  1.00  0.00     0.004 A 
HETATM   25  C12 UNL     1      26.613   6.192  48.614  1.00  0.00     0.019 A 
HETATM   26  C13 UNL     1      26.091   7.273  49.330  1.00  0.00     0.013 A 
HETATM   27 BR1  UNL     1      26.514   9.056  48.818  1.00  0.00    -0.051 Br
HETATM   28  C14 UNL     1      25.264   7.008  50.415  1.00  0.00     0.048 A 
ENDBRANCH  20  22
ENDBRANCH  11  20
BRANCH  19  29
HETATM   29  O2  UNL     1      23.223  -0.759  53.353  1.00  0.00    -0.354 OA
HETATM   30  C21 UNL     1      22.589  -1.230  54.539  1.00  0.00     0.210 C 
ENDBRANCH  19  29
ENDBRANCH   6   8
ENDBRANCH   3   4
TORSDOF 5
ENDMDL
MODEL 4
REMARK VINA RESULT:      -8.3      3.488      6.489
REMARK  5 active torsions:
REMARK  status: ('A' for Active; 'I' for Inactive)
REMARK    1  A    between atoms: C3_3  and  C4_4 
REMARK       I    between atoms: C4_4  and  N1_6 
REMARK    2  A    between atoms: N1_6  and  C5_7 
REMARK    3  A    between atoms: C8_10  and  N2_11 
REMARK    4  A    between atoms: N2_11  and  C9_12 
REMARK    5  A    between atoms: C20_26  and  O2_27 
ROOT
HETATM    1  C1  UNL     1      16.494   3.210  48.322  1.00  0.00     0.112 C 
HETATM    2  C2  UNL     1      17.366   2.766  49.420  1.00  0.00    -0.101 C 
HETATM    3  C3  UNL     1      18.101   2.412  50.328  1.00  0.00    -0.006 C 
ENDROOT
BRANCH   3   4
HETATM    4  C4  UNL     1      18.953   2.000  51.414  1.00  0.00     0.301 C 
HETATM    5  O1  UNL     1      19.261   2.870  52.277  1.00  0.00    -0.258 OA
HETATM    6  N1  UNL     1      19.380   0.642  51.426  1.00  0.00    -0.314 N 
HETATM    7  H4  UNL     1      19.080  -0.016  50.672  1.00  0.00     0.170 HD
BRANCH   6   8
HETATM    8  C5  UNL     1      20.227   0.066  52.427  1.00  0.00     0.070 A 
HETATM    9  C6  UNL     1      21.593   0.332  52.388  1.00  0.00     0.048 A 
HETATM   10  C7  UNL     1      22.367  -0.245  53.371  1.00  0.00     0.023 A 
HETATM   11  C8  UNL     1      23.724   0.011  53.346  1.00  0.00     0.067 A 
HETATM   12  C18 UNL     1      21.840  -1.053  54.359  1.00  0.00     0.071 A 
HETATM   13  C15 UNL     1      24.496  -0.568  54.332  1.00  0.00     0.089 A 
HETATM   14  C16 UNL     1      25.934  -0.362  54.394  1.00  0.00     0.103 C 
HETATM   15  C17 UNL     1      23.983  -1.378  55.326  1.00  0.00     0.142 A 
HETATM   16  N3  UNL     1      27.085  -0.191  54.458  1.00  0.00    -0.191 NA
HETATM   17  N4  UNL     1      22.655  -1.597  55.306  1.00  0.00    -0.259 NA
HETATM   18  C19 UNL     1      20.473  -1.283  54.348  1.00  0.00     0.071 A 
HETATM   19  C20 UNL     1      19.638  -0.738  53.392  1.00  0.00     0.097 A 
BRANCH  11  20
HETATM   20  N2  UNL     1      24.391   0.809  52.406  1.00  0.00    -0.354 N 
HETATM   21  H6  UNL     1      25.109   0.231  51.916  1.00  0.00     0.166 HD
BRANCH  20  22
HETATM   22  C9  UNL     1      24.161   2.185  52.130  1.00  0.00     0.033 A 
HETATM   23  C10 UNL     1      24.115   3.046  53.204  1.00  0.00     0.029 A 
HETATM   24  C11 UNL     1      23.887   4.395  52.912  1.00  0.00     0.004 A 
HETATM   25  C12 UNL     1      23.726   4.784  51.594  1.00  0.00     0.019 A 
HETATM   26  C13 UNL     1      23.780   3.882  50.529  1.00  0.00     0.013 A 
HETATM   27 BR1  UNL     1      23.548   4.493  48.742  1.00  0.00    -0.051 Br
HETATM   28  C14 UNL     1      24.004   2.539  50.811  1.00  0.00     0.048 A 
ENDBRANCH  20  22
ENDBRANCH  11  20
BRANCH  19  29
HETATM   29  O2  UNL     1      18.289  -1.001  53.430  1.00  0.00    -0.354 OA
HETATM   30  C21 UNL     1      17.776  -2.327  53.537  1.00  0.00     0.210 C 
ENDBRANCH  19  29
ENDBRANCH   6   8
ENDBRANCH   3   4
TORSDOF 5
ENDMDL
MODEL 5
REMARK VINA RESULT:      -8.2      2.877      6.051
REMARK  5 active torsions:
REMARK  status: ('A' for Active; 'I' for Inactive)
REMARK    1  A    between atoms: C3_3  and  C4_4 
REMARK       I    between atoms: C4_4  and  N1_6 
REMARK    2  A    between atoms: N1_6  and  C5_7 
REMARK    3  A    between atoms: C8_10  and  N2_11 
REMARK    4  A    between atoms: N2_11  and  C9_12 
REMARK    5  A    between atoms: C20_26  and  O2_27 
ROOT
HETATM    1  C1  UNL     1      30.274  -0.532  53.462  1.00  0.00     0.112 C 
HETATM    2  C2  UNL     1      28.913   0.025  53.479  1.00  0.00    -0.101 C 
HETATM    3  C3  UNL     1      27.790   0.504  53.491  1.00  0.00    -0.006 C 
ENDROOT
BRANCH   3   4
HETATM    4  C4  UNL     1      26.462   1.060  53.487  1.00  0.00     0.301 C 
HETATM    5  O1  UNL     1      26.269   2.117  54.153  1.00  0.00    -0.258 OA
HETATM    6  N1  UNL     1      25.472   0.373  52.730  1.00  0.00    -0.314 N 
HETATM    7  H4  UNL     1      25.713  -0.497  52.206  1.00  0.00     0.170 HD
BRANCH   6   8
HETATM    8  C5  UNL     1      24.105   0.785  52.616  1.00  0.00     0.070 A 
HETATM    9  C6  UNL     1      23.760   1.713  51.636  1.00  0.00     0.048 A 
HETATM   10  C7  UNL     1      22.433   2.078  51.566  1.00  0.00     0.023 A 
HETATM   11  C8  UNL     1      22.076   2.997  50.599  1.00  0.00     0.067 A 
HETATM   12  C18 UNL     1      21.472   1.567  52.414  1.00  0.00     0.071 A 
HETATM   13  C15 UNL     1      20.747   3.361  50.531  1.00  0.00     0.089 A 
HETATM   14  C16 UNL     1      20.269   4.321  49.549  1.00  0.00     0.103 C 
HETATM   15  C17 UNL     1      19.774   2.858  51.371  1.00  0.00     0.142 A 
HETATM   16  N3  UNL     1      19.876   5.080  48.756  1.00  0.00    -0.191 NA
HETATM   17  N4  UNL     1      20.174   1.966  52.297  1.00  0.00    -0.259 NA
HETATM   18  C19 UNL     1      21.873   0.646  53.370  1.00  0.00     0.071 A 
HETATM   19  C20 UNL     1      23.185   0.235  53.498  1.00  0.00     0.097 A 
BRANCH  11  20
HETATM   20  N2  UNL     1      22.945   3.595  49.676  1.00  0.00    -0.354 N 
HETATM   21  H6  UNL     1      22.861   3.104  48.759  1.00  0.00     0.166 HD
BRANCH  20  22
HETATM   22  C9  UNL     1      23.818   4.694  49.905  1.00  0.00     0.033 A 
HETATM   23  C10 UNL     1      23.409   5.649  50.810  1.00  0.00     0.029 A 
HETATM   24  C11 UNL     1      24.281   6.721  51.021  1.00  0.00     0.004 A 
HETATM   25  C12 UNL     1      25.479   6.767  50.330  1.00  0.00     0.019 A 
HETATM   26  C13 UNL     1      25.862   5.779  49.419  1.00  0.00     0.013 A 
HETATM   27 BR1  UNL     1      27.525   5.910  48.505  1.00  0.00    -0.051 Br
HETATM   28  C14 UNL     1      24.999   4.710  49.202  1.00  0.00     0.048 A 
ENDBRANCH  20  22
ENDBRANCH  11  20
BRANCH  19  29
HETATM   29  O2  UNL     1      23.526  -0.680  54.466  1.00  0.00    -0.354 OA
HETATM   30  C21 UNL     1      22.547  -1.430  55.181  1.00  0.00     0.210 C 
ENDBRANCH  19  29
ENDBRANCH   6   8
ENDBRANCH   3   4
TORSDOF 5
ENDMDL
MODEL 6
REMARK VINA RESULT:      -8.0      2.806      5.477
REMARK  5 active torsions:
REMARK  status: ('A' for Active; 'I' for Inactive)
REMARK    1  A    between atoms: C3_3  and  C4_4 
REMARK       I    between atoms: C4_4  and  N1_6 
REMARK    2  A    between atoms: N1_6  and  C5_7 
REMARK    3  A    between atoms: C8_10  and  N2_11 
REMARK    4  A    between atoms: N2_11  and  C9_12 
REMARK    5  A    between atoms: C20_26  and  O2_27 
ROOT
HETATM    1  C1  UNL     1      27.956   5.037  48.353  1.00  0.00     0.112 C 
HETATM    2  C2  UNL     1      27.058   4.368  49.306  1.00  0.00    -0.101 C 
HETATM    3  C3  UNL     1      26.298   3.818  50.087  1.00  0.00    -0.006 C 
ENDROOT
BRANCH   3   4
HETATM    4  C4  UNL     1      25.408   3.150  51.002  1.00  0.00     0.301 C 
HETATM    5  O1  UNL     1      24.377   3.778  51.377  1.00  0.00    -0.258 OA
HETATM    6  N1  UNL     1      25.763   1.834  51.410  1.00  0.00    -0.314 N 
HETATM    7  H4  UNL     1      26.635   1.384  51.052  1.00  0.00     0.170 HD
BRANCH   6   8
HETATM    8  C5  UNL     1      24.995   1.028  52.312  1.00  0.00     0.070 A 
HETATM    9  C6  UNL     1      23.639   0.842  52.061  1.00  0.00     0.048 A 
HETATM   10  C7  UNL     1      22.943   0.059  52.956  1.00  0.00     0.023 A 
HETATM   11  C8  UNL     1      21.596  -0.135  52.720  1.00  0.00     0.067 A 
HETATM   12  C18 UNL     1      23.537  -0.522  54.059  1.00  0.00     0.071 A 
HETATM   13  C15 UNL     1      20.903  -0.919  53.619  1.00  0.00     0.089 A 
HETATM   14  C16 UNL     1      19.481  -1.185  53.460  1.00  0.00     0.103 C 
HETATM   15  C17 UNL     1      21.482  -1.508  54.725  1.00  0.00     0.142 A 
HETATM   16  N3  UNL     1      18.345  -1.413  53.333  1.00  0.00    -0.191 NA
HETATM   17  N4  UNL     1      22.797  -1.287  54.911  1.00  0.00    -0.259 NA
HETATM   18  C19 UNL     1      24.891  -0.302  54.258  1.00  0.00     0.071 A 
HETATM   19  C20 UNL     1      25.649   0.471  53.402  1.00  0.00     0.097 A 
BRANCH  11  20
HETATM   20  N2  UNL     1      20.867   0.393  51.646  1.00  0.00    -0.354 N 
HETATM   21  H6  UNL     1      20.418  -0.389  51.120  1.00  0.00     0.166 HD
BRANCH  20  22
HETATM   22  C9  UNL     1      20.733   1.763  51.290  1.00  0.00     0.033 A 
HETATM   23  C10 UNL     1      20.435   2.652  52.299  1.00  0.00     0.029 A 
HETATM   24  C11 UNL     1      20.306   3.995  51.929  1.00  0.00     0.004 A 
HETATM   25  C12 UNL     1      20.482   4.352  50.604  1.00  0.00     0.019 A 
HETATM   26  C13 UNL     1      20.785   3.422  49.606  1.00  0.00     0.013 A 
HETATM   27 BR1  UNL     1      21.011   3.989  47.804  1.00  0.00    -0.051 Br
HETATM   28  C14 UNL     1      20.913   2.085  49.966  1.00  0.00     0.048 A 
ENDBRANCH  20  22
ENDBRANCH  11  20
BRANCH  19  29
HETATM   29  O2  UNL     1      26.989   0.656  53.650  1.00  0.00    -0.354 OA
HETATM   30  C21 UNL     1      27.958  -0.355  53.383  1.00  0.00     0.210 C 
ENDBRANCH  19  29
ENDBRANCH   6   8
ENDBRANCH   3   4
TORSDOF 5
ENDMDL
MODEL 7
REMARK VINA RESULT:      -7.9      5.964     11.546
REMARK  5 active torsions:
REMARK  status: ('A' for Active; 'I' for Inactive)
REMARK    1  A    between atoms: C3_3  and  C4_4 
REMARK       I    between atoms: C4_4  and  N1_6 
REMARK    2  A    between atoms: N1_6  and  C5_7 
REMARK    3  A    between atoms: C8_10  and  N2_11 
REMARK    4  A    between atoms: N2_11  and  C9_12 
REMARK    5  A    between atoms: C20_26  and  O2_27 
ROOT
HETATM    1  C1  UNL     1      25.976   3.162  49.707  1.00  0.00     0.112 C 
HETATM    2  C2  UNL     1      26.674   4.358  49.212  1.00  0.00    -0.101 C 
HETATM    3  C3  UNL     1      27.266   5.340  48.793  1.00  0.00    -0.006 C 
ENDROOT
BRANCH   3   4
HETATM    4  C4  UNL     1      27.948   6.503  48.286  1.00  0.00     0.301 C 
HETATM    5  O1  UNL     1      27.447   7.080  47.279  1.00  0.00    -0.258 OA
HETATM    6  N1  UNL     1      29.134   6.907  48.960  1.00  0.00    -0.314 N 
HETATM    7  H4  UNL     1      29.483   6.373  49.787  1.00  0.00     0.170 HD
BRANCH   6   8
HETATM    8  C5  UNL     1      29.934   8.036  48.590  1.00  0.00     0.070 A 
HETATM    9  C6  UNL     1      31.077   7.828  47.823  1.00  0.00     0.048 A 
HETATM   10  C7  UNL     1      31.815   8.944  47.493  1.00  0.00     0.023 A 
HETATM   11  C8  UNL     1      32.952   8.754  46.732  1.00  0.00     0.067 A 
HETATM   12  C18 UNL     1      31.461  10.218  47.891  1.00  0.00     0.071 A 
HETATM   13  C15 UNL     1      33.688   9.874  46.403  1.00  0.00     0.089 A 
HETATM   14  C16 UNL     1      34.901   9.781  45.606  1.00  0.00     0.103 C 
HETATM   15  C17 UNL     1      33.347  11.153  46.793  1.00  0.00     0.142 A 
HETATM   16  N3  UNL     1      35.866   9.716  44.956  1.00  0.00    -0.191 NA
HETATM   17  N4  UNL     1      32.231  11.285  47.534  1.00  0.00    -0.259 NA
HETATM   18  C19 UNL     1      30.313  10.364  48.653  1.00  0.00     0.071 A 
HETATM   19  C20 UNL     1      29.527   9.291  49.021  1.00  0.00     0.097 A 
BRANCH  11  20
HETATM   20  N2  UNL     1      33.427   7.522  46.261  1.00  0.00    -0.354 N 
HETATM   21  H6  UNL     1      33.357   7.505  45.220  1.00  0.00     0.166 HD
BRANCH  20  22
HETATM   22  C9  UNL     1      33.931   6.442  47.037  1.00  0.00     0.033 A 
HETATM   23  C10 UNL     1      34.903   6.734  47.969  1.00  0.00     0.029 A 
HETATM   24  C11 UNL     1      35.386   5.658  48.722  1.00  0.00     0.004 A 
HETATM   25  C12 UNL     1      34.876   4.392  48.499  1.00  0.00     0.019 A 
HETATM   26  C13 UNL     1      33.888   4.134  47.545  1.00  0.00     0.013 A 
HETATM   27 BR1  UNL     1      33.235   2.364  47.294  1.00  0.00    -0.051 Br
HETATM   28  C14 UNL     1      33.404   5.197  46.791  1.00  0.00     0.048 A 
ENDBRANCH  20  22
ENDBRANCH  11  20
BRANCH  19  29
HETATM   29  O2  UNL     1      28.397   9.495  49.779  1.00  0.00    -0.354 OA
HETATM   30  C21 UNL     1      27.239  10.141  49.258  1.00  0.00     0.210 C 
ENDBRANCH  19  29
ENDBRANCH   6   8
ENDBRANCH   3   4
TORSDOF 5
ENDMDL
MODEL 8
REMARK VINA RESULT:      -7.8      3.499      6.722
REMARK  5 active torsions:
REMARK  status: ('A' for Active; 'I' for Inactive)
REMARK    1  A    between atoms: C3_3  and  C4_4 
REMARK       I    between atoms: C4_4  and  N1_6 
REMARK    2  A    between atoms: N1_6  and  C5_7 
REMARK    3  A    between atoms: C8_10  and  N2_11 
REMARK    4  A    between atoms: N2_11  and  C9_12 
REMARK    5  A    between atoms: C20_26  and  O2_27 
ROOT
HETATM    1  C1  UNL     1      15.988   4.284  51.485  1.00  0.00     0.112 C 
HETATM    2  C2  UNL     1      17.279   3.578  51.473  1.00  0.00    -0.101 C 
HETATM    3  C3  UNL     1      18.353   3.000  51.480  1.00  0.00    -0.006 C 
ENDROOT
BRANCH   3   4
HETATM    4  C4  UNL     1      19.612   2.299  51.490  1.00  0.00     0.301 C 
HETATM    5  O1  UNL     1      20.112   1.981  50.373  1.00  0.00    -0.258 OA
HETATM    6  N1  UNL     1      20.191   2.020  52.759  1.00  0.00    -0.314 N 
HETATM    7  H4  UNL     1      19.711   2.317  53.639  1.00  0.00     0.170 HD
BRANCH   6   8
HETATM    8  C5  UNL     1      21.433   1.333  52.953  1.00  0.00     0.070 A 
HETATM    9  C6  UNL     1      22.623   2.037  52.793  1.00  0.00     0.048 A 
HETATM   10  C7  UNL     1      23.792   1.334  52.989  1.00  0.00     0.023 A 
HETATM   11  C8  UNL     1      24.981   2.019  52.834  1.00  0.00     0.067 A 
HETATM   12  C18 UNL     1      23.811  -0.005  53.327  1.00  0.00     0.071 A 
HETATM   13  C15 UNL     1      26.149   1.312  53.031  1.00  0.00     0.089 A 
HETATM   14  C16 UNL     1      27.454   1.940  52.892  1.00  0.00     0.103 C 
HETATM   15  C17 UNL     1      26.184  -0.027  53.370  1.00  0.00     0.142 A 
HETATM   16  N3  UNL     1      28.502   2.440  52.796  1.00  0.00    -0.191 NA
HETATM   17  N4  UNL     1      24.998  -0.649  53.508  1.00  0.00    -0.259 NA
HETATM   18  C19 UNL     1      22.595  -0.654  53.473  1.00  0.00     0.071 A 
HETATM   19  C20 UNL     1      21.386  -0.012  53.291  1.00  0.00     0.097 A 
BRANCH  11  20
HETATM   20  N2  UNL     1      25.109   3.373  52.494  1.00  0.00    -0.354 N 
HETATM   21  H6  UNL     1      25.586   3.877  53.275  1.00  0.00     0.166 HD
BRANCH  20  22
HETATM   22  C9  UNL     1      24.676   4.002  51.295  1.00  0.00     0.033 A 
HETATM   23  C10 UNL     1      24.949   3.358  50.109  1.00  0.00     0.029 A 
HETATM   24  C11 UNL     1      24.516   3.993  48.941  1.00  0.00     0.004 A 
HETATM   25  C12 UNL     1      23.852   5.202  49.034  1.00  0.00     0.019 A 
HETATM   26  C13 UNL     1      23.591   5.827  50.257  1.00  0.00     0.013 A 
HETATM   27 BR1  UNL     1      22.672   7.493  50.306  1.00  0.00    -0.051 Br
HETATM   28  C14 UNL     1      24.020   5.203  51.422  1.00  0.00     0.048 A 
ENDBRANCH  20  22
ENDBRANCH  11  20
BRANCH  19  29
HETATM   29  O2  UNL     1      20.209  -0.707  53.448  1.00  0.00    -0.354 OA
HETATM   30  C21 UNL     1      20.152  -1.961  54.122  1.00  0.00     0.210 C 
ENDBRANCH  19  29
ENDBRANCH   6   8
ENDBRANCH   3   4
TORSDOF 5
ENDMDL
MODEL 9
REMARK VINA RESULT:      -7.4      2.402      4.587
REMARK  5 active torsions:
REMARK  status: ('A' for Active; 'I' for Inactive)
REMARK    1  A    between atoms: C3_3  and  C4_4 
REMARK       I    between atoms: C4_4  and  N1_6 
REMARK    2  A    between atoms: N1_6  and  C5_7 
REMARK    3  A    between atoms: C8_10  and  N2_11 
REMARK    4  A    between atoms: N2_11  and  C9_12 
REMARK    5  A    between atoms: C20_26  and  O2_27 
ROOT
HETATM    1  C1  UNL     1      29.792   2.124  54.615  1.00  0.00     0.112 C 
HETATM    2  C2  UNL     1      28.619   2.052  53.730  1.00  0.00    -0.101 C 
HETATM    3  C3  UNL     1      27.646   1.974  52.997  1.00  0.00    -0.006 C 
ENDROOT
BRANCH   3   4
HETATM    4  C4  UNL     1      26.486   1.891  52.148  1.00  0.00     0.301 C 
HETATM    5  O1  UNL     1      26.222   0.769  51.628  1.00  0.00    -0.258 OA
HETATM    6  N1  UNL     1      25.728   3.081  51.963  1.00  0.00    -0.314 N 
HETATM    7  H4  UNL     1      26.015   3.971  52.430  1.00  0.00     0.170 HD
BRANCH   6   8
HETATM    8  C5  UNL     1      24.550   3.178  51.154  1.00  0.00     0.070 A 
HETATM    9  C6  UNL     1      23.324   2.813  51.703  1.00  0.00     0.048 A 
HETATM   10  C7  UNL     1      22.220   2.923  50.886  1.00  0.00     0.023 A 
HETATM   11  C8  UNL     1      20.997   2.565  51.417  1.00  0.00     0.067 A 
HETATM   12  C18 UNL     1      22.297   3.368  49.582  1.00  0.00     0.071 A 
HETATM   13  C15 UNL     1      19.893   2.675  50.597  1.00  0.00     0.089 A 
HETATM   14  C16 UNL     1      18.560   2.323  51.060  1.00  0.00     0.103 C 
HETATM   15  C17 UNL     1      19.954   3.120  49.291  1.00  0.00     0.142 A 
HETATM   16  N3  UNL     1      17.487   2.056  51.428  1.00  0.00    -0.191 NA
HETATM   17  N4  UNL     1      21.170   3.456  48.820  1.00  0.00    -0.259 NA
HETATM   18  C19 UNL     1      23.545   3.718  49.089  1.00  0.00     0.071 A 
HETATM   19  C20 UNL     1      24.693   3.633  49.851  1.00  0.00     0.097 A 
BRANCH  11  20
HETATM   20  N2  UNL     1      20.773   2.097  52.720  1.00  0.00    -0.354 N 
HETATM   21  H6  UNL     1      20.271   2.832  53.265  1.00  0.00     0.166 HD
BRANCH  20  22
HETATM   22  C9  UNL     1      21.152   0.836  53.257  1.00  0.00     0.033 A 
HETATM   23  C10 UNL     1      20.154  -0.095  53.446  1.00  0.00     0.029 A 
HETATM   24  C11 UNL     1      20.546  -1.329  53.976  1.00  0.00     0.004 A 
HETATM   25  C12 UNL     1      21.880  -1.545  54.273  1.00  0.00     0.019 A 
HETATM   26  C13 UNL     1      22.865  -0.577  54.066  1.00  0.00     0.013 A 
HETATM   27 BR1  UNL     1      24.681  -0.948  54.500  1.00  0.00    -0.051 Br
HETATM   28  C14 UNL     1      22.483   0.653  53.542  1.00  0.00     0.048 A 
ENDBRANCH  20  22
ENDBRANCH  11  20
BRANCH  19  29
HETATM   29  O2  UNL     1      25.905   3.993  49.308  1.00  0.00    -0.354 OA
HETATM   30  C21 UNL     1      26.193   5.331  48.913  1.00  0.00     0.210 C 
ENDBRANCH  19  29
ENDBRANCH   6   8
ENDBRANCH   3   4
TORSDOF 5
ENDMDL
