MODEL 1
REMARK VINA RESULT:      -8.2      0.000      0.000
REMARK  7 active torsions:
REMARK  status: ('A' for Active; 'I' for Inactive)
REMARK    1  A    between atoms: C4_4  and  C5_5 
REMARK    2  A    between atoms: C5_5  and  N1_6 
REMARK    3  A    between atoms: N1_6  and  C6_7 
REMARK    4  A    between atoms: C7_9  and  C8_10 
REMARK    5  A    between atoms: C17_23  and  C18_24 
REMARK    6  A    between atoms: C18_24  and  C19_25 
REMARK    7  A    between atoms: C19_25  and  C20_26 
ROOT
HETATM    1  C1  UNL     1      22.151   1.348  49.933  1.00  0.00     0.044 C 
HETATM    2  C2  UNL     1      22.852   2.410  49.953  1.00  0.00    -0.045 C 
HETATM    3  C3  UNL     1      23.814   3.296  49.034  1.00  0.00     0.020 C 
HETATM    4  C4  UNL     1      25.034   3.698  49.652  1.00  0.00     0.006 C 
HETATM    5  C11 UNL     1      24.879   4.093  51.142  1.00  0.00     0.135 C 
HETATM    6  N4  UNL     1      23.935   4.857  51.775  1.00  0.00    -0.242 NA
HETATM    7  C12 UNL     1      22.614   4.120  51.996  1.00  0.00     0.131 C 
HETATM    8  C13 UNL     1      22.817   2.860  51.455  1.00  0.00    -0.011 C 
HETATM    9  C14 UNL     1      23.256   1.474  51.961  1.00  0.00     0.029 C 
HETATM   10  C15 UNL     1      24.434   1.225  52.683  1.00  0.00     0.015 C 
HETATM   11  C16 UNL     1      24.427   0.167  53.454  1.00  0.00     0.391 C 
HETATM   12  O1  UNL     1      24.313  -0.854  54.148  1.00  0.00    -0.405 OA
HETATM   13  C17 UNL     1      25.765   2.007  52.530  1.00  0.00     0.045 C 
HETATM   14  N5  UNL     1      25.980   3.184  51.591  1.00  0.00    -0.340 N 
HETATM   15  H23 UNL     1      26.722   3.521  51.078  1.00  0.00     0.167 HD
ENDROOT
BRANCH  13  16
HETATM   16  C18 UNL     1      26.815   1.692  53.053  1.00  0.00     0.030 C 
BRANCH  16  17
HETATM   17  C19 UNL     1      27.931   0.840  53.283  1.00  0.00    -0.002 C 
BRANCH  17  18
HETATM   18  C20 UNL     1      28.653   0.127  54.115  1.00  0.00    -0.031 C 
HETATM   19  C21 UNL     1      29.725  -0.757  53.533  1.00  0.00     0.036 C 
ENDBRANCH  17  18
ENDBRANCH  16  17
ENDBRANCH  13  16
BRANCH   4  20
HETATM   20  C5  UNL     1      26.427   3.753  49.352  1.00  0.00     0.164 C 
BRANCH  20  21
HETATM   21  N1  UNL     1      26.486   5.245  49.204  1.00  0.00    -0.363 N 
HETATM   22  H6  UNL     1      25.880   6.020  49.414  1.00  0.00     0.162 HD
BRANCH  21  23
HETATM   23  C6  UNL     1      27.760   5.656  48.595  1.00  0.00     0.186 A 
HETATM   24  N2  UNL     1      28.819   5.206  48.583  1.00  0.00    -0.207 NA
HETATM   25  C7  UNL     1      29.882   5.707  47.996  1.00  0.00     0.141 A 
HETATM   26  N3  UNL     1      29.774   6.904  47.307  1.00  0.00    -0.192 NA
HETATM   27  S1  UNL     1      27.988   7.239  47.583  1.00  0.00     0.051 SA
BRANCH  25  28
HETATM   28  C8  UNL     1      31.245   5.111  47.991  1.00  0.00     0.050 C 
HETATM   29  C9  UNL     1      32.047   5.707  49.150  1.00  0.00     0.018 C 
HETATM   30  C10 UNL     1      31.990   5.398  46.727  1.00  0.00     0.018 C 
ENDBRANCH  25  28
ENDBRANCH  21  23
ENDBRANCH  20  21
ENDBRANCH   4  20
TORSDOF 7
ENDMDL
MODEL 2
REMARK VINA RESULT:      -8.1      3.710      7.372
REMARK  7 active torsions:
REMARK  status: ('A' for Active; 'I' for Inactive)
REMARK    1  A    between atoms: C4_4  and  C5_5 
REMARK    2  A    between atoms: C5_5  and  N1_6 
REMARK    3  A    between atoms: N1_6  and  C6_7 
REMARK    4  A    between atoms: C7_9  and  C8_10 
REMARK    5  A    between atoms: C17_23  and  C18_24 
REMARK    6  A    between atoms: C18_24  and  C19_25 
REMARK    7  A    between atoms: C19_25  and  C20_26 
ROOT
HETATM    1  C1  UNL     1      26.057   8.857  49.675  1.00  0.00     0.044 C 
HETATM    2  C2  UNL     1      25.019   8.130  49.796  1.00  0.00    -0.045 C 
HETATM    3  C3  UNL     1      23.877   7.737  50.843  1.00  0.00     0.020 C 
HETATM    4  C4  UNL     1      23.622   6.339  50.960  1.00  0.00     0.006 C 
HETATM    5  C11 UNL     1      23.668   5.581  49.609  1.00  0.00     0.135 C 
HETATM    6  N4  UNL     1      23.147   5.898  48.383  1.00  0.00    -0.242 NA
HETATM    7  C12 UNL     1      23.961   6.955  47.638  1.00  0.00     0.131 C 
HETATM    8  C13 UNL     1      25.011   7.260  48.491  1.00  0.00    -0.011 C 
HETATM    9  C14 UNL     1      26.467   6.803  48.695  1.00  0.00     0.029 C 
HETATM   10  C15 UNL     1      26.868   5.468  48.868  1.00  0.00     0.015 C 
HETATM   11  C16 UNL     1      28.099   5.185  48.527  1.00  0.00     0.391 C 
HETATM   12  O1  UNL     1      29.277   5.027  48.175  1.00  0.00    -0.405 OA
HETATM   13  C17 UNL     1      26.027   4.359  49.555  1.00  0.00     0.045 C 
HETATM   14  N5  UNL     1      24.627   4.551  50.117  1.00  0.00    -0.340 N 
HETATM   15  H23 UNL     1      24.134   4.185  50.858  1.00  0.00     0.167 HD
ENDROOT
BRANCH  13  16
HETATM   16  C18 UNL     1      26.440   3.250  49.827  1.00  0.00     0.030 C 
BRANCH  16  17
HETATM   17  C19 UNL     1      26.626   2.120  50.672  1.00  0.00    -0.002 C 
BRANCH  17  18
HETATM   18  C20 UNL     1      26.541   1.577  51.863  1.00  0.00    -0.031 C 
HETATM   19  C21 UNL     1      26.591   0.074  51.955  1.00  0.00     0.036 C 
ENDBRANCH  17  18
ENDBRANCH  16  17
ENDBRANCH  13  16
BRANCH   4  20
HETATM   20  C5  UNL     1      23.436   5.359  51.978  1.00  0.00     0.164 C 
BRANCH  20  21
HETATM   21  N1  UNL     1      21.940   5.472  52.018  1.00  0.00    -0.363 N 
HETATM   22  H6  UNL     1      21.269   6.220  52.031  1.00  0.00     0.162 HD
BRANCH  21  23
HETATM   23  C6  UNL     1      21.320   4.139  52.045  1.00  0.00     0.186 A 
HETATM   24  N2  UNL     1      21.676   3.101  52.394  1.00  0.00    -0.207 NA
HETATM   25  C7  UNL     1      20.999   1.976  52.338  1.00  0.00     0.141 A 
HETATM   26  N3  UNL     1      19.718   1.981  51.811  1.00  0.00    -0.192 NA
HETATM   27  S1  UNL     1      19.578   3.768  51.404  1.00  0.00     0.051 SA
BRANCH  25  28
HETATM   28  C8  UNL     1      21.476   0.643  52.794  1.00  0.00     0.050 C 
HETATM   29  C9  UNL     1      20.980   0.405  54.222  1.00  0.00     0.018 C 
HETATM   30  C10 UNL     1      22.967   0.542  52.807  1.00  0.00     0.018 C 
ENDBRANCH  25  28
ENDBRANCH  21  23
ENDBRANCH  20  21
ENDBRANCH   4  20
TORSDOF 7
ENDMDL
MODEL 3
REMARK VINA RESULT:      -8.0      3.681      6.641
REMARK  7 active torsions:
REMARK  status: ('A' for Active; 'I' for Inactive)
REMARK    1  A    between atoms: C4_4  and  C5_5 
REMARK    2  A    between atoms: C5_5  and  N1_6 
REMARK    3  A    between atoms: N1_6  and  C6_7 
REMARK    4  A    between atoms: C7_9  and  C8_10 
REMARK    5  A    between atoms: C17_23  and  C18_24 
REMARK    6  A    between atoms: C18_24  and  C19_25 
REMARK    7  A    between atoms: C19_25  and  C20_26 
ROOT
HETATM    1  C1  UNL     1      20.999   6.224  50.254  1.00  0.00     0.044 C 
HETATM    2  C2  UNL     1      21.456   5.078  50.566  1.00  0.00    -0.045 C 
HETATM    3  C3  UNL     1      21.804   4.167  51.833  1.00  0.00     0.020 C 
HETATM    4  C4  UNL     1      23.080   3.534  51.787  1.00  0.00     0.006 C 
HETATM    5  C11 UNL     1      23.468   3.010  50.382  1.00  0.00     0.135 C 
HETATM    6  N4  UNL     1      22.739   2.324  49.446  1.00  0.00    -0.242 NA
HETATM    7  C12 UNL     1      21.764   3.212  48.674  1.00  0.00     0.131 C 
HETATM    8  C13 UNL     1      21.947   4.481  49.201  1.00  0.00    -0.011 C 
HETATM    9  C14 UNL     1      22.782   5.731  48.868  1.00  0.00     0.029 C 
HETATM   10  C15 UNL     1      24.174   5.734  48.684  1.00  0.00     0.015 C 
HETATM   11  C16 UNL     1      24.657   6.695  47.938  1.00  0.00     0.391 C 
HETATM   12  O1  UNL     1      25.006   7.642  47.220  1.00  0.00    -0.405 OA
HETATM   13  C17 UNL     1      25.178   4.792  49.401  1.00  0.00     0.045 C 
HETATM   14  N5  UNL     1      24.794   3.702  50.390  1.00  0.00    -0.340 N 
HETATM   15  H23 UNL     1      25.200   3.321  51.175  1.00  0.00     0.167 HD
ENDROOT
BRANCH  13  16
HETATM   16  C18 UNL     1      26.386   4.899  49.344  1.00  0.00     0.030 C 
BRANCH  16  17
HETATM   17  C19 UNL     1      27.639   4.974  48.673  1.00  0.00    -0.002 C 
BRANCH  17  18
HETATM   18  C20 UNL     1      28.600   5.703  48.158  1.00  0.00    -0.031 C 
HETATM   19  C21 UNL     1      28.442   7.201  48.194  1.00  0.00     0.036 C 
ENDBRANCH  17  18
ENDBRANCH  16  17
ENDBRANCH  13  16
BRANCH   4  20
HETATM   20  C5  UNL     1      24.205   3.315  52.635  1.00  0.00     0.164 C 
BRANCH  20  21
HETATM   21  N1  UNL     1      23.815   1.923  53.039  1.00  0.00    -0.363 N 
HETATM   22  H6  UNL     1      22.968   1.383  53.057  1.00  0.00     0.162 HD
BRANCH  21  23
HETATM   23  C6  UNL     1      24.985   1.179  53.530  1.00  0.00     0.186 A 
HETATM   24  N2  UNL     1      26.099   1.440  53.660  1.00  0.00    -0.207 NA
HETATM   25  C7  UNL     1      27.046   0.648  54.106  1.00  0.00     0.141 A 
HETATM   26  N3  UNL     1      26.729  -0.650  54.473  1.00  0.00    -0.192 NA
HETATM   27  S1  UNL     1      24.926  -0.620  54.114  1.00  0.00     0.051 SA
BRANCH  25  28
HETATM   28  C8  UNL     1      28.482   1.002  54.267  1.00  0.00     0.050 C 
HETATM   29  C9  UNL     1      28.720   2.385  53.656  1.00  0.00     0.018 C 
HETATM   30  C10 UNL     1      29.390   0.037  53.574  1.00  0.00     0.018 C 
ENDBRANCH  25  28
ENDBRANCH  21  23
ENDBRANCH  20  21
ENDBRANCH   4  20
TORSDOF 7
ENDMDL
MODEL 4
REMARK VINA RESULT:      -7.8      3.201      5.234
REMARK  7 active torsions:
REMARK  status: ('A' for Active; 'I' for Inactive)
REMARK    1  A    between atoms: C4_4  and  C5_5 
REMARK    2  A    between atoms: C5_5  and  N1_6 
REMARK    3  A    between atoms: N1_6  and  C6_7 
REMARK    4  A    between atoms: C7_9  and  C8_10 
REMARK    5  A    between atoms: C17_23  and  C18_24 
REMARK    6  A    between atoms: C18_24  and  C19_25 
REMARK    7  A    between atoms: C19_25  and  C20_26 
ROOT
HETATM    1  C1  UNL     1      24.641   8.040  46.045  1.00  0.00     0.044 C 
HETATM    2  C2  UNL     1      25.536   8.003  46.948  1.00  0.00    -0.045 C 
HETATM    3  C3  UNL     1      27.114   7.837  47.147  1.00  0.00     0.020 C 
HETATM    4  C4  UNL     1      27.499   6.911  48.160  1.00  0.00     0.006 C 
HETATM    5  C11 UNL     1      26.604   6.962  49.425  1.00  0.00     0.135 C 
HETATM    6  N4  UNL     1      26.112   8.025  50.134  1.00  0.00    -0.242 NA
HETATM    7  C12 UNL     1      24.921   8.701  49.456  1.00  0.00     0.131 C 
HETATM    8  C13 UNL     1      24.722   7.981  48.289  1.00  0.00    -0.011 C 
HETATM    9  C14 UNL     1      23.849   6.799  47.827  1.00  0.00     0.029 C 
HETATM   10  C15 UNL     1      23.795   5.550  48.468  1.00  0.00     0.015 C 
HETATM   11  C16 UNL     1      22.696   4.860  48.297  1.00  0.00     0.391 C 
HETATM   12  O1  UNL     1      21.617   4.294  48.070  1.00  0.00    -0.405 OA
HETATM   13  C17 UNL     1      24.969   4.876  49.227  1.00  0.00     0.045 C 
HETATM   14  N5  UNL     1      26.349   5.488  49.413  1.00  0.00    -0.340 N 
HETATM   15  H23 UNL     1      27.245   5.141  49.471  1.00  0.00     0.167 HD
ENDROOT
BRANCH  13  16
HETATM   16  C18 UNL     1      24.954   3.739  49.651  1.00  0.00     0.030 C 
BRANCH  16  17
HETATM   17  C19 UNL     1      24.480   2.683  50.478  1.00  0.00    -0.002 C 
BRANCH  17  18
HETATM   18  C20 UNL     1      23.474   2.061  51.048  1.00  0.00    -0.031 C 
HETATM   19  C21 UNL     1      22.376   1.539  50.159  1.00  0.00     0.036 C 
ENDBRANCH  17  18
ENDBRANCH  16  17
ENDBRANCH  13  16
BRANCH   4  20
HETATM   20  C5  UNL     1      28.417   5.837  48.346  1.00  0.00     0.164 C 
BRANCH  20  21
HETATM   21  N1  UNL     1      29.511   6.679  48.932  1.00  0.00    -0.363 N 
HETATM   22  H6  UNL     1      29.566   7.533  49.459  1.00  0.00     0.162 HD
BRANCH  21  23
HETATM   23  C6  UNL     1      30.828   6.086  48.654  1.00  0.00     0.186 A 
HETATM   24  N2  UNL     1      31.181   5.030  48.364  1.00  0.00    -0.207 NA
HETATM   25  C7  UNL     1      32.419   4.641  48.160  1.00  0.00     0.141 A 
HETATM   26  N3  UNL     1      33.449   5.558  48.295  1.00  0.00    -0.192 NA
HETATM   27  S1  UNL     1      32.460   7.041  48.744  1.00  0.00     0.051 SA
BRANCH  25  28
HETATM   28  C8  UNL     1      32.858   3.270  47.787  1.00  0.00     0.050 C 
HETATM   29  C9  UNL     1      34.382   3.260  47.653  1.00  0.00     0.018 C 
HETATM   30  C10 UNL     1      32.284   2.821  46.482  1.00  0.00     0.018 C 
ENDBRANCH  25  28
ENDBRANCH  21  23
ENDBRANCH  20  21
ENDBRANCH   4  20
TORSDOF 7
ENDMDL
MODEL 5
REMARK VINA RESULT:      -7.7      2.731      4.063
REMARK  7 active torsions:
REMARK  status: ('A' for Active; 'I' for Inactive)
REMARK    1  A    between atoms: C4_4  and  C5_5 
REMARK    2  A    between atoms: C5_5  and  N1_6 
REMARK    3  A    between atoms: N1_6  and  C6_7 
REMARK    4  A    between atoms: C7_9  and  C8_10 
REMARK    5  A    between atoms: C17_23  and  C18_24 
REMARK    6  A    between atoms: C18_24  and  C19_25 
REMARK    7  A    between atoms: C19_25  and  C20_26 
ROOT
HETATM    1  C1  UNL     1      23.359   7.131  46.950  1.00  0.00     0.044 C 
HETATM    2  C2  UNL     1      24.409   7.246  47.661  1.00  0.00    -0.045 C 
HETATM    3  C3  UNL     1      26.004   7.250  47.553  1.00  0.00     0.020 C 
HETATM    4  C4  UNL     1      26.674   6.441  48.516  1.00  0.00     0.006 C 
HETATM    5  C11 UNL     1      26.037   6.493  49.928  1.00  0.00     0.135 C 
HETATM    6  N4  UNL     1      25.575   7.551  50.666  1.00  0.00    -0.242 NA
HETATM    7  C12 UNL     1      24.209   8.056  50.202  1.00  0.00     0.131 C 
HETATM    8  C13 UNL     1      23.872   7.239  49.135  1.00  0.00    -0.011 C 
HETATM    9  C14 UNL     1      23.063   5.947  48.915  1.00  0.00     0.029 C 
HETATM   10  C15 UNL     1      23.270   4.749  49.616  1.00  0.00     0.015 C 
HETATM   11  C16 UNL     1      22.241   3.943  49.700  1.00  0.00     0.391 C 
HETATM   12  O1  UNL     1      21.208   3.259  49.719  1.00  0.00    -0.405 OA
HETATM   13  C17 UNL     1      24.634   4.249  50.162  1.00  0.00     0.045 C 
HETATM   14  N5  UNL     1      25.949   5.004  50.041  1.00  0.00    -0.340 N 
HETATM   15  H23 UNL     1      26.872   4.753  49.939  1.00  0.00     0.167 HD
ENDROOT
BRANCH  13  16
HETATM   16  C18 UNL     1      24.825   3.148  50.638  1.00  0.00     0.030 C 
BRANCH  16  17
HETATM   17  C19 UNL     1      24.793   2.174  51.674  1.00  0.00    -0.002 C 
BRANCH  17  18
HETATM   18  C20 UNL     1      25.103   0.972  52.102  1.00  0.00    -0.031 C 
HETATM   19  C21 UNL     1      26.533   0.522  51.956  1.00  0.00     0.036 C 
ENDBRANCH  17  18
ENDBRANCH  16  17
ENDBRANCH  13  16
BRANCH   4  20
HETATM   20  C5  UNL     1      27.724   5.478  48.571  1.00  0.00     0.164 C 
BRANCH  20  21
HETATM   21  N1  UNL     1      28.821   6.471  48.819  1.00  0.00    -0.363 N 
HETATM   22  H6  UNL     1      28.880   7.422  49.140  1.00  0.00     0.162 HD
BRANCH  21  23
HETATM   23  C6  UNL     1      30.132   5.884  48.506  1.00  0.00     0.186 A 
HETATM   24  N2  UNL     1      30.481   5.038  47.807  1.00  0.00    -0.207 NA
HETATM   25  C7  UNL     1      31.711   4.607  47.644  1.00  0.00     0.141 A 
HETATM   26  N3  UNL     1      32.737   5.196  48.365  1.00  0.00    -0.192 NA
HETATM   27  S1  UNL     1      31.758   6.436  49.304  1.00  0.00     0.051 SA
BRANCH  25  28
HETATM   28  C8  UNL     1      32.143   3.512  46.736  1.00  0.00     0.050 C 
HETATM   29  C9  UNL     1      33.069   2.569  47.507  1.00  0.00     0.018 C 
HETATM   30  C10 UNL     1      32.897   4.017  45.548  1.00  0.00     0.018 C 
ENDBRANCH  25  28
ENDBRANCH  21  23
ENDBRANCH  20  21
ENDBRANCH   4  20
TORSDOF 7
ENDMDL
MODEL 6
REMARK VINA RESULT:      -7.7      3.913      7.338
REMARK  7 active torsions:
REMARK  status: ('A' for Active; 'I' for Inactive)
REMARK    1  A    between atoms: C4_4  and  C5_5 
REMARK    2  A    between atoms: C5_5  and  N1_6 
REMARK    3  A    between atoms: N1_6  and  C6_7 
REMARK    4  A    between atoms: C7_9  and  C8_10 
REMARK    5  A    between atoms: C17_23  and  C18_24 
REMARK    6  A    between atoms: C18_24  and  C19_25 
REMARK    7  A    between atoms: C19_25  and  C20_26 
ROOT
HETATM    1  C1  UNL     1      25.640   7.696  47.275  1.00  0.00     0.044 C 
HETATM    2  C2  UNL     1      25.724   6.972  48.318  1.00  0.00    -0.045 C 
HETATM    3  C3  UNL     1      26.701   5.946  49.059  1.00  0.00     0.020 C 
HETATM    4  C4  UNL     1      26.079   4.749  49.519  1.00  0.00     0.006 C 
HETATM    5  C11 UNL     1      24.663   4.967  50.111  1.00  0.00     0.135 C 
HETATM    6  N4  UNL     1      24.185   5.923  50.967  1.00  0.00    -0.242 NA
HETATM    7  C12 UNL     1      23.939   7.270  50.288  1.00  0.00     0.131 C 
HETATM    8  C13 UNL     1      24.298   7.071  48.964  1.00  0.00    -0.011 C 
HETATM    9  C14 UNL     1      23.593   6.689  47.649  1.00  0.00     0.029 C 
HETATM   10  C15 UNL     1      22.784   5.554  47.479  1.00  0.00     0.015 C 
HETATM   11  C16 UNL     1      21.882   5.623  46.533  1.00  0.00     0.391 C 
HETATM   12  O1  UNL     1      21.067   5.795  45.615  1.00  0.00    -0.405 OA
HETATM   13  C17 UNL     1      22.969   4.199  48.212  1.00  0.00     0.045 C 
HETATM   14  N5  UNL     1      24.043   3.911  49.251  1.00  0.00    -0.340 N 
HETATM   15  H23 UNL     1      24.556   3.137  49.504  1.00  0.00     0.167 HD
ENDROOT
BRANCH  13  16
HETATM   16  C18 UNL     1      22.356   3.184  47.952  1.00  0.00     0.030 C 
BRANCH  16  17
HETATM   17  C19 UNL     1      21.821   1.897  48.239  1.00  0.00    -0.002 C 
BRANCH  17  18
HETATM   18  C20 UNL     1      21.402   1.021  49.122  1.00  0.00    -0.031 C 
HETATM   19  C21 UNL     1      20.018   1.203  49.689  1.00  0.00     0.036 C 
ENDBRANCH  17  18
ENDBRANCH  16  17
ENDBRANCH  13  16
BRANCH   4  20
HETATM   20  C5  UNL     1      26.311   3.342  49.511  1.00  0.00     0.164 C 
BRANCH  20  21
HETATM   21  N1  UNL     1      26.772   3.262  50.937  1.00  0.00    -0.363 N 
HETATM   22  H6  UNL     1      27.453   3.732  51.507  1.00  0.00     0.162 HD
BRANCH  21  23
HETATM   23  C6  UNL     1      26.023   2.227  51.666  1.00  0.00     0.186 A 
HETATM   24  N2  UNL     1      24.931   2.132  52.018  1.00  0.00    -0.207 NA
HETATM   25  C7  UNL     1      24.403   1.133  52.687  1.00  0.00     0.141 A 
HETATM   26  N3  UNL     1      25.198   0.053  53.034  1.00  0.00    -0.192 NA
HETATM   27  S1  UNL     1      26.787   0.615  52.300  1.00  0.00     0.051 SA
BRANCH  25  28
HETATM   28  C8  UNL     1      22.988   1.027  53.134  1.00  0.00     0.050 C 
HETATM   29  C9  UNL     1      22.426  -0.321  52.677  1.00  0.00     0.018 C 
HETATM   30  C10 UNL     1      22.123   2.100  52.555  1.00  0.00     0.018 C 
ENDBRANCH  25  28
ENDBRANCH  21  23
ENDBRANCH  20  21
ENDBRANCH   4  20
TORSDOF 7
ENDMDL
MODEL 7
REMARK VINA RESULT:      -7.7      1.747      2.042
REMARK  7 active torsions:
REMARK  status: ('A' for Active; 'I' for Inactive)
REMARK    1  A    between atoms: C4_4  and  C5_5 
REMARK    2  A    between atoms: C5_5  and  N1_6 
REMARK    3  A    between atoms: N1_6  and  C6_7 
REMARK    4  A    between atoms: C7_9  and  C8_10 
REMARK    5  A    between atoms: C17_23  and  C18_24 
REMARK    6  A    between atoms: C18_24  and  C19_25 
REMARK    7  A    between atoms: C19_25  and  C20_26 
ROOT
HETATM    1  C1  UNL     1      21.966   1.600  49.275  1.00  0.00     0.044 C 
HETATM    2  C2  UNL     1      22.528   2.702  49.576  1.00  0.00    -0.045 C 
HETATM    3  C3  UNL     1      23.592   3.760  49.025  1.00  0.00     0.020 C 
HETATM    4  C4  UNL     1      24.572   4.177  49.972  1.00  0.00     0.006 C 
HETATM    5  C11 UNL     1      24.012   4.381  51.403  1.00  0.00     0.135 C 
HETATM    6  N4  UNL     1      22.867   4.992  51.840  1.00  0.00    -0.242 NA
HETATM    7  C12 UNL     1      21.616   4.137  51.641  1.00  0.00     0.131 C 
HETATM    8  C13 UNL     1      22.074   2.968  51.054  1.00  0.00    -0.011 C 
HETATM    9  C14 UNL     1      22.514   1.569  51.521  1.00  0.00     0.029 C 
HETATM   10  C15 UNL     1      23.494   1.326  52.497  1.00  0.00     0.015 C 
HETATM   11  C16 UNL     1      23.405   0.187  53.135  1.00  0.00     0.391 C 
HETATM   12  O1  UNL     1      23.227  -0.914  53.676  1.00  0.00    -0.405 OA
HETATM   13  C17 UNL     1      24.734   2.218  52.768  1.00  0.00     0.045 C 
HETATM   14  N5  UNL     1      25.054   3.511  52.032  1.00  0.00    -0.340 N 
HETATM   15  H23 UNL     1      25.861   3.960  51.763  1.00  0.00     0.167 HD
ENDROOT
BRANCH  13  16
HETATM   16  C18 UNL     1      25.647   1.923  53.512  1.00  0.00     0.030 C 
BRANCH  16  17
HETATM   17  C19 UNL     1      26.934   1.402  53.822  1.00  0.00    -0.002 C 
BRANCH  17  18
HETATM   18  C20 UNL     1      27.852   0.480  53.641  1.00  0.00    -0.031 C 
HETATM   19  C21 UNL     1      27.412  -0.848  53.084  1.00  0.00     0.036 C 
ENDBRANCH  17  18
ENDBRANCH  16  17
ENDBRANCH  13  16
BRANCH   4  20
HETATM   20  C5  UNL     1      25.982   4.372  50.049  1.00  0.00     0.164 C 
BRANCH  20  21
HETATM   21  N1  UNL     1      26.098   5.114  48.750  1.00  0.00    -0.363 N 
HETATM   22  H6  UNL     1      25.851   4.942  47.791  1.00  0.00     0.162 HD
BRANCH  21  23
HETATM   23  C6  UNL     1      26.738   6.423  48.956  1.00  0.00     0.186 A 
HETATM   24  N2  UNL     1      27.704   6.909  48.561  1.00  0.00    -0.207 NA
HETATM   25  C7  UNL     1      28.160   8.105  48.854  1.00  0.00     0.141 A 
HETATM   26  N3  UNL     1      27.444   8.910  49.725  1.00  0.00    -0.192 NA
HETATM   27  S1  UNL     1      26.042   7.775  50.083  1.00  0.00     0.051 SA
BRANCH  25  28
HETATM   28  C8  UNL     1      29.413   8.717  48.335  1.00  0.00     0.050 C 
HETATM   29  C9  UNL     1      30.400   7.600  47.990  1.00  0.00     0.018 C 
HETATM   30  C10 UNL     1      30.070   9.612  49.337  1.00  0.00     0.018 C 
ENDBRANCH  25  28
ENDBRANCH  21  23
ENDBRANCH  20  21
ENDBRANCH   4  20
TORSDOF 7
ENDMDL
MODEL 8
REMARK VINA RESULT:      -7.7      4.207      7.440
REMARK  7 active torsions:
REMARK  status: ('A' for Active; 'I' for Inactive)
REMARK    1  A    between atoms: C4_4  and  C5_5 
REMARK    2  A    between atoms: C5_5  and  N1_6 
REMARK    3  A    between atoms: N1_6  and  C6_7 
REMARK    4  A    between atoms: C7_9  and  C8_10 
REMARK    5  A    between atoms: C17_23  and  C18_24 
REMARK    6  A    between atoms: C18_24  and  C19_25 
REMARK    7  A    between atoms: C19_25  and  C20_26 
ROOT
HETATM    1  C1  UNL     1      23.420   7.309  48.776  1.00  0.00     0.044 C 
HETATM    2  C2  UNL     1      22.666   6.356  49.153  1.00  0.00    -0.045 C 
HETATM    3  C3  UNL     1      21.554   5.990  50.242  1.00  0.00     0.020 C 
HETATM    4  C4  UNL     1      21.745   4.740  50.900  1.00  0.00     0.006 C 
HETATM    5  C11 UNL     1      22.252   3.613  49.966  1.00  0.00     0.135 C 
HETATM    6  N4  UNL     1      21.866   3.251  48.703  1.00  0.00    -0.242 NA
HETATM    7  C12 UNL     1      22.410   4.180  47.618  1.00  0.00     0.131 C 
HETATM    8  C13 UNL     1      23.151   5.130  48.304  1.00  0.00    -0.011 C 
HETATM    9  C14 UNL     1      24.623   5.335  48.708  1.00  0.00     0.029 C 
HETATM   10  C15 UNL     1      25.395   4.396  49.410  1.00  0.00     0.015 C 
HETATM   11  C16 UNL     1      26.691   4.471  49.241  1.00  0.00     0.391 C 
HETATM   12  O1  UNL     1      27.898   4.630  49.009  1.00  0.00    -0.405 OA
HETATM   13  C17 UNL     1      24.854   3.392  50.462  1.00  0.00     0.045 C 
HETATM   14  N5  UNL     1      23.394   3.258  50.866  1.00  0.00    -0.340 N 
HETATM   15  H23 UNL     1      22.930   3.037  51.680  1.00  0.00     0.167 HD
ENDROOT
BRANCH  13  16
HETATM   16  C18 UNL     1      25.549   2.687  51.164  1.00  0.00     0.030 C 
BRANCH  16  17
HETATM   17  C19 UNL     1      26.274   1.503  51.479  1.00  0.00    -0.002 C 
BRANCH  17  18
HETATM   18  C20 UNL     1      26.925   0.780  52.360  1.00  0.00    -0.031 C 
HETATM   19  C21 UNL     1      26.800  -0.718  52.269  1.00  0.00     0.036 C 
ENDBRANCH  17  18
ENDBRANCH  16  17
ENDBRANCH  13  16
BRANCH   4  20
HETATM   20  C5  UNL     1      21.718   4.204  52.220  1.00  0.00     0.164 C 
BRANCH  20  21
HETATM   21  N1  UNL     1      20.309   3.693  52.142  1.00  0.00    -0.363 N 
HETATM   22  H6  UNL     1      19.399   4.094  51.989  1.00  0.00     0.162 HD
BRANCH  21  23
HETATM   23  C6  UNL     1      20.273   2.237  52.341  1.00  0.00     0.186 A 
HETATM   24  N2  UNL     1      21.044   1.462  52.702  1.00  0.00    -0.207 NA
HETATM   25  C7  UNL     1      20.866   0.166  52.814  1.00  0.00     0.141 A 
HETATM   26  N3  UNL     1      19.639  -0.382  52.476  1.00  0.00    -0.192 NA
HETATM   27  S1  UNL     1      18.762   1.155  51.979  1.00  0.00     0.051 SA
BRANCH  25  28
HETATM   28  C8  UNL     1      21.875  -0.821  53.282  1.00  0.00     0.050 C 
HETATM   29  C9  UNL     1      21.511  -1.264  54.701  1.00  0.00     0.018 C 
HETATM   30  C10 UNL     1      23.257  -0.251  53.325  1.00  0.00     0.018 C 
ENDBRANCH  25  28
ENDBRANCH  21  23
ENDBRANCH  20  21
ENDBRANCH   4  20
TORSDOF 7
ENDMDL
MODEL 9
REMARK VINA RESULT:      -7.6      3.938      6.125
REMARK  7 active torsions:
REMARK  status: ('A' for Active; 'I' for Inactive)
REMARK    1  A    between atoms: C4_4  and  C5_5 
REMARK    2  A    between atoms: C5_5  and  N1_6 
REMARK    3  A    between atoms: N1_6  and  C6_7 
REMARK    4  A    between atoms: C7_9  and  C8_10 
REMARK    5  A    between atoms: C17_23  and  C18_24 
REMARK    6  A    between atoms: C18_24  and  C19_25 
REMARK    7  A    between atoms: C19_25  and  C20_26 
ROOT
HETATM    1  C1  UNL     1      17.344   1.086  49.063  1.00  0.00     0.044 C 
HETATM    2  C2  UNL     1      18.290   1.762  49.582  1.00  0.00    -0.045 C 
HETATM    3  C3  UNL     1      19.780   2.264  49.293  1.00  0.00     0.020 C 
HETATM    4  C4  UNL     1      20.699   2.071  50.366  1.00  0.00     0.006 C 
HETATM    5  C11 UNL     1      20.093   2.348  51.765  1.00  0.00     0.135 C 
HETATM    6  N4  UNL     1      19.291   3.365  52.211  1.00  0.00    -0.242 NA
HETATM    7  C12 UNL     1      17.832   3.213  51.782  1.00  0.00     0.131 C 
HETATM    8  C13 UNL     1      17.799   2.039  51.046  1.00  0.00    -0.011 C 
HETATM    9  C14 UNL     1      17.498   0.552  51.308  1.00  0.00     0.029 C 
HETATM   10  C15 UNL     1      18.119  -0.225  52.299  1.00  0.00     0.015 C 
HETATM   11  C16 UNL     1      17.442  -1.258  52.733  1.00  0.00     0.391 C 
HETATM   12  O1  UNL     1      16.717  -2.205  53.071  1.00  0.00    -0.405 OA
HETATM   13  C17 UNL     1      19.575  -0.043  52.804  1.00  0.00     0.045 C 
HETATM   14  N5  UNL     1      20.537   1.030  52.317  1.00  0.00    -0.340 N 
HETATM   15  H23 UNL     1      21.489   1.083  52.186  1.00  0.00     0.167 HD
ENDROOT
BRANCH  13  16
HETATM   16  C18 UNL     1      20.146  -0.808  53.555  1.00  0.00     0.030 C 
BRANCH  16  17
HETATM   17  C19 UNL     1      21.253  -1.270  54.320  1.00  0.00    -0.002 C 
BRANCH  17  18
HETATM   18  C20 UNL     1      22.493  -1.110  54.719  1.00  0.00    -0.031 C 
HETATM   19  C21 UNL     1      23.473  -0.510  53.745  1.00  0.00     0.036 C 
ENDBRANCH  17  18
ENDBRANCH  16  17
ENDBRANCH  13  16
BRANCH   4  20
HETATM   20  C5  UNL     1      22.021   1.582  50.577  1.00  0.00     0.164 C 
BRANCH  20  21
HETATM   21  N1  UNL     1      22.686   2.926  50.508  1.00  0.00    -0.363 N 
HETATM   22  H6  UNL     1      22.390   3.876  50.369  1.00  0.00     0.162 HD
BRANCH  21  23
HETATM   23  C6  UNL     1      24.139   2.795  50.695  1.00  0.00     0.186 A 
HETATM   24  N2  UNL     1      24.799   2.163  51.395  1.00  0.00    -0.207 NA
HETATM   25  C7  UNL     1      26.111   2.167  51.457  1.00  0.00     0.141 A 
HETATM   26  N3  UNL     1      26.827   3.003  50.616  1.00  0.00    -0.192 NA
HETATM   27  S1  UNL     1      25.425   3.785  49.720  1.00  0.00     0.051 SA
BRANCH  25  28
HETATM   28  C8  UNL     1      26.949   1.343  52.368  1.00  0.00     0.050 C 
HETATM   29  C9  UNL     1      26.719  -0.135  52.046  1.00  0.00     0.018 C 
HETATM   30  C10 UNL     1      26.605   1.553  53.808  1.00  0.00     0.018 C 
ENDBRANCH  25  28
ENDBRANCH  21  23
ENDBRANCH  20  21
ENDBRANCH   4  20
TORSDOF 7
ENDMDL
