MODEL 1
REMARK VINA RESULT:      -8.2      0.000      0.000
REMARK  8 active torsions:
REMARK  status: ('A' for Active; 'I' for Inactive)
REMARK    1  A    between atoms: O1_2  and  C2_3 
REMARK    2  A    between atoms: C6_9  and  N3_10 
REMARK    3  A    between atoms: N3_10  and  C7_11 
REMARK    4  A    between atoms: C15_21  and  N4_22 
REMARK    5  A    between atoms: N4_22  and  C16_23 
REMARK    6  A    between atoms: C16_23  and  C17_24 
REMARK    7  A    between atoms: C17_24  and  C18_25 
REMARK    8  A    between atoms: C18_25  and  N5_26 
ROOT
HETATM    1  C2  UNL     1      20.232   0.015  52.613  1.00  0.00     0.096 A 
HETATM    2  C3  UNL     1      20.504  -0.593  53.849  1.00  0.00     0.071 A 
HETATM    3  C4  UNL     1      21.822  -0.714  54.168  1.00  0.00     0.075 A 
HETATM    4  N1  UNL     1      22.109  -1.292  55.342  1.00  0.00    -0.241 NA
HETATM    5  C5  UNL     1      23.382  -1.448  55.727  1.00  0.00     0.236 A 
HETATM    6  N2  UNL     1      24.400  -1.041  54.971  1.00  0.00    -0.224 NA
HETATM    7  C6  UNL     1      24.182  -0.460  53.792  1.00  0.00     0.142 A 
HETATM    8  C13 UNL     1      22.883  -0.304  53.404  1.00  0.00     0.041 A 
HETATM    9  C14 UNL     1      22.597   0.281  52.215  1.00  0.00     0.049 A 
HETATM   10  C15 UNL     1      21.304   0.444  51.813  1.00  0.00     0.062 A 
ENDROOT
BRANCH  10  11
HETATM   11  N4  UNL     1      20.689   0.995  50.670  1.00  0.00    -0.388 N 
HETATM   12  H11 UNL     1      19.797   1.289  51.153  1.00  0.00     0.159 HD
BRANCH  11  13
HETATM   13  C16 UNL     1      20.081   1.539  49.538  1.00  0.00     0.121 C 
BRANCH  13  14
HETATM   14  C17 UNL     1      20.739   2.779  48.939  1.00  0.00     0.050 C 
BRANCH  14  15
HETATM   15  C18 UNL     1      22.223   2.681  48.948  1.00  0.00     0.274 C 
BRANCH  15  16
HETATM   16  N5  UNL     1      22.918   3.891  49.296  1.00  0.00     0.092 N 
HETATM   17  C19 UNL     1      24.333   3.675  49.407  1.00  0.00     0.298 C 
HETATM   18  C20 UNL     1      24.641   2.894  50.664  1.00  0.00     0.198 C 
HETATM   19  O2  UNL     1      24.266   3.708  51.745  1.00  0.00    -0.388 OA
HETATM   20  C21 UNL     1      22.899   3.906  51.753  1.00  0.00     0.198 C 
HETATM   21  C22 UNL     1      22.385   4.524  50.480  1.00  0.00     0.298 C 
ENDBRANCH  15  16
ENDBRANCH  14  15
ENDBRANCH  13  14
ENDBRANCH  11  13
ENDBRANCH  10  11
BRANCH   1  22
HETATM   22  O1  UNL     1      18.862   0.110  52.344  1.00  0.00    -0.354 OA
HETATM   23  C1  UNL     1      17.930  -0.901  52.563  1.00  0.00     0.210 C 
ENDBRANCH   1  22
BRANCH   7  24
HETATM   24  N3  UNL     1      25.241  -0.034  52.985  1.00  0.00    -0.340 N 
HETATM   25  H6  UNL     1      25.087   0.441  52.090  1.00  0.00     0.167 HD
BRANCH  24  26
HETATM   26  C7  UNL     1      26.636  -0.141  53.190  1.00  0.00     0.035 A 
HETATM   27  C8  UNL     1      27.400  -1.283  52.940  1.00  0.00     0.032 A 
HETATM   28  C9  UNL     1      28.749  -1.366  53.137  1.00  0.00     0.046 A 
HETATM   29  C10 UNL     1      29.458  -0.292  53.610  1.00  0.00     0.138 A 
HETATM   30  F1  UNL     1      30.776  -0.458  53.774  1.00  0.00    -0.204 F 
HETATM   31  C11 UNL     1      28.767   0.869  53.877  1.00  0.00     0.074 A 
HETATM   32 CL1  UNL     1      29.709   2.202  54.473  1.00  0.00    -0.081 Cl
HETATM   33  C12 UNL     1      27.398   0.900  53.660  1.00  0.00     0.056 A 
ENDBRANCH  24  26
ENDBRANCH   7  24
TORSDOF 8
ENDMDL
MODEL 2
REMARK VINA RESULT:      -7.8      2.124      3.607
REMARK  8 active torsions:
REMARK  status: ('A' for Active; 'I' for Inactive)
REMARK    1  A    between atoms: O1_2  and  C2_3 
REMARK    2  A    between atoms: C6_9  and  N3_10 
REMARK    3  A    between atoms: N3_10  and  C7_11 
REMARK    4  A    between atoms: C15_21  and  N4_22 
REMARK    5  A    between atoms: N4_22  and  C16_23 
REMARK    6  A    between atoms: C16_23  and  C17_24 
REMARK    7  A    between atoms: C17_24  and  C18_25 
REMARK    8  A    between atoms: C18_25  and  N5_26 
ROOT
HETATM    1  C2  UNL     1      20.095  -0.224  52.632  1.00  0.00     0.096 A 
HETATM    2  C3  UNL     1      20.384  -0.893  53.833  1.00  0.00     0.071 A 
HETATM    3  C4  UNL     1      21.701  -0.948  54.174  1.00  0.00     0.075 A 
HETATM    4  N1  UNL     1      22.004  -1.581  55.316  1.00  0.00    -0.241 NA
HETATM    5  C5  UNL     1      23.277  -1.678  55.720  1.00  0.00     0.236 A 
HETATM    6  N2  UNL     1      24.279  -1.157  55.015  1.00  0.00    -0.224 NA
HETATM    7  C6  UNL     1      24.045  -0.516  53.870  1.00  0.00     0.142 A 
HETATM    8  C13 UNL     1      22.747  -0.420  53.463  1.00  0.00     0.041 A 
HETATM    9  C14 UNL     1      22.445   0.221  52.308  1.00  0.00     0.049 A 
HETATM   10  C15 UNL     1      21.151   0.325  51.886  1.00  0.00     0.062 A 
ENDROOT
BRANCH  10  11
HETATM   11  N4  UNL     1      20.523   0.907  50.767  1.00  0.00    -0.388 N 
HETATM   12  H11 UNL     1      21.129   0.437  50.041  1.00  0.00     0.159 HD
BRANCH  11  13
HETATM   13  C16 UNL     1      19.903   1.484  49.658  1.00  0.00     0.121 C 
BRANCH  13  14
HETATM   14  C17 UNL     1      19.300   2.873  49.859  1.00  0.00     0.050 C 
BRANCH  14  15
HETATM   15  C18 UNL     1      18.233   2.872  50.896  1.00  0.00     0.274 C 
BRANCH  15  16
HETATM   16  N5  UNL     1      16.889   2.986  50.398  1.00  0.00     0.092 N 
HETATM   17  C19 UNL     1      16.253   4.186  50.864  1.00  0.00     0.298 C 
HETATM   18  C20 UNL     1      15.916   4.057  52.332  1.00  0.00     0.198 C 
HETATM   19  O2  UNL     1      14.970   3.024  52.438  1.00  0.00    -0.388 OA
HETATM   20  C21 UNL     1      15.528   1.814  52.075  1.00  0.00     0.198 C 
HETATM   21  C22 UNL     1      16.086   1.818  50.676  1.00  0.00     0.298 C 
ENDBRANCH  15  16
ENDBRANCH  14  15
ENDBRANCH  13  14
ENDBRANCH  11  13
ENDBRANCH  10  11
BRANCH   1  22
HETATM   22  O1  UNL     1      18.728  -0.203  52.338  1.00  0.00    -0.354 OA
HETATM   23  C1  UNL     1      17.772  -1.042  52.905  1.00  0.00     0.210 C 
ENDBRANCH   1  22
BRANCH   7  24
HETATM   24  N3  UNL     1      25.089   0.031  53.118  1.00  0.00    -0.340 N 
HETATM   25  H6  UNL     1      24.918   0.643  52.313  1.00  0.00     0.167 HD
BRANCH  24  26
HETATM   26  C7  UNL     1      26.487  -0.110  53.271  1.00  0.00     0.035 A 
HETATM   27  C8  UNL     1      27.222  -1.249  52.933  1.00  0.00     0.032 A 
HETATM   28  C9  UNL     1      28.574  -1.365  53.082  1.00  0.00     0.046 A 
HETATM   29  C10 UNL     1      29.318  -0.331  53.591  1.00  0.00     0.138 A 
HETATM   30  F1  UNL     1      30.637  -0.527  53.702  1.00  0.00    -0.204 F 
HETATM   31  C11 UNL     1      28.657   0.824  53.944  1.00  0.00     0.074 A 
HETATM   32 CL1  UNL     1      29.641   2.107  54.583  1.00  0.00    -0.081 Cl
HETATM   33  C12 UNL     1      27.282   0.890  53.774  1.00  0.00     0.056 A 
ENDBRANCH  24  26
ENDBRANCH   7  24
TORSDOF 8
ENDMDL
MODEL 3
REMARK VINA RESULT:      -7.7      4.013      6.752
REMARK  8 active torsions:
REMARK  status: ('A' for Active; 'I' for Inactive)
REMARK    1  A    between atoms: O1_2  and  C2_3 
REMARK    2  A    between atoms: C6_9  and  N3_10 
REMARK    3  A    between atoms: N3_10  and  C7_11 
REMARK    4  A    between atoms: C15_21  and  N4_22 
REMARK    5  A    between atoms: N4_22  and  C16_23 
REMARK    6  A    between atoms: C16_23  and  C17_24 
REMARK    7  A    between atoms: C17_24  and  C18_25 
REMARK    8  A    between atoms: C18_25  and  N5_26 
ROOT
HETATM    1  C2  UNL     1      26.268   0.747  52.870  1.00  0.00     0.096 A 
HETATM    2  C3  UNL     1      25.987  -0.149  53.915  1.00  0.00     0.071 A 
HETATM    3  C4  UNL     1      24.667  -0.368  54.163  1.00  0.00     0.075 A 
HETATM    4  N1  UNL     1      24.372  -1.218  55.157  1.00  0.00    -0.241 NA
HETATM    5  C5  UNL     1      23.097  -1.487  55.462  1.00  0.00     0.236 A 
HETATM    6  N2  UNL     1      22.084  -0.929  54.802  1.00  0.00    -0.224 NA
HETATM    7  C6  UNL     1      22.309  -0.075  53.805  1.00  0.00     0.142 A 
HETATM    8  C13 UNL     1      23.611   0.195  53.497  1.00  0.00     0.041 A 
HETATM    9  C14 UNL     1      23.904   1.056  52.492  1.00  0.00     0.049 A 
HETATM   10  C15 UNL     1      25.201   1.337  52.173  1.00  0.00     0.062 A 
ENDROOT
BRANCH  10  11
HETATM   11  N4  UNL     1      25.823   2.162  51.214  1.00  0.00    -0.388 N 
HETATM   12  H11 UNL     1      25.096   2.025  50.460  1.00  0.00     0.159 HD
BRANCH  11  13
HETATM   13  C16 UNL     1      26.438   2.978  50.264  1.00  0.00     0.121 C 
BRANCH  13  14
HETATM   14  C17 UNL     1      25.538   3.965  49.525  1.00  0.00     0.050 C 
BRANCH  14  15
HETATM   15  C18 UNL     1      24.096   3.650  49.711  1.00  0.00     0.274 C 
BRANCH  15  16
HETATM   16  N5  UNL     1      23.250   4.779  49.990  1.00  0.00     0.092 N 
HETATM   17  C19 UNL     1      23.710   5.515  51.134  1.00  0.00     0.298 C 
HETATM   18  C20 UNL     1      23.433   4.734  52.398  1.00  0.00     0.198 C 
HETATM   19  O2  UNL     1      22.036   4.635  52.510  1.00  0.00    -0.388 OA
HETATM   20  C21 UNL     1      21.518   3.875  51.480  1.00  0.00     0.198 C 
HETATM   21  C22 UNL     1      21.857   4.419  50.118  1.00  0.00     0.298 C 
ENDBRANCH  15  16
ENDBRANCH  14  15
ENDBRANCH  13  14
ENDBRANCH  11  13
ENDBRANCH  10  11
BRANCH   1  22
HETATM   22  O1  UNL     1      27.640   0.930  52.665  1.00  0.00    -0.354 OA
HETATM   23  C1  UNL     1      28.531   1.434  53.609  1.00  0.00     0.210 C 
ENDBRANCH   1  22
BRANCH   7  24
HETATM   24  N3  UNL     1      21.255   0.522  53.107  1.00  0.00    -0.340 N 
HETATM   25  H6  UNL     1      21.317   1.476  52.737  1.00  0.00     0.167 HD
BRANCH  24  26
HETATM   26  C7  UNL     1      19.981   0.006  52.776  1.00  0.00     0.035 A 
HETATM   27  C8  UNL     1      19.249  -0.891  53.557  1.00  0.00     0.032 A 
HETATM   28  C9  UNL     1      18.016  -1.374  53.224  1.00  0.00     0.046 A 
HETATM   29  C10 UNL     1      17.401  -0.991  52.059  1.00  0.00     0.138 A 
HETATM   30  F1  UNL     1      16.193  -1.510  51.810  1.00  0.00    -0.204 F 
HETATM   31  C11 UNL     1      18.066  -0.106  51.241  1.00  0.00     0.074 A 
HETATM   32 CL1  UNL     1      17.247   0.351  49.778  1.00  0.00    -0.081 Cl
HETATM   33  C12 UNL     1      19.317   0.354  51.625  1.00  0.00     0.056 A 
ENDBRANCH  24  26
ENDBRANCH   7  24
TORSDOF 8
ENDMDL
MODEL 4
REMARK VINA RESULT:      -7.6      3.124      6.515
REMARK  8 active torsions:
REMARK  status: ('A' for Active; 'I' for Inactive)
REMARK    1  A    between atoms: O1_2  and  C2_3 
REMARK    2  A    between atoms: C6_9  and  N3_10 
REMARK    3  A    between atoms: N3_10  and  C7_11 
REMARK    4  A    between atoms: C15_21  and  N4_22 
REMARK    5  A    between atoms: N4_22  and  C16_23 
REMARK    6  A    between atoms: C16_23  and  C17_24 
REMARK    7  A    between atoms: C17_24  and  C18_25 
REMARK    8  A    between atoms: C18_25  and  N5_26 
ROOT
HETATM    1  C2  UNL     1      21.527   0.752  53.343  1.00  0.00     0.096 A 
HETATM    2  C3  UNL     1      20.327   1.469  53.209  1.00  0.00     0.071 A 
HETATM    3  C4  UNL     1      20.322   2.436  52.250  1.00  0.00     0.075 A 
HETATM    4  N1  UNL     1      19.189   3.136  52.103  1.00  0.00    -0.241 NA
HETATM    5  C5  UNL     1      19.105   4.103  51.182  1.00  0.00     0.236 A 
HETATM    6  N2  UNL     1      20.129   4.406  50.386  1.00  0.00    -0.224 NA
HETATM    7  C6  UNL     1      21.284   3.749  50.483  1.00  0.00     0.142 A 
HETATM    8  C13 UNL     1      21.364   2.764  51.423  1.00  0.00     0.041 A 
HETATM    9  C14 UNL     1      22.513   2.059  51.570  1.00  0.00     0.049 A 
HETATM   10  C15 UNL     1      22.609   1.071  52.506  1.00  0.00     0.062 A 
ENDROOT
BRANCH  10  11
HETATM   11  N4  UNL     1      23.630   0.182  52.899  1.00  0.00    -0.388 N 
HETATM   12  H11 UNL     1      24.039   0.048  51.935  1.00  0.00     0.159 HD
BRANCH  11  13
HETATM   13  C16 UNL     1      24.640  -0.698  53.288  1.00  0.00     0.121 C 
BRANCH  13  14
HETATM   14  C17 UNL     1      25.166  -0.548  54.713  1.00  0.00     0.050 C 
BRANCH  14  15
HETATM   15  C18 UNL     1      26.518   0.074  54.745  1.00  0.00     0.274 C 
BRANCH  15  16
HETATM   16  N5  UNL     1      27.144   0.253  53.462  1.00  0.00     0.092 N 
HETATM   17  C19 UNL     1      28.146  -0.744  53.219  1.00  0.00     0.298 C 
HETATM   18  C20 UNL     1      29.361  -0.478  54.078  1.00  0.00     0.198 C 
HETATM   19  O2  UNL     1      29.894   0.750  53.650  1.00  0.00    -0.388 OA
HETATM   20  C21 UNL     1      29.014   1.781  53.918  1.00  0.00     0.198 C 
HETATM   21  C22 UNL     1      27.666   1.587  53.274  1.00  0.00     0.298 C 
ENDBRANCH  15  16
ENDBRANCH  14  15
ENDBRANCH  13  14
ENDBRANCH  11  13
ENDBRANCH  10  11
BRANCH   1  22
HETATM   22  O1  UNL     1      21.468  -0.225  54.343  1.00  0.00    -0.354 OA
HETATM   23  C1  UNL     1      20.833  -1.459  54.222  1.00  0.00     0.210 C 
ENDBRANCH   1  22
BRANCH   7  24
HETATM   24  N3  UNL     1      22.369   4.061  49.658  1.00  0.00    -0.340 N 
HETATM   25  H6  UNL     1      22.521   3.594  48.758  1.00  0.00     0.167 HD
BRANCH  24  26
HETATM   26  C7  UNL     1      23.409   5.000  49.845  1.00  0.00     0.035 A 
HETATM   27  C8  UNL     1      23.330   6.138  50.651  1.00  0.00     0.032 A 
HETATM   28  C9  UNL     1      24.349   7.031  50.825  1.00  0.00     0.046 A 
HETATM   29  C10 UNL     1      25.554   6.855  50.196  1.00  0.00     0.138 A 
HETATM   30  F1  UNL     1      26.499   7.776  50.422  1.00  0.00    -0.204 F 
HETATM   31  C11 UNL     1      25.702   5.751  49.386  1.00  0.00     0.074 A 
HETATM   32 CL1  UNL     1      27.248   5.570  48.611  1.00  0.00    -0.081 Cl
HETATM   33  C12 UNL     1      24.637   4.875  49.242  1.00  0.00     0.056 A 
ENDBRANCH  24  26
ENDBRANCH   7  24
TORSDOF 8
ENDMDL
MODEL 5
REMARK VINA RESULT:      -7.6      1.549      2.008
REMARK  8 active torsions:
REMARK  status: ('A' for Active; 'I' for Inactive)
REMARK    1  A    between atoms: O1_2  and  C2_3 
REMARK    2  A    between atoms: C6_9  and  N3_10 
REMARK    3  A    between atoms: N3_10  and  C7_11 
REMARK    4  A    between atoms: C15_21  and  N4_22 
REMARK    5  A    between atoms: N4_22  and  C16_23 
REMARK    6  A    between atoms: C16_23  and  C17_24 
REMARK    7  A    between atoms: C17_24  and  C18_25 
REMARK    8  A    between atoms: C18_25  and  N5_26 
ROOT
HETATM    1  C2  UNL     1      19.961   0.259  52.321  1.00  0.00     0.096 A 
HETATM    2  C3  UNL     1      20.173  -0.447  53.517  1.00  0.00     0.071 A 
HETATM    3  C4  UNL     1      21.473  -0.605  53.885  1.00  0.00     0.075 A 
HETATM    4  N1  UNL     1      21.702  -1.276  55.023  1.00  0.00    -0.241 NA
HETATM    5  C5  UNL     1      22.955  -1.473  55.452  1.00  0.00     0.236 A 
HETATM    6  N2  UNL     1      24.009  -1.017  54.778  1.00  0.00    -0.224 NA
HETATM    7  C6  UNL     1      23.849  -0.344  53.639  1.00  0.00     0.142 A 
HETATM    8  C13 UNL     1      22.571  -0.146  53.206  1.00  0.00     0.041 A 
HETATM    9  C14 UNL     1      22.344   0.533  52.055  1.00  0.00     0.049 A 
HETATM   10  C15 UNL     1      21.072   0.739  51.607  1.00  0.00     0.062 A 
ENDROOT
BRANCH  10  11
HETATM   11  N4  UNL     1      20.515   1.383  50.484  1.00  0.00    -0.388 N 
HETATM   12  H11 UNL     1      21.380   1.327  49.882  1.00  0.00     0.159 HD
BRANCH  11  13
HETATM   13  C16 UNL     1      19.963   2.021  49.372  1.00  0.00     0.121 C 
BRANCH  13  14
HETATM   14  C17 UNL     1      20.941   2.728  48.436  1.00  0.00     0.050 C 
BRANCH  14  15
HETATM   15  C18 UNL     1      20.917   4.204  48.617  1.00  0.00     0.274 C 
BRANCH  15  16
HETATM   16  N5  UNL     1      20.283   4.667  49.823  1.00  0.00     0.092 N 
HETATM   17  C19 UNL     1      19.317   5.693  49.552  1.00  0.00     0.298 C 
HETATM   18  C20 UNL     1      20.018   6.980  49.183  1.00  0.00     0.198 C 
HETATM   19  O2  UNL     1      20.737   7.386  50.319  1.00  0.00    -0.388 OA
HETATM   20  C21 UNL     1      21.742   6.482  50.606  1.00  0.00     0.198 C 
HETATM   21  C22 UNL     1      21.231   5.084  50.830  1.00  0.00     0.298 C 
ENDBRANCH  15  16
ENDBRANCH  14  15
ENDBRANCH  13  14
ENDBRANCH  11  13
ENDBRANCH  10  11
BRANCH   1  22
HETATM   22  O1  UNL     1      18.606   0.386  51.997  1.00  0.00    -0.354 OA
HETATM   23  C1  UNL     1      17.662  -0.634  52.081  1.00  0.00     0.210 C 
ENDBRANCH   1  22
BRANCH   7  24
HETATM   24  N3  UNL     1      24.948   0.135  52.919  1.00  0.00    -0.340 N 
HETATM   25  H6  UNL     1      24.839   0.736  52.095  1.00  0.00     0.167 HD
BRANCH  24  26
HETATM   26  C7  UNL     1      26.330  -0.070  53.131  1.00  0.00     0.035 A 
HETATM   27  C8  UNL     1      27.020  -1.252  52.847  1.00  0.00     0.032 A 
HETATM   28  C9  UNL     1      28.358  -1.430  53.053  1.00  0.00     0.046 A 
HETATM   29  C10 UNL     1      29.132  -0.421  53.569  1.00  0.00     0.138 A 
HETATM   30  F1  UNL     1      30.434  -0.679  53.737  1.00  0.00    -0.204 F 
HETATM   31  C11 UNL     1      28.516   0.772  53.870  1.00  0.00     0.074 A 
HETATM   32 CL1  UNL     1      29.537   2.020  54.519  1.00  0.00    -0.081 Cl
HETATM   33  C12 UNL     1      27.154   0.901  53.643  1.00  0.00     0.056 A 
ENDBRANCH  24  26
ENDBRANCH   7  24
TORSDOF 8
ENDMDL
MODEL 6
REMARK VINA RESULT:      -7.6      3.924      5.515
REMARK  8 active torsions:
REMARK  status: ('A' for Active; 'I' for Inactive)
REMARK    1  A    between atoms: O1_2  and  C2_3 
REMARK    2  A    between atoms: C6_9  and  N3_10 
REMARK    3  A    between atoms: N3_10  and  C7_11 
REMARK    4  A    between atoms: C15_21  and  N4_22 
REMARK    5  A    between atoms: N4_22  and  C16_23 
REMARK    6  A    between atoms: C16_23  and  C17_24 
REMARK    7  A    between atoms: C17_24  and  C18_25 
REMARK    8  A    between atoms: C18_25  and  N5_26 
ROOT
HETATM    1  C2  UNL     1      23.578   3.305  49.543  1.00  0.00     0.096 A 
HETATM    2  C3  UNL     1      22.648   2.320  49.914  1.00  0.00     0.071 A 
HETATM    3  C4  UNL     1      22.932   1.646  51.062  1.00  0.00     0.075 A 
HETATM    4  N1  UNL     1      22.060   0.699  51.438  1.00  0.00    -0.241 NA
HETATM    5  C5  UNL     1      22.269  -0.008  52.556  1.00  0.00     0.236 A 
HETATM    6  N2  UNL     1      23.334   0.197  53.328  1.00  0.00    -0.224 NA
HETATM    7  C6  UNL     1      24.239   1.122  53.009  1.00  0.00     0.142 A 
HETATM    8  C13 UNL     1      24.021   1.840  51.870  1.00  0.00     0.041 A 
HETATM    9  C14 UNL     1      24.905   2.795  51.493  1.00  0.00     0.049 A 
HETATM   10  C15 UNL     1      24.703   3.521  50.355  1.00  0.00     0.062 A 
ENDROOT
BRANCH  10  11
HETATM   11  N4  UNL     1      25.410   4.553  49.706  1.00  0.00    -0.388 N 
HETATM   12  H11 UNL     1      24.605   4.881  49.106  1.00  0.00     0.159 HD
BRANCH  11  13
HETATM   13  C16 UNL     1      26.111   5.574  49.062  1.00  0.00     0.121 C 
BRANCH  13  14
HETATM   14  C17 UNL     1      27.518   5.235  48.576  1.00  0.00     0.050 C 
BRANCH  14  15
HETATM   15  C18 UNL     1      28.356   6.452  48.405  1.00  0.00     0.274 C 
BRANCH  15  16
HETATM   16  N5  UNL     1      29.452   6.321  47.482  1.00  0.00     0.092 N 
HETATM   17  C19 UNL     1      30.588   5.695  48.097  1.00  0.00     0.298 C 
HETATM   18  C20 UNL     1      31.248   6.652  49.062  1.00  0.00     0.198 C 
HETATM   19  O2  UNL     1      31.736   7.723  48.296  1.00  0.00    -0.388 OA
HETATM   20  C21 UNL     1      30.694   8.427  47.725  1.00  0.00     0.198 C 
HETATM   21  C22 UNL     1      29.812   7.572  46.855  1.00  0.00     0.298 C 
ENDBRANCH  15  16
ENDBRANCH  14  15
ENDBRANCH  13  14
ENDBRANCH  11  13
ENDBRANCH  10  11
BRANCH   1  22
HETATM   22  O1  UNL     1      23.231   3.960  48.356  1.00  0.00    -0.354 OA
HETATM   23  C1  UNL     1      22.074   4.711  48.164  1.00  0.00     0.210 C 
ENDBRANCH   1  22
BRANCH   7  24
HETATM   24  N3  UNL     1      25.364   1.343  53.809  1.00  0.00    -0.340 N 
HETATM   25  H6  UNL     1      25.342   1.969  54.621  1.00  0.00     0.167 HD
BRANCH  24  26
HETATM   26  C7  UNL     1      26.670   0.811  53.702  1.00  0.00     0.035 A 
HETATM   27  C8  UNL     1      27.851   1.534  53.891  1.00  0.00     0.032 A 
HETATM   28  C9  UNL     1      29.104   1.001  53.791  1.00  0.00     0.046 A 
HETATM   29  C10 UNL     1      29.283  -0.324  53.488  1.00  0.00     0.138 A 
HETATM   30  F1  UNL     1      30.544  -0.765  53.411  1.00  0.00    -0.204 F 
HETATM   31  C11 UNL     1      28.161  -1.097  53.291  1.00  0.00     0.074 A 
HETATM   32 CL1  UNL     1      28.438  -2.770  52.912  1.00  0.00    -0.081 Cl
HETATM   33  C12 UNL     1      26.911  -0.507  53.404  1.00  0.00     0.056 A 
ENDBRANCH  24  26
ENDBRANCH   7  24
TORSDOF 8
ENDMDL
MODEL 7
REMARK VINA RESULT:      -7.5      5.618      8.630
REMARK  8 active torsions:
REMARK  status: ('A' for Active; 'I' for Inactive)
REMARK    1  A    between atoms: O1_2  and  C2_3 
REMARK    2  A    between atoms: C6_9  and  N3_10 
REMARK    3  A    between atoms: N3_10  and  C7_11 
REMARK    4  A    between atoms: C15_21  and  N4_22 
REMARK    5  A    between atoms: N4_22  and  C16_23 
REMARK    6  A    between atoms: C16_23  and  C17_24 
REMARK    7  A    between atoms: C17_24  and  C18_25 
REMARK    8  A    between atoms: C18_25  and  N5_26 
ROOT
HETATM    1  C2  UNL     1      26.971   6.597  48.253  1.00  0.00     0.096 A 
HETATM    2  C3  UNL     1      25.611   6.638  48.604  1.00  0.00     0.071 A 
HETATM    3  C4  UNL     1      25.125   5.518  49.206  1.00  0.00     0.075 A 
HETATM    4  N1  UNL     1      23.829   5.531  49.549  1.00  0.00    -0.241 NA
HETATM    5  C5  UNL     1      23.276   4.467  50.146  1.00  0.00     0.236 A 
HETATM    6  N2  UNL     1      23.979   3.370  50.418  1.00  0.00    -0.224 NA
HETATM    7  C6  UNL     1      25.271   3.293  50.101  1.00  0.00     0.142 A 
HETATM    8  C13 UNL     1      25.830   4.379  49.493  1.00  0.00     0.041 A 
HETATM    9  C14 UNL     1      27.140   4.362  49.147  1.00  0.00     0.049 A 
HETATM   10  C15 UNL     1      27.714   5.440  48.538  1.00  0.00     0.062 A 
ENDROOT
BRANCH  10  11
HETATM   11  N4  UNL     1      29.009   5.730  48.065  1.00  0.00    -0.388 N 
HETATM   12  H11 UNL     1      28.839   5.414  47.072  1.00  0.00     0.159 HD
BRANCH  11  13
HETATM   13  C16 UNL     1      30.292   6.017  47.596  1.00  0.00     0.121 C 
BRANCH  13  14
HETATM   14  C17 UNL     1      31.434   5.873  48.599  1.00  0.00     0.050 C 
BRANCH  14  15
HETATM   15  C18 UNL     1      32.695   5.429  47.947  1.00  0.00     0.274 C 
BRANCH  15  16
HETATM   16  N5  UNL     1      32.582   4.259  47.118  1.00  0.00     0.092 N 
HETATM   17  C19 UNL     1      33.161   3.107  47.747  1.00  0.00     0.298 C 
HETATM   18  C20 UNL     1      34.669   3.216  47.740  1.00  0.00     0.198 C 
HETATM   19  O2  UNL     1      35.067   3.190  46.393  1.00  0.00    -0.388 OA
HETATM   20  C21 UNL     1      34.608   4.312  45.729  1.00  0.00     0.198 C 
HETATM   21  C22 UNL     1      33.111   4.460  45.789  1.00  0.00     0.298 C 
ENDBRANCH  15  16
ENDBRANCH  14  15
ENDBRANCH  13  14
ENDBRANCH  11  13
ENDBRANCH  10  11
BRANCH   1  22
HETATM   22  O1  UNL     1      27.409   7.775  47.639  1.00  0.00    -0.354 OA
HETATM   23  C1  UNL     1      27.668   8.975  48.298  1.00  0.00     0.210 C 
ENDBRANCH   1  22
BRANCH   7  24
HETATM   24  N3  UNL     1      26.020   2.145  50.376  1.00  0.00    -0.340 N 
HETATM   25  H6  UNL     1      26.375   1.534  49.633  1.00  0.00     0.167 HD
BRANCH  24  26
HETATM   26  C7  UNL     1      26.427   1.605  51.617  1.00  0.00     0.035 A 
HETATM   27  C8  UNL     1      25.813   0.532  52.269  1.00  0.00     0.032 A 
HETATM   28  C9  UNL     1      26.225   0.020  53.465  1.00  0.00     0.046 A 
HETATM   29  C10 UNL     1      27.308   0.548  54.122  1.00  0.00     0.138 A 
HETATM   30  F1  UNL     1      27.645  -0.015  55.288  1.00  0.00    -0.204 F 
HETATM   31  C11 UNL     1      27.963   1.606  53.535  1.00  0.00     0.074 A 
HETATM   32 CL1  UNL     1      29.329   2.240  54.402  1.00  0.00    -0.081 Cl
HETATM   33  C12 UNL     1      27.503   2.090  52.319  1.00  0.00     0.056 A 
ENDBRANCH  24  26
ENDBRANCH   7  24
TORSDOF 8
ENDMDL
MODEL 8
REMARK VINA RESULT:      -7.4      5.899      8.947
REMARK  8 active torsions:
REMARK  status: ('A' for Active; 'I' for Inactive)
REMARK    1  A    between atoms: O1_2  and  C2_3 
REMARK    2  A    between atoms: C6_9  and  N3_10 
REMARK    3  A    between atoms: N3_10  and  C7_11 
REMARK    4  A    between atoms: C15_21  and  N4_22 
REMARK    5  A    between atoms: N4_22  and  C16_23 
REMARK    6  A    between atoms: C16_23  and  C17_24 
REMARK    7  A    between atoms: C17_24  and  C18_25 
REMARK    8  A    between atoms: C18_25  and  N5_26 
ROOT
HETATM    1  C2  UNL     1      27.022   6.845  47.998  1.00  0.00     0.096 A 
HETATM    2  C3  UNL     1      25.643   6.817  48.263  1.00  0.00     0.071 A 
HETATM    3  C4  UNL     1      25.190   5.707  48.908  1.00  0.00     0.075 A 
HETATM    4  N1  UNL     1      23.876   5.655  49.172  1.00  0.00    -0.241 NA
HETATM    5  C5  UNL     1      23.354   4.596  49.803  1.00  0.00     0.236 A 
HETATM    6  N2  UNL     1      24.105   3.568  50.189  1.00  0.00    -0.224 NA
HETATM    7  C6  UNL     1      25.418   3.557  49.956  1.00  0.00     0.142 A 
HETATM    8  C13 UNL     1      25.945   4.638  49.313  1.00  0.00     0.041 A 
HETATM    9  C14 UNL     1      27.273   4.686  49.047  1.00  0.00     0.049 A 
HETATM   10  C15 UNL     1      27.816   5.760  48.403  1.00  0.00     0.062 A 
ENDROOT
BRANCH  10  11
HETATM   11  N4  UNL     1      29.118   6.106  47.990  1.00  0.00    -0.388 N 
HETATM   12  H11 UNL     1      28.994   7.150  48.089  1.00  0.00     0.159 HD
BRANCH  11  13
HETATM   13  C16 UNL     1      30.408   6.449  47.580  1.00  0.00     0.121 C 
BRANCH  13  14
HETATM   14  C17 UNL     1      31.561   5.869  48.396  1.00  0.00     0.050 C 
BRANCH  14  15
HETATM   15  C18 UNL     1      32.721   5.503  47.539  1.00  0.00     0.274 C 
BRANCH  15  16
HETATM   16  N5  UNL     1      32.634   4.217  46.902  1.00  0.00     0.092 N 
HETATM   17  C19 UNL     1      33.319   3.206  47.656  1.00  0.00     0.298 C 
HETATM   18  C20 UNL     1      34.814   3.393  47.536  1.00  0.00     0.198 C 
HETATM   19  O2  UNL     1      35.137   3.185  46.185  1.00  0.00    -0.388 OA
HETATM   20  C21 UNL     1      34.573   4.166  45.393  1.00  0.00     0.198 C 
HETATM   21  C22 UNL     1      33.075   4.241  45.526  1.00  0.00     0.298 C 
ENDBRANCH  15  16
ENDBRANCH  14  15
ENDBRANCH  13  14
ENDBRANCH  11  13
ENDBRANCH  10  11
BRANCH   1  22
HETATM   22  O1  UNL     1      27.424   8.009  47.334  1.00  0.00    -0.354 OA
HETATM   23  C1  UNL     1      27.609   9.252  47.935  1.00  0.00     0.210 C 
ENDBRANCH   1  22
BRANCH   7  24
HETATM   24  N3  UNL     1      26.217   2.481  50.352  1.00  0.00    -0.340 N 
HETATM   25  H6  UNL     1      26.823   1.981  49.693  1.00  0.00     0.167 HD
BRANCH  24  26
HETATM   26  C7  UNL     1      26.369   1.885  51.624  1.00  0.00     0.035 A 
HETATM   27  C8  UNL     1      27.437   2.112  52.496  1.00  0.00     0.032 A 
HETATM   28  C9  UNL     1      27.564   1.531  53.726  1.00  0.00     0.046 A 
HETATM   29  C10 UNL     1      26.614   0.660  54.195  1.00  0.00     0.138 A 
HETATM   30  F1  UNL     1      26.815   0.138  55.410  1.00  0.00    -0.204 F 
HETATM   31  C11 UNL     1      25.532   0.392  53.387  1.00  0.00     0.074 A 
HETATM   32 CL1  UNL     1      24.354  -0.716  54.024  1.00  0.00    -0.081 Cl
HETATM   33  C12 UNL     1      25.451   1.007  52.146  1.00  0.00     0.056 A 
ENDBRANCH  24  26
ENDBRANCH   7  24
TORSDOF 8
ENDMDL
MODEL 9
REMARK VINA RESULT:      -7.4      5.609      8.534
REMARK  8 active torsions:
REMARK  status: ('A' for Active; 'I' for Inactive)
REMARK    1  A    between atoms: O1_2  and  C2_3 
REMARK    2  A    between atoms: C6_9  and  N3_10 
REMARK    3  A    between atoms: N3_10  and  C7_11 
REMARK    4  A    between atoms: C15_21  and  N4_22 
REMARK    5  A    between atoms: N4_22  and  C16_23 
REMARK    6  A    between atoms: C16_23  and  C17_24 
REMARK    7  A    between atoms: C17_24  and  C18_25 
REMARK    8  A    between atoms: C18_25  and  N5_26 
ROOT
HETATM    1  C2  UNL     1      26.538   6.922  49.388  1.00  0.00     0.096 A 
HETATM    2  C3  UNL     1      25.311   7.306  49.954  1.00  0.00     0.071 A 
HETATM    3  C4  UNL     1      24.504   6.286  50.357  1.00  0.00     0.075 A 
HETATM    4  N1  UNL     1      23.327   6.626  50.900  1.00  0.00    -0.241 NA
HETATM    5  C5  UNL     1      22.477   5.680  51.321  1.00  0.00     0.236 A 
HETATM    6  N2  UNL     1      22.762   4.384  51.219  1.00  0.00    -0.224 NA
HETATM    7  C6  UNL     1      23.916   3.980  50.687  1.00  0.00     0.142 A 
HETATM    8  C13 UNL     1      24.778   4.947  50.260  1.00  0.00     0.041 A 
HETATM    9  C14 UNL     1      25.967   4.599  49.711  1.00  0.00     0.049 A 
HETATM   10  C15 UNL     1      26.840   5.555  49.278  1.00  0.00     0.062 A 
ENDROOT
BRANCH  10  11
HETATM   11  N4  UNL     1      28.115   5.525  48.679  1.00  0.00    -0.388 N 
HETATM   12  H11 UNL     1      28.652   5.333  49.567  1.00  0.00     0.159 HD
BRANCH  11  13
HETATM   13  C16 UNL     1      29.379   5.496  48.086  1.00  0.00     0.121 C 
BRANCH  13  14
HETATM   14  C17 UNL     1      30.462   6.346  48.745  1.00  0.00     0.050 C 
BRANCH  14  15
HETATM   15  C18 UNL     1      31.780   5.655  48.759  1.00  0.00     0.274 C 
BRANCH  15  16
HETATM   16  N5  UNL     1      32.653   5.973  47.661  1.00  0.00     0.092 N 
HETATM   17  C19 UNL     1      33.848   5.178  47.690  1.00  0.00     0.298 C 
HETATM   18  C20 UNL     1      34.751   5.642  48.809  1.00  0.00     0.198 C 
HETATM   19  O2  UNL     1      35.140   6.955  48.494  1.00  0.00    -0.388 OA
HETATM   20  C21 UNL     1      34.050   7.803  48.518  1.00  0.00     0.198 C 
HETATM   21  C22 UNL     1      32.956   7.382  47.573  1.00  0.00     0.298 C 
ENDBRANCH  15  16
ENDBRANCH  14  15
ENDBRANCH  13  14
ENDBRANCH  11  13
ENDBRANCH  10  11
BRANCH   1  22
HETATM   22  O1  UNL     1      27.320   8.013  48.994  1.00  0.00    -0.354 OA
HETATM   23  C1  UNL     1      27.673   9.083  49.813  1.00  0.00     0.210 C 
ENDBRANCH   1  22
BRANCH   7  24
HETATM   24  N3  UNL     1      24.225   2.622  50.569  1.00  0.00    -0.340 N 
HETATM   25  H6  UNL     1      24.291   2.155  49.659  1.00  0.00     0.167 HD
BRANCH  24  26
HETATM   26  C7  UNL     1      24.496   1.664  51.573  1.00  0.00     0.035 A 
HETATM   27  C8  UNL     1      23.543   1.106  52.431  1.00  0.00     0.032 A 
HETATM   28  C9  UNL     1      23.823   0.176  53.390  1.00  0.00     0.046 A 
HETATM   29  C10 UNL     1      25.102  -0.283  53.575  1.00  0.00     0.138 A 
HETATM   30  F1  UNL     1      25.288  -1.195  54.537  1.00  0.00    -0.204 F 
HETATM   31  C11 UNL     1      26.091   0.223  52.762  1.00  0.00     0.074 A 
HETATM   32 CL1  UNL     1      27.695  -0.390  53.033  1.00  0.00    -0.081 Cl
HETATM   33  C12 UNL     1      25.755   1.167  51.803  1.00  0.00     0.056 A 
ENDBRANCH  24  26
ENDBRANCH   7  24
TORSDOF 8
ENDMDL
