MODEL 1
REMARK VINA RESULT:      -7.3      0.000      0.000
REMARK  4 active torsions:
REMARK  status: ('A' for Active; 'I' for Inactive)
REMARK    1  A    between atoms: C2_2  and  O1_3 
REMARK    2  A    between atoms: C2_2  and  C4_5 
REMARK    3  A    between atoms: C4_5  and  O2_19 
REMARK    4  A    between atoms: C5_6  and  C6_7 
ROOT
HETATM    1  C6  UNL     1      23.895  -0.132  53.541  1.00  0.00     0.074 A 
HETATM    2  N1  UNL     1      24.342  -0.738  54.652  1.00  0.00    -0.260 NA
HETATM    3  C7  UNL     1      23.584  -1.465  55.485  1.00  0.00     0.119 A 
HETATM    4  C8  UNL     1      22.243  -1.656  55.266  1.00  0.00     0.050 A 
HETATM    5  C9  UNL     1      21.726  -1.054  54.134  1.00  0.00     0.049 A 
HETATM    6  C10 UNL     1      22.553  -0.320  53.313  1.00  0.00     0.058 A 
HETATM    7  C11 UNL     1      22.176   0.333  52.066  1.00  0.00     0.131 C 
HETATM    8  F1  UNL     1      23.204   0.622  51.234  1.00  0.00    -0.205 F 
HETATM    9  C12 UNL     1      20.978   0.663  51.613  1.00  0.00     0.044 C 
HETATM   10  C13 UNL     1      19.696   0.429  52.305  1.00  0.00     0.020 C 
HETATM   11  C14 UNL     1      19.412  -0.392  53.304  1.00  0.00     0.088 C 
HETATM   12  N2  UNL     1      20.317  -1.290  53.984  1.00  0.00    -0.365 N 
HETATM   13  H12 UNL     1      19.966  -2.178  54.412  1.00  0.00     0.165 HD
ENDROOT
BRANCH   1  14
HETATM   14  C5  UNL     1      24.840   0.620  52.728  1.00  0.00     0.072 C 
HETATM   15  C4  UNL     1      26.121   0.320  52.468  1.00  0.00     0.102 C 
BRANCH  15  16
HETATM   16  C2  UNL     1      26.860  -0.823  52.933  1.00  0.00     0.092 C 
HETATM   17  C1  UNL     1      26.843  -2.008  52.335  1.00  0.00     0.053 C 
BRANCH  16  18
HETATM   18  O1  UNL     1      27.642  -0.728  54.063  1.00  0.00    -0.354 OA
HETATM   19  C3  UNL     1      29.001  -0.436  54.060  1.00  0.00     0.210 C 
ENDBRANCH  16  18
ENDBRANCH  15  16
BRANCH  15  20
HETATM   20  O2  UNL     1      26.842   1.197  51.659  1.00  0.00    -0.353 OA
HETATM   21  C15 UNL     1      26.491   2.519  51.387  1.00  0.00     0.210 C 
ENDBRANCH  15  20
ENDBRANCH   1  14
TORSDOF 4
ENDMDL
MODEL 2
REMARK VINA RESULT:      -7.0      2.494      4.096
REMARK  4 active torsions:
REMARK  status: ('A' for Active; 'I' for Inactive)
REMARK    1  A    between atoms: C2_2  and  O1_3 
REMARK    2  A    between atoms: C2_2  and  C4_5 
REMARK    3  A    between atoms: C4_5  and  O2_19 
REMARK    4  A    between atoms: C5_6  and  C6_7 
ROOT
HETATM    1  C6  UNL     1      25.177   1.563  52.361  1.00  0.00     0.074 A 
HETATM    2  N1  UNL     1      26.328   2.179  52.048  1.00  0.00    -0.260 NA
HETATM    3  C7  UNL     1      26.516   2.946  50.965  1.00  0.00     0.119 A 
HETATM    4  C8  UNL     1      25.516   3.173  50.054  1.00  0.00     0.050 A 
HETATM    5  C9  UNL     1      24.305   2.563  50.325  1.00  0.00     0.049 A 
HETATM    6  C10 UNL     1      24.168   1.787  51.455  1.00  0.00     0.058 A 
HETATM    7  C11 UNL     1      22.953   1.120  51.905  1.00  0.00     0.131 C 
HETATM    8  F1  UNL     1      22.934   0.783  53.215  1.00  0.00    -0.205 F 
HETATM    9  C12 UNL     1      21.856   0.817  51.231  1.00  0.00     0.044 C 
HETATM   10  C13 UNL     1      21.609   1.105  49.805  1.00  0.00     0.020 C 
HETATM   11  C14 UNL     1      22.221   1.955  48.996  1.00  0.00     0.088 C 
HETATM   12  N2  UNL     1      23.317   2.839  49.319  1.00  0.00    -0.365 N 
HETATM   13  H12 UNL     1      23.438   3.746  48.812  1.00  0.00     0.165 HD
ENDROOT
BRANCH   1  14
HETATM   14  C5  UNL     1      25.121   0.767  53.578  1.00  0.00     0.072 C 
HETATM   15  C4  UNL     1      25.887  -0.283  53.910  1.00  0.00     0.102 C 
BRANCH  15  16
HETATM   16  C2  UNL     1      26.949  -0.865  53.136  1.00  0.00     0.092 C 
HETATM   17  C1  UNL     1      26.791  -1.907  52.328  1.00  0.00     0.053 C 
BRANCH  16  18
HETATM   18  O1  UNL     1      28.223  -0.345  53.206  1.00  0.00    -0.354 OA
HETATM   19  C3  UNL     1      28.805   0.164  54.361  1.00  0.00     0.210 C 
ENDBRANCH  16  18
ENDBRANCH  15  16
BRANCH  15  20
HETATM   20  O2  UNL     1      25.647  -0.898  55.138  1.00  0.00    -0.353 OA
HETATM   21  C15 UNL     1      24.395  -1.266  55.627  1.00  0.00     0.210 C 
ENDBRANCH  15  20
ENDBRANCH   1  14
TORSDOF 4
ENDMDL
MODEL 3
REMARK VINA RESULT:      -6.9      2.588      3.620
REMARK  4 active torsions:
REMARK  status: ('A' for Active; 'I' for Inactive)
REMARK    1  A    between atoms: C2_2  and  O1_3 
REMARK    2  A    between atoms: C2_2  and  C4_5 
REMARK    3  A    between atoms: C4_5  and  O2_19 
REMARK    4  A    between atoms: C5_6  and  C6_7 
ROOT
HETATM    1  C6  UNL     1      23.858   1.587  52.527  1.00  0.00     0.074 A 
HETATM    2  N1  UNL     1      23.066   0.786  53.259  1.00  0.00    -0.260 NA
HETATM    3  C7  UNL     1      21.934   0.220  52.819  1.00  0.00     0.119 A 
HETATM    4  C8  UNL     1      21.472   0.419  51.543  1.00  0.00     0.050 A 
HETATM    5  C9  UNL     1      22.247   1.236  50.742  1.00  0.00     0.049 A 
HETATM    6  C10 UNL     1      23.403   1.789  51.246  1.00  0.00     0.058 A 
HETATM    7  C11 UNL     1      24.349   2.628  50.521  1.00  0.00     0.131 C 
HETATM    8  F1  UNL     1      25.586   2.701  51.064  1.00  0.00    -0.205 F 
HETATM    9  C12 UNL     1      24.188   3.307  49.398  1.00  0.00     0.044 C 
HETATM   10  C13 UNL     1      22.953   3.367  48.591  1.00  0.00     0.020 C 
HETATM   11  C14 UNL     1      21.899   2.568  48.600  1.00  0.00     0.088 C 
HETATM   12  N2  UNL     1      21.689   1.403  49.429  1.00  0.00    -0.365 N 
HETATM   13  H12 UNL     1      21.097   0.608  49.091  1.00  0.00     0.165 HD
ENDROOT
BRANCH   1  14
HETATM   14  C5  UNL     1      25.064   2.124  53.139  1.00  0.00     0.072 C 
HETATM   15  C4  UNL     1      26.064   1.445  53.720  1.00  0.00     0.102 C 
BRANCH  15  16
HETATM   16  C2  UNL     1      26.176   0.020  53.871  1.00  0.00     0.092 C 
HETATM   17  C1  UNL     1      26.462  -0.810  52.874  1.00  0.00     0.053 C 
BRANCH  16  18
HETATM   18  O1  UNL     1      25.982  -0.564  55.104  1.00  0.00    -0.354 OA
HETATM   19  C3  UNL     1      24.795  -1.155  55.519  1.00  0.00     0.210 C 
ENDBRANCH  16  18
ENDBRANCH  15  16
BRANCH  15  20
HETATM   20  O2  UNL     1      27.126   2.178  54.247  1.00  0.00    -0.353 OA
HETATM   21  C15 UNL     1      28.357   2.379  53.623  1.00  0.00     0.210 C 
ENDBRANCH  15  20
ENDBRANCH   1  14
TORSDOF 4
ENDMDL
MODEL 4
REMARK VINA RESULT:      -6.7      3.138      5.819
REMARK  4 active torsions:
REMARK  status: ('A' for Active; 'I' for Inactive)
REMARK    1  A    between atoms: C2_2  and  O1_3 
REMARK    2  A    between atoms: C2_2  and  C4_5 
REMARK    3  A    between atoms: C4_5  and  O2_19 
REMARK    4  A    between atoms: C5_6  and  C6_7 
ROOT
HETATM    1  C6  UNL     1      25.167   1.229  52.210  1.00  0.00     0.074 A 
HETATM    2  N1  UNL     1      24.084   0.473  52.455  1.00  0.00    -0.260 NA
HETATM    3  C7  UNL     1      23.975  -0.402  53.464  1.00  0.00     0.119 A 
HETATM    4  C8  UNL     1      24.992  -0.607  54.361  1.00  0.00     0.050 A 
HETATM    5  C9  UNL     1      26.134   0.145  54.158  1.00  0.00     0.049 A 
HETATM    6  C10 UNL     1      26.191   1.031  53.106  1.00  0.00     0.058 A 
HETATM    7  C11 UNL     1      27.296   1.926  52.786  1.00  0.00     0.131 C 
HETATM    8  F1  UNL     1      26.974   2.976  51.996  1.00  0.00    -0.205 F 
HETATM    9  C12 UNL     1      28.559   1.880  53.172  1.00  0.00     0.044 C 
HETATM   10  C13 UNL     1      29.157   0.862  54.059  1.00  0.00     0.020 C 
HETATM   11  C14 UNL     1      28.570   0.011  54.884  1.00  0.00     0.088 C 
HETATM   12  N2  UNL     1      27.154  -0.138  55.129  1.00  0.00    -0.365 N 
HETATM   13  H12 UNL     1      26.806  -0.472  56.058  1.00  0.00     0.165 HD
ENDROOT
BRANCH   1  14
HETATM   14  C5  UNL     1      25.138   2.143  51.078  1.00  0.00     0.072 C 
HETATM   15  C4  UNL     1      24.313   3.181  50.880  1.00  0.00     0.102 C 
BRANCH  15  16
HETATM   16  C2  UNL     1      23.261   3.636  51.749  1.00  0.00     0.092 C 
HETATM   17  C1  UNL     1      23.428   4.547  52.700  1.00  0.00     0.053 C 
BRANCH  16  18
HETATM   18  O1  UNL     1      21.989   3.120  51.625  1.00  0.00    -0.354 OA
HETATM   19  C3  UNL     1      20.852   3.681  52.193  1.00  0.00     0.210 C 
ENDBRANCH  16  18
ENDBRANCH  15  16
BRANCH  15  20
HETATM   20  O2  UNL     1      24.469   3.921  49.709  1.00  0.00    -0.353 OA
HETATM   21  C15 UNL     1      25.399   4.941  49.516  1.00  0.00     0.210 C 
ENDBRANCH  15  20
ENDBRANCH   1  14
TORSDOF 4
ENDMDL
MODEL 5
REMARK VINA RESULT:      -6.6      2.841      4.809
REMARK  4 active torsions:
REMARK  status: ('A' for Active; 'I' for Inactive)
REMARK    1  A    between atoms: C2_2  and  O1_3 
REMARK    2  A    between atoms: C2_2  and  C4_5 
REMARK    3  A    between atoms: C4_5  and  O2_19 
REMARK    4  A    between atoms: C5_6  and  C6_7 
ROOT
HETATM    1  C6  UNL     1      24.656   1.364  52.100  1.00  0.00     0.074 A 
HETATM    2  N1  UNL     1      25.897   1.876  52.064  1.00  0.00    -0.260 NA
HETATM    3  C7  UNL     1      26.897   1.519  52.881  1.00  0.00     0.119 A 
HETATM    4  C8  UNL     1      26.732   0.568  53.856  1.00  0.00     0.050 A 
HETATM    5  C9  UNL     1      25.473   0.004  53.941  1.00  0.00     0.049 A 
HETATM    6  C10 UNL     1      24.483   0.409  53.073  1.00  0.00     0.058 A 
HETATM    7  C11 UNL     1      23.127  -0.118  53.001  1.00  0.00     0.131 C 
HETATM    8  F1  UNL     1      22.482   0.112  51.834  1.00  0.00    -0.205 F 
HETATM    9  C12 UNL     1      22.440  -0.810  53.895  1.00  0.00     0.044 C 
HETATM   10  C13 UNL     1      22.923  -1.222  55.228  1.00  0.00     0.020 C 
HETATM   11  C14 UNL     1      24.158  -1.291  55.695  1.00  0.00     0.088 C 
HETATM   12  N2  UNL     1      25.380  -0.970  54.993  1.00  0.00    -0.365 N 
HETATM   13  H12 UNL     1      26.277  -1.451  55.236  1.00  0.00     0.165 HD
ENDROOT
BRANCH   1  14
HETATM   14  C5  UNL     1      23.674   1.847  51.141  1.00  0.00     0.072 C 
HETATM   15  C4  UNL     1      23.300   3.115  50.915  1.00  0.00     0.102 C 
BRANCH  15  16
HETATM   16  C2  UNL     1      23.790   4.297  51.571  1.00  0.00     0.092 C 
HETATM   17  C1  UNL     1      23.499   4.622  52.825  1.00  0.00     0.053 C 
BRANCH  16  18
HETATM   18  O1  UNL     1      24.610   5.174  50.895  1.00  0.00    -0.354 OA
HETATM   19  C3  UNL     1      25.602   4.796  49.999  1.00  0.00     0.210 C 
ENDBRANCH  16  18
ENDBRANCH  15  16
BRANCH  15  20
HETATM   20  O2  UNL     1      22.329   3.341  49.940  1.00  0.00    -0.353 OA
HETATM   21  C15 UNL     1      22.452   3.024  48.588  1.00  0.00     0.210 C 
ENDBRANCH  15  20
ENDBRANCH   1  14
TORSDOF 4
ENDMDL
MODEL 6
REMARK VINA RESULT:      -6.6      2.985      6.214
REMARK  4 active torsions:
REMARK  status: ('A' for Active; 'I' for Inactive)
REMARK    1  A    between atoms: C2_2  and  O1_3 
REMARK    2  A    between atoms: C2_2  and  C4_5 
REMARK    3  A    between atoms: C4_5  and  O2_19 
REMARK    4  A    between atoms: C5_6  and  C6_7 
ROOT
HETATM    1  C6  UNL     1      26.277   0.884  53.556  1.00  0.00     0.074 A 
HETATM    2  N1  UNL     1      26.660   2.109  53.952  1.00  0.00    -0.260 NA
HETATM    3  C7  UNL     1      27.932   2.501  54.106  1.00  0.00     0.119 A 
HETATM    4  C8  UNL     1      28.985   1.657  53.864  1.00  0.00     0.050 A 
HETATM    5  C9  UNL     1      28.652   0.380  53.453  1.00  0.00     0.049 A 
HETATM    6  C10 UNL     1      27.327   0.032  53.310  1.00  0.00     0.058 A 
HETATM    7  C11 UNL     1      26.814  -1.249  52.842  1.00  0.00     0.131 C 
HETATM    8  F1  UNL     1      25.540  -1.226  52.385  1.00  0.00    -0.205 F 
HETATM    9  C12 UNL     1      27.413  -2.426  52.774  1.00  0.00     0.044 C 
HETATM   10  C13 UNL     1      28.805  -2.713  53.174  1.00  0.00     0.020 C 
HETATM   11  C14 UNL     1      29.816  -1.883  53.369  1.00  0.00     0.088 C 
HETATM   12  N2  UNL     1      29.808  -0.444  53.235  1.00  0.00    -0.365 N 
HETATM   13  H12 UNL     1      30.679   0.071  52.965  1.00  0.00     0.165 HD
ENDROOT
BRANCH   1  14
HETATM   14  C5  UNL     1      24.854   0.606  53.427  1.00  0.00     0.072 C 
HETATM   15  C4  UNL     1      23.920   1.358  52.828  1.00  0.00     0.102 C 
BRANCH  15  16
HETATM   16  C2  UNL     1      24.110   2.622  52.169  1.00  0.00     0.092 C 
HETATM   17  C1  UNL     1      23.771   3.791  52.698  1.00  0.00     0.053 C 
BRANCH  16  18
HETATM   18  O1  UNL     1      24.673   2.669  50.912  1.00  0.00    -0.354 OA
HETATM   19  C3  UNL     1      24.027   3.139  49.775  1.00  0.00     0.210 C 
ENDBRANCH  16  18
ENDBRANCH  15  16
BRANCH  15  20
HETATM   20  O2  UNL     1      22.607   0.887  52.831  1.00  0.00    -0.353 OA
HETATM   21  C15 UNL     1      21.867   0.552  51.698  1.00  0.00     0.210 C 
ENDBRANCH  15  20
ENDBRANCH   1  14
TORSDOF 4
ENDMDL
MODEL 7
REMARK VINA RESULT:      -6.5      2.827      5.501
REMARK  4 active torsions:
REMARK  status: ('A' for Active; 'I' for Inactive)
REMARK    1  A    between atoms: C2_2  and  O1_3 
REMARK    2  A    between atoms: C2_2  and  C4_5 
REMARK    3  A    between atoms: C4_5  and  O2_19 
REMARK    4  A    between atoms: C5_6  and  C6_7 
ROOT
HETATM    1  C6  UNL     1      22.457   1.291  52.929  1.00  0.00     0.074 A 
HETATM    2  N1  UNL     1      21.539   0.632  53.653  1.00  0.00    -0.260 NA
HETATM    3  C7  UNL     1      21.791  -0.442  54.414  1.00  0.00     0.119 A 
HETATM    4  C8  UNL     1      23.049  -0.976  54.522  1.00  0.00     0.050 A 
HETATM    5  C9  UNL     1      24.038  -0.338  53.797  1.00  0.00     0.049 A 
HETATM    6  C10 UNL     1      23.722   0.764  53.033  1.00  0.00     0.058 A 
HETATM    7  C11 UNL     1      24.651   1.572  52.254  1.00  0.00     0.131 C 
HETATM    8  F1  UNL     1      24.211   2.813  51.941  1.00  0.00    -0.205 F 
HETATM    9  C12 UNL     1      25.870   1.285  51.829  1.00  0.00     0.044 C 
HETATM   10  C13 UNL     1      26.594   0.020  52.064  1.00  0.00     0.020 C 
HETATM   11  C14 UNL     1      26.367  -0.930  52.956  1.00  0.00     0.088 C 
HETATM   12  N2  UNL     1      25.321  -0.965  53.952  1.00  0.00    -0.365 N 
HETATM   13  H12 UNL     1      25.464  -1.470  54.857  1.00  0.00     0.165 HD
ENDROOT
BRANCH   1  14
HETATM   14  C5  UNL     1      22.035   2.449  52.154  1.00  0.00     0.072 C 
HETATM   15  C4  UNL     1      21.364   2.460  50.993  1.00  0.00     0.102 C 
BRANCH  15  16
HETATM   16  C2  UNL     1      20.902   1.324  50.243  1.00  0.00     0.092 C 
HETATM   17  C1  UNL     1      21.397   0.963  49.065  1.00  0.00     0.053 C 
BRANCH  16  18
HETATM   18  O1  UNL     1      19.886   0.536  50.736  1.00  0.00    -0.354 OA
HETATM   19  C3  UNL     1      18.700   1.022  51.275  1.00  0.00     0.210 C 
ENDBRANCH  16  18
ENDBRANCH  15  16
BRANCH  15  20
HETATM   20  O2  UNL     1      21.069   3.699  50.426  1.00  0.00    -0.353 OA
HETATM   21  C15 UNL     1      19.972   4.496  50.751  1.00  0.00     0.210 C 
ENDBRANCH  15  20
ENDBRANCH   1  14
TORSDOF 4
ENDMDL
MODEL 8
REMARK VINA RESULT:      -6.4      2.743      4.096
REMARK  4 active torsions:
REMARK  status: ('A' for Active; 'I' for Inactive)
REMARK    1  A    between atoms: C2_2  and  O1_3 
REMARK    2  A    between atoms: C2_2  and  C4_5 
REMARK    3  A    between atoms: C4_5  and  O2_19 
REMARK    4  A    between atoms: C5_6  and  C6_7 
ROOT
HETATM    1  C6  UNL     1      23.938   2.339  52.890  1.00  0.00     0.074 A 
HETATM    2  N1  UNL     1      25.227   1.998  53.050  1.00  0.00    -0.260 NA
HETATM    3  C7  UNL     1      25.663   0.759  53.318  1.00  0.00     0.119 A 
HETATM    4  C8  UNL     1      24.802  -0.299  53.458  1.00  0.00     0.050 A 
HETATM    5  C9  UNL     1      23.460  -0.008  53.305  1.00  0.00     0.049 A 
HETATM    6  C10 UNL     1      23.068   1.283  53.027  1.00  0.00     0.058 A 
HETATM    7  C11 UNL     1      21.705   1.743  52.791  1.00  0.00     0.131 C 
HETATM    8  F1  UNL     1      21.602   2.922  52.135  1.00  0.00    -0.205 F 
HETATM    9  C12 UNL     1      20.554   1.169  53.098  1.00  0.00     0.044 C 
HETATM   10  C13 UNL     1      20.390  -0.130  53.780  1.00  0.00     0.020 C 
HETATM   11  C14 UNL     1      21.258  -1.115  53.944  1.00  0.00     0.088 C 
HETATM   12  N2  UNL     1      22.625  -1.164  53.479  1.00  0.00    -0.365 N 
HETATM   13  H12 UNL     1      23.077  -2.079  53.247  1.00  0.00     0.165 HD
ENDROOT
BRANCH   1  14
HETATM   14  C5  UNL     1      23.615   3.727  52.594  1.00  0.00     0.072 C 
HETATM   15  C4  UNL     1      23.942   4.432  51.502  1.00  0.00     0.102 C 
BRANCH  15  16
HETATM   16  C2  UNL     1      24.691   3.976  50.363  1.00  0.00     0.092 C 
HETATM   17  C1  UNL     1      24.136   3.489  49.259  1.00  0.00     0.053 C 
BRANCH  16  18
HETATM   18  O1  UNL     1      26.068   4.025  50.374  1.00  0.00    -0.354 OA
HETATM   19  C3  UNL     1      26.863   4.132  49.240  1.00  0.00     0.210 C 
ENDBRANCH  16  18
ENDBRANCH  15  16
BRANCH  15  20
HETATM   20  O2  UNL     1      23.523   5.761  51.437  1.00  0.00    -0.353 OA
HETATM   21  C15 UNL     1      24.329   6.846  51.098  1.00  0.00     0.210 C 
ENDBRANCH  15  20
ENDBRANCH   1  14
TORSDOF 4
ENDMDL
MODEL 9
REMARK VINA RESULT:      -6.4      2.969      5.095
REMARK  4 active torsions:
REMARK  status: ('A' for Active; 'I' for Inactive)
REMARK    1  A    between atoms: C2_2  and  O1_3 
REMARK    2  A    between atoms: C2_2  and  C4_5 
REMARK    3  A    between atoms: C4_5  and  O2_19 
REMARK    4  A    between atoms: C5_6  and  C6_7 
ROOT
HETATM    1  C6  UNL     1      22.856   2.112  52.427  1.00  0.00     0.074 A 
HETATM    2  N1  UNL     1      21.845   1.311  52.054  1.00  0.00    -0.260 NA
HETATM    3  C7  UNL     1      21.787  -0.007  52.288  1.00  0.00     0.119 A 
HETATM    4  C8  UNL     1      22.788  -0.672  52.949  1.00  0.00     0.050 A 
HETATM    5  C9  UNL     1      23.858   0.103  53.358  1.00  0.00     0.049 A 
HETATM    6  C10 UNL     1      23.863   1.455  53.092  1.00  0.00     0.058 A 
HETATM    7  C11 UNL     1      24.886   2.412  53.494  1.00  0.00     0.131 C 
HETATM    8  F1  UNL     1      24.490   3.706  53.502  1.00  0.00    -0.205 F 
HETATM    9  C12 UNL     1      26.134   2.204  53.878  1.00  0.00     0.044 C 
HETATM   10  C13 UNL     1      26.798   0.891  53.990  1.00  0.00     0.020 C 
HETATM   11  C14 UNL     1      26.270  -0.321  54.054  1.00  0.00     0.088 C 
HETATM   12  N2  UNL     1      24.867  -0.668  54.029  1.00  0.00    -0.365 N 
HETATM   13  H12 UNL     1      24.522  -1.528  54.515  1.00  0.00     0.165 HD
ENDROOT
BRANCH   1  14
HETATM   14  C5  UNL     1      22.776   3.530  52.108  1.00  0.00     0.072 C 
HETATM   15  C4  UNL     1      23.171   4.144  50.983  1.00  0.00     0.102 C 
BRANCH  15  16
HETATM   16  C2  UNL     1      23.767   3.537  49.823  1.00  0.00     0.092 C 
HETATM   17  C1  UNL     1      23.128   3.352  48.674  1.00  0.00     0.053 C 
BRANCH  16  18
HETATM   18  O1  UNL     1      25.074   3.105  49.863  1.00  0.00    -0.354 OA
HETATM   19  C3  UNL     1      26.176   3.894  49.557  1.00  0.00     0.210 C 
ENDBRANCH  16  18
ENDBRANCH  15  16
BRANCH  15  20
HETATM   20  O2  UNL     1      22.998   5.525  50.902  1.00  0.00    -0.353 OA
HETATM   21  C15 UNL     1      24.008   6.475  51.040  1.00  0.00     0.210 C 
ENDBRANCH  15  20
ENDBRANCH   1  14
TORSDOF 4
ENDMDL
