MODEL 1
REMARK VINA RESULT:      -9.6      0.000      0.000
REMARK  4 active torsions:
REMARK  status: ('A' for Active; 'I' for Inactive)
REMARK    1  A    between atoms: C3_3  and  C4_4 
REMARK    2  A    between atoms: C14_18  and  O3_19 
REMARK    3  A    between atoms: O3_19  and  C15_20 
REMARK    4  A    between atoms: C15_20  and  N2_21 
ROOT
HETATM    1  C4  UNL     1      26.202   4.633  49.598  1.00  0.00     0.071 A 
HETATM    2  C5  UNL     1      25.000   4.689  50.140  1.00  0.00     0.064 A 
HETATM    3  C6  UNL     1      24.454   3.577  50.947  1.00  0.00     0.060 A 
HETATM    4  C7  UNL     1      23.243   3.888  51.323  1.00  0.00     0.164 C 
HETATM    5  O1  UNL     1      21.953   4.101  51.784  1.00  0.00    -0.361 OA
HETATM    6  C8  UNL     1      20.898   3.233  51.285  1.00  0.00     0.176 C 
HETATM    7  C9  UNL     1      19.550   3.702  51.610  1.00  0.00     0.046 C 
HETATM    8  C10 UNL     1      18.485   2.779  51.097  1.00  0.00     0.120 C 
HETATM    9  N1  UNL     1      18.346   1.537  51.714  1.00  0.00    -0.398 N 
HETATM   10  P1  UNL     1      19.655   0.377  51.771  1.00  0.00    -0.010 P 
HETATM   11  C11 UNL     1      20.243   0.137  53.515  1.00  0.00     0.220 C 
HETATM   12  O2  UNL     1      21.484  -0.407  53.667  1.00  0.00    -0.385 OA
HETATM   13  C12 UNL     1      22.494   0.340  53.080  1.00  0.00     0.170 C 
HETATM   14  C13 UNL     1      23.841  -0.280  53.452  1.00  0.00     0.061 C 
HETATM   15  C14 UNL     1      24.988   0.455  52.864  1.00  0.00     0.072 C 
HETATM   16  C16 UNL     1      24.555   1.417  52.006  1.00  0.00     0.222 C 
HETATM   17  N3  UNL     1      25.182   2.394  51.186  1.00  0.00    -0.330 N 
HETATM   18  C17 UNL     1      26.461   2.502  50.523  1.00  0.00     0.211 A 
HETATM   19  N4  UNL     1      26.935   3.459  49.825  1.00  0.00    -0.243 NA
HETATM   20  H12 UNL     1      17.818   1.556  52.606  1.00  0.00     0.158 HD
HETATM   21  H13 UNL     1      19.360  -0.884  51.113  1.00  0.00     0.082 HD
ENDROOT
BRANCH   1  22
HETATM   22  C3  UNL     1      26.911   5.608  48.782  1.00  0.00     0.001 A 
HETATM   23  C2  UNL     1      26.344   6.744  48.235  1.00  0.00    -0.025 A 
HETATM   24  C1  UNL     1      24.925   7.027  48.459  1.00  0.00     0.051 C 
HETATM   25  C21 UNL     1      27.174   7.547  47.493  1.00  0.00     0.079 A 
HETATM   26  C20 UNL     1      28.508   7.334  47.244  1.00  0.00     0.138 A 
HETATM   27 CL1  UNL     1      26.427   8.989  46.804  1.00  0.00    -0.080 Cl
HETATM   28  C19 UNL     1      29.030   6.189  47.810  1.00  0.00     0.045 A 
HETATM   29  F1  UNL     1      29.236   8.195  46.500  1.00  0.00    -0.204 F 
HETATM   30  C18 UNL     1      28.258   5.311  48.581  1.00  0.00     0.017 A 
ENDBRANCH   1  22
BRANCH  15  31
HETATM   31  O3  UNL     1      26.005  -0.289  53.558  1.00  0.00    -0.355 OA
BRANCH  31  32
HETATM   32  C15 UNL     1      26.584   0.245  54.724  1.00  0.00     0.434 C 
BRANCH  32  33
HETATM   33  N2  UNL     1      27.928  -0.185  54.938  1.00  0.00     0.101 N 
HETATM   34  H22 UNL     1      28.609   0.390  54.364  1.00  0.00     0.315 HD
HETATM   35  H23 UNL     1      28.181   0.083  55.934  1.00  0.00     0.315 HD
ENDBRANCH  32  33
ENDBRANCH  31  32
ENDBRANCH  15  31
TORSDOF 4
ENDMDL
MODEL 2
REMARK VINA RESULT:      -9.1      5.013      6.783
REMARK  4 active torsions:
REMARK  status: ('A' for Active; 'I' for Inactive)
REMARK    1  A    between atoms: C3_3  and  C4_4 
REMARK    2  A    between atoms: C14_18  and  O3_19 
REMARK    3  A    between atoms: O3_19  and  C15_20 
REMARK    4  A    between atoms: C15_20  and  N2_21 
ROOT
HETATM    1  C4  UNL     1      24.779   0.286  52.800  1.00  0.00     0.071 A 
HETATM    2  C5  UNL     1      24.151   1.359  52.357  1.00  0.00     0.064 A 
HETATM    3  C6  UNL     1      22.690   1.371  52.130  1.00  0.00     0.060 A 
HETATM    4  C7  UNL     1      22.349   2.540  51.661  1.00  0.00     0.164 C 
HETATM    5  O1  UNL     1      21.863   3.738  51.160  1.00  0.00    -0.361 OA
HETATM    6  C8  UNL     1      21.292   3.736  49.823  1.00  0.00     0.176 C 
HETATM    7  C9  UNL     1      21.060   5.076  49.281  1.00  0.00     0.046 C 
HETATM    8  C10 UNL     1      20.456   5.042  47.909  1.00  0.00     0.120 C 
HETATM    9  N1  UNL     1      19.132   4.621  47.789  1.00  0.00    -0.398 N 
HETATM   10  P1  UNL     1      18.613   3.034  48.315  1.00  0.00    -0.010 P 
HETATM   11  C11 UNL     1      17.462   3.168  49.765  1.00  0.00     0.220 C 
HETATM   12  O2  UNL     1      17.302   2.043  50.518  1.00  0.00    -0.385 OA
HETATM   13  C12 UNL     1      18.481   1.576  51.077  1.00  0.00     0.170 C 
HETATM   14  C13 UNL     1      18.151   0.417  52.019  1.00  0.00     0.061 C 
HETATM   15  C14 UNL     1      19.358  -0.152  52.666  1.00  0.00     0.072 C 
HETATM   16  C16 UNL     1      20.488   0.396  52.146  1.00  0.00     0.222 C 
HETATM   17  N3  UNL     1      21.883   0.241  52.372  1.00  0.00    -0.330 N 
HETATM   18  C17 UNL     1      22.727  -0.832  52.845  1.00  0.00     0.211 A 
HETATM   19  N4  UNL     1      23.987  -0.847  53.041  1.00  0.00    -0.243 NA
HETATM   20  H12 UNL     1      18.428   5.345  48.019  1.00  0.00     0.158 HD
HETATM   21  H13 UNL     1      18.064   2.208  47.254  1.00  0.00     0.082 HD
ENDROOT
BRANCH   1  22
HETATM   22  C3  UNL     1      26.191   0.074  53.085  1.00  0.00     0.001 A 
HETATM   23  C2  UNL     1      27.041   1.023  53.623  1.00  0.00    -0.025 A 
HETATM   24  C1  UNL     1      26.530   2.358  53.942  1.00  0.00     0.051 C 
HETATM   25  C21 UNL     1      28.343   0.637  53.824  1.00  0.00     0.079 A 
HETATM   26  C20 UNL     1      28.881  -0.595  53.543  1.00  0.00     0.138 A 
HETATM   27 CL1  UNL     1      29.406   1.866  54.509  1.00  0.00    -0.080 Cl
HETATM   28  C19 UNL     1      27.998  -1.508  53.007  1.00  0.00     0.045 A 
HETATM   29  F1  UNL     1      30.182  -0.870  53.784  1.00  0.00    -0.204 F 
HETATM   30  C18 UNL     1      26.651  -1.203  52.769  1.00  0.00     0.017 A 
ENDBRANCH   1  22
BRANCH  15  31
HETATM   31  O3  UNL     1      18.644  -1.033  53.551  1.00  0.00    -0.355 OA
BRANCH  31  32
HETATM   32  C15 UNL     1      17.393  -1.546  53.161  1.00  0.00     0.434 C 
BRANCH  32  33
HETATM   33  N2  UNL     1      17.150  -2.870  53.635  1.00  0.00     0.101 N 
HETATM   34  H22 UNL     1      16.854  -3.511  52.844  1.00  0.00     0.315 HD
HETATM   35  H23 UNL     1      18.092  -3.272  53.917  1.00  0.00     0.315 HD
ENDBRANCH  32  33
ENDBRANCH  31  32
ENDBRANCH  15  31
TORSDOF 4
ENDMDL
MODEL 3
REMARK VINA RESULT:      -8.8      5.172      8.750
REMARK  4 active torsions:
REMARK  status: ('A' for Active; 'I' for Inactive)
REMARK    1  A    between atoms: C3_3  and  C4_4 
REMARK    2  A    between atoms: C14_18  and  O3_19 
REMARK    3  A    between atoms: O3_19  and  C15_20 
REMARK    4  A    between atoms: C15_20  and  N2_21 
ROOT
HETATM    1  C4  UNL     1      20.234   0.199  51.763  1.00  0.00     0.071 A 
HETATM    2  C5  UNL     1      20.706   0.919  50.762  1.00  0.00     0.064 A 
HETATM    3  C6  UNL     1      22.113   1.370  50.720  1.00  0.00     0.060 A 
HETATM    4  C7  UNL     1      22.290   2.088  49.644  1.00  0.00     0.164 C 
HETATM    5  O1  UNL     1      22.604   2.864  48.539  1.00  0.00    -0.361 OA
HETATM    6  C8  UNL     1      22.974   4.252  48.764  1.00  0.00     0.176 C 
HETATM    7  C9  UNL     1      23.020   5.054  47.540  1.00  0.00     0.046 C 
HETATM    8  C10 UNL     1      23.420   6.476  47.801  1.00  0.00     0.120 C 
HETATM    9  N1  UNL     1      24.741   6.723  48.170  1.00  0.00    -0.398 N 
HETATM   10  P1  UNL     1      25.454   6.011  49.602  1.00  0.00    -0.010 P 
HETATM   11  C11 UNL     1      26.788   4.806  49.139  1.00  0.00     0.220 C 
HETATM   12  O2  UNL     1      27.143   3.899  50.093  1.00  0.00    -0.385 OA
HETATM   13  C12 UNL     1      26.097   3.088  50.505  1.00  0.00     0.170 C 
HETATM   14  C13 UNL     1      26.650   2.019  51.448  1.00  0.00     0.061 C 
HETATM   15  C14 UNL     1      25.597   1.099  51.945  1.00  0.00     0.072 C 
HETATM   16  C16 UNL     1      24.364   1.526  51.562  1.00  0.00     0.222 C 
HETATM   17  N3  UNL     1      23.033   1.060  51.742  1.00  0.00    -0.330 N 
HETATM   18  C17 UNL     1      22.353   0.278  52.748  1.00  0.00     0.211 A 
HETATM   19  N4  UNL     1      21.139  -0.113  52.788  1.00  0.00    -0.243 NA
HETATM   20  H12 UNL     1      25.412   6.740  47.382  1.00  0.00     0.158 HD
HETATM   21  H13 UNL     1      25.907   6.980  50.584  1.00  0.00     0.082 HD
ENDROOT
BRANCH   1  22
HETATM   22  C3  UNL     1      18.900  -0.336  51.988  1.00  0.00     0.001 A 
HETATM   23  C2  UNL     1      17.807  -0.107  51.172  1.00  0.00    -0.025 A 
HETATM   24  C1  UNL     1      17.952   0.738  49.984  1.00  0.00     0.051 C 
HETATM   25  C21 UNL     1      16.627  -0.699  51.546  1.00  0.00     0.079 A 
HETATM   26  C20 UNL     1      16.427  -1.496  52.647  1.00  0.00     0.138 A 
HETATM   27 CL1  UNL     1      15.248  -0.389  50.491  1.00  0.00    -0.080 Cl
HETATM   28  C19 UNL     1      17.544  -1.697  53.431  1.00  0.00     0.045 A 
HETATM   29  F1  UNL     1      15.218  -2.034  52.922  1.00  0.00    -0.204 F 
HETATM   30  C18 UNL     1      18.789  -1.132  53.127  1.00  0.00     0.017 A 
ENDBRANCH   1  22
BRANCH  15  31
HETATM   31  O3  UNL     1      26.498   0.194  52.607  1.00  0.00    -0.355 OA
BRANCH  31  32
HETATM   32  C15 UNL     1      27.174   0.611  53.769  1.00  0.00     0.434 C 
BRANCH  32  33
HETATM   33  N2  UNL     1      27.803  -0.458  54.474  1.00  0.00     0.101 N 
HETATM   34  H22 UNL     1      27.159  -0.857  55.216  1.00  0.00     0.315 HD
HETATM   35  H23 UNL     1      27.893  -1.265  53.789  1.00  0.00     0.315 HD
ENDBRANCH  32  33
ENDBRANCH  31  32
ENDBRANCH  15  31
TORSDOF 4
ENDMDL
MODEL 4
REMARK VINA RESULT:      -8.8      1.891      2.521
REMARK  4 active torsions:
REMARK  status: ('A' for Active; 'I' for Inactive)
REMARK    1  A    between atoms: C3_3  and  C4_4 
REMARK    2  A    between atoms: C14_18  and  O3_19 
REMARK    3  A    between atoms: O3_19  and  C15_20 
REMARK    4  A    between atoms: C15_20  and  N2_21 
ROOT
HETATM    1  C4  UNL     1      24.439   4.709  50.819  1.00  0.00     0.071 A 
HETATM    2  C5  UNL     1      23.168   4.618  51.163  1.00  0.00     0.064 A 
HETATM    3  C6  UNL     1      22.605   3.384  51.753  1.00  0.00     0.060 A 
HETATM    4  C7  UNL     1      21.329   3.563  51.958  1.00  0.00     0.164 C 
HETATM    5  O1  UNL     1      19.970   3.630  52.224  1.00  0.00    -0.361 OA
HETATM    6  C8  UNL     1      19.084   2.753  51.475  1.00  0.00     0.176 C 
HETATM    7  C9  UNL     1      17.667   3.084  51.624  1.00  0.00     0.046 C 
HETATM    8  C10 UNL     1      16.777   2.153  50.854  1.00  0.00     0.120 C 
HETATM    9  N1  UNL     1      16.655   0.842  51.311  1.00  0.00    -0.398 N 
HETATM   10  P1  UNL     1      18.038  -0.221  51.459  1.00  0.00    -0.010 P 
HETATM   11  C11 UNL     1      18.372  -0.618  53.241  1.00  0.00     0.220 C 
HETATM   12  O2  UNL     1      19.618  -1.087  53.535  1.00  0.00    -0.385 OA
HETATM   13  C12 UNL     1      20.635  -0.207  53.198  1.00  0.00     0.170 C 
HETATM   14  C13 UNL     1      21.959  -0.769  53.718  1.00  0.00     0.061 C 
HETATM   15  C14 UNL     1      23.113   0.108  53.401  1.00  0.00     0.072 C 
HETATM   16  C16 UNL     1      22.734   1.129  52.588  1.00  0.00     0.222 C 
HETATM   17  N3  UNL     1      23.390   2.236  51.984  1.00  0.00    -0.330 N 
HETATM   18  C17 UNL     1      24.740   2.509  51.550  1.00  0.00     0.211 A 
HETATM   19  N4  UNL     1      25.229   3.572  51.040  1.00  0.00    -0.243 NA
HETATM   20  H12 UNL     1      15.999   0.722  52.103  1.00  0.00     0.158 HD
HETATM   21  H13 UNL     1      17.958  -1.416  50.637  1.00  0.00     0.082 HD
ENDROOT
BRANCH   1  22
HETATM   22  C3  UNL     1      25.176   5.819  50.232  1.00  0.00     0.001 A 
HETATM   23  C2  UNL     1      26.257   5.688  49.380  1.00  0.00    -0.025 A 
HETATM   24  C1  UNL     1      26.738   4.354  49.017  1.00  0.00     0.051 C 
HETATM   25  C21 UNL     1      26.824   6.853  48.926  1.00  0.00     0.079 A 
HETATM   26  C20 UNL     1      26.423   8.130  49.233  1.00  0.00     0.138 A 
HETATM   27 CL1  UNL     1      28.203   6.659  47.842  1.00  0.00    -0.080 Cl
HETATM   28  C19 UNL     1      25.342   8.212  50.086  1.00  0.00     0.045 A 
HETATM   29  F1  UNL     1      27.053   9.212  48.725  1.00  0.00    -0.204 F 
HETATM   30  C18 UNL     1      24.701   7.077  50.599  1.00  0.00     0.017 A 
ENDBRANCH   1  22
BRANCH  15  31
HETATM   31  O3  UNL     1      24.074  -0.637  54.170  1.00  0.00    -0.355 OA
BRANCH  31  32
HETATM   32  C15 UNL     1      23.667  -1.287  55.350  1.00  0.00     0.434 C 
BRANCH  32  33
HETATM   33  N2  UNL     1      24.741  -1.545  56.254  1.00  0.00     0.101 N 
HETATM   34  H22 UNL     1      24.727  -2.552  56.586  1.00  0.00     0.315 HD
HETATM   35  H23 UNL     1      25.637  -1.502  55.686  1.00  0.00     0.315 HD
ENDBRANCH  32  33
ENDBRANCH  31  32
ENDBRANCH  15  31
TORSDOF 4
ENDMDL
MODEL 5
REMARK VINA RESULT:      -8.8      5.361      9.172
REMARK  4 active torsions:
REMARK  status: ('A' for Active; 'I' for Inactive)
REMARK    1  A    between atoms: C3_3  and  C4_4 
REMARK    2  A    between atoms: C14_18  and  O3_19 
REMARK    3  A    between atoms: O3_19  and  C15_20 
REMARK    4  A    between atoms: C15_20  and  N2_21 
ROOT
HETATM    1  C4  UNL     1      23.943   2.866  50.967  1.00  0.00     0.071 A 
HETATM    2  C5  UNL     1      24.390   4.104  51.071  1.00  0.00     0.064 A 
HETATM    3  C6  UNL     1      24.225   5.088  49.980  1.00  0.00     0.060 A 
HETATM    4  C7  UNL     1      24.789   6.209  50.339  1.00  0.00     0.164 C 
HETATM    5  O1  UNL     1      25.350   7.448  50.604  1.00  0.00    -0.361 OA
HETATM    6  C8  UNL     1      26.469   7.880  49.781  1.00  0.00     0.176 C 
HETATM    7  C9  UNL     1      27.161   9.060  50.303  1.00  0.00     0.046 C 
HETATM    8  C10 UNL     1      28.298   9.491  49.426  1.00  0.00     0.120 C 
HETATM    9  N1  UNL     1      27.990  10.056  48.189  1.00  0.00    -0.398 N 
HETATM   10  P1  UNL     1      27.072   9.189  46.977  1.00  0.00    -0.010 P 
HETATM   11  C11 UNL     1      25.420   9.990  46.709  1.00  0.00     0.220 C 
HETATM   12  O2  UNL     1      24.463   9.222  46.114  1.00  0.00    -0.385 OA
HETATM   13  C12 UNL     1      24.158   8.069  46.821  1.00  0.00     0.170 C 
HETATM   14  C13 UNL     1      22.972   7.380  46.145  1.00  0.00     0.061 C 
HETATM   15  C14 UNL     1      22.573   6.128  46.834  1.00  0.00     0.072 C 
HETATM   16  C16 UNL     1      23.460   5.813  47.815  1.00  0.00     0.222 C 
HETATM   17  N3  UNL     1      23.582   4.766  48.767  1.00  0.00    -0.330 N 
HETATM   18  C17 UNL     1      23.164   3.384  48.824  1.00  0.00     0.211 A 
HETATM   19  N4  UNL     1      23.305   2.531  49.763  1.00  0.00    -0.243 NA
HETATM   20  H12 UNL     1      27.717  11.054  48.228  1.00  0.00     0.158 HD
HETATM   21  H13 UNL     1      27.788   8.978  45.731  1.00  0.00     0.082 HD
ENDROOT
BRANCH   1  22
HETATM   22  C3  UNL     1      24.005   1.762  51.913  1.00  0.00     0.001 A 
HETATM   23  C2  UNL     1      25.144   1.038  52.211  1.00  0.00    -0.025 A 
HETATM   24  C1  UNL     1      26.407   1.364  51.545  1.00  0.00     0.051 C 
HETATM   25  C21 UNL     1      25.008   0.031  53.134  1.00  0.00     0.079 A 
HETATM   26  C20 UNL     1      23.853  -0.325  53.788  1.00  0.00     0.138 A 
HETATM   27 CL1  UNL     1      26.475  -0.879  53.495  1.00  0.00    -0.080 Cl
HETATM   28  C19 UNL     1      22.743   0.424  53.459  1.00  0.00     0.045 A 
HETATM   29  F1  UNL     1      23.831  -1.336  54.685  1.00  0.00    -0.204 F 
HETATM   30  C18 UNL     1      22.789   1.470  52.529  1.00  0.00     0.017 A 
ENDBRANCH   1  22
BRANCH  15  31
HETATM   31  O3  UNL     1      21.389   5.903  46.048  1.00  0.00    -0.355 OA
BRANCH  31  32
HETATM   32  C15 UNL     1      21.429   4.990  44.977  1.00  0.00     0.434 C 
BRANCH  32  33
HETATM   33  N2  UNL     1      21.879   3.691  45.357  1.00  0.00     0.101 N 
HETATM   34  H22 UNL     1      22.877   3.722  45.715  1.00  0.00     0.315 HD
HETATM   35  H23 UNL     1      21.332   3.418  46.225  1.00  0.00     0.315 HD
ENDBRANCH  32  33
ENDBRANCH  31  32
ENDBRANCH  15  31
TORSDOF 4
ENDMDL
MODEL 6
REMARK VINA RESULT:      -8.7      5.398      8.638
REMARK  4 active torsions:
REMARK  status: ('A' for Active; 'I' for Inactive)
REMARK    1  A    between atoms: C3_3  and  C4_4 
REMARK    2  A    between atoms: C14_18  and  O3_19 
REMARK    3  A    between atoms: O3_19  and  C15_20 
REMARK    4  A    between atoms: C15_20  and  N2_21 
ROOT
HETATM    1  C4  UNL     1      22.838   2.069  51.673  1.00  0.00     0.071 A 
HETATM    2  C5  UNL     1      22.743   2.223  50.365  1.00  0.00     0.064 A 
HETATM    3  C6  UNL     1      23.150   3.476  49.695  1.00  0.00     0.060 A 
HETATM    4  C7  UNL     1      22.914   3.363  48.417  1.00  0.00     0.164 C 
HETATM    5  O1  UNL     1      22.711   3.365  47.045  1.00  0.00    -0.361 OA
HETATM    6  C8  UNL     1      21.738   4.298  46.501  1.00  0.00     0.176 C 
HETATM    7  C9  UNL     1      21.397   4.041  45.101  1.00  0.00     0.046 C 
HETATM    8  C10 UNL     1      20.405   5.029  44.562  1.00  0.00     0.120 C 
HETATM    9  N1  UNL     1      20.835   6.338  44.355  1.00  0.00    -0.398 N 
HETATM   10  P1  UNL     1      21.466   7.324  45.657  1.00  0.00    -0.010 P 
HETATM   11  C11 UNL     1      23.270   7.678  45.395  1.00  0.00     0.220 C 
HETATM   12  O2  UNL     1      23.975   8.075  46.492  1.00  0.00    -0.385 OA
HETATM   13  C12 UNL     1      23.969   7.147  47.522  1.00  0.00     0.170 C 
HETATM   14  C13 UNL     1      24.915   7.631  48.622  1.00  0.00     0.061 C 
HETATM   15  C14 UNL     1      24.973   6.698  49.774  1.00  0.00     0.072 C 
HETATM   16  C16 UNL     1      24.049   5.710  49.641  1.00  0.00     0.222 C 
HETATM   17  N3  UNL     1      23.663   4.578  50.410  1.00  0.00    -0.330 N 
HETATM   18  C17 UNL     1      23.695   4.239  51.813  1.00  0.00     0.211 A 
HETATM   19  N4  UNL     1      23.343   3.159  52.395  1.00  0.00    -0.243 NA
HETATM   20  H12 UNL     1      21.367   6.483  43.478  1.00  0.00     0.158 HD
HETATM   21  H13 UNL     1      20.702   8.532  45.910  1.00  0.00     0.082 HD
ENDROOT
BRANCH   1  22
HETATM   22  C3  UNL     1      22.495   0.929  52.512  1.00  0.00     0.001 A 
HETATM   23  C2  UNL     1      21.218   0.428  52.684  1.00  0.00    -0.025 A 
HETATM   24  C1  UNL     1      20.091   1.062  51.996  1.00  0.00     0.051 C 
HETATM   25  C21 UNL     1      21.091  -0.657  53.515  1.00  0.00     0.079 A 
HETATM   26  C20 UNL     1      22.106  -1.291  54.189  1.00  0.00     0.138 A 
HETATM   27 CL1  UNL     1      19.452  -1.275  53.719  1.00  0.00    -0.080 Cl
HETATM   28  C19 UNL     1      23.361  -0.757  53.988  1.00  0.00     0.045 A 
HETATM   29  F1  UNL     1      21.869  -2.358  54.983  1.00  0.00    -0.204 F 
HETATM   30  C18 UNL     1      23.585   0.349  53.157  1.00  0.00     0.017 A 
ENDBRANCH   1  22
BRANCH  15  31
HETATM   31  O3  UNL     1      26.040   7.380  50.457  1.00  0.00    -0.355 OA
BRANCH  31  32
HETATM   32  C15 UNL     1      26.433   8.662  50.028  1.00  0.00     0.434 C 
BRANCH  32  33
HETATM   33  N2  UNL     1      27.488   9.221  50.808  1.00  0.00     0.101 N 
HETATM   34  H22 UNL     1      28.036   9.939  50.251  1.00  0.00     0.315 HD
HETATM   35  H23 UNL     1      27.031   9.815  51.561  1.00  0.00     0.315 HD
ENDBRANCH  32  33
ENDBRANCH  31  32
ENDBRANCH  15  31
TORSDOF 4
ENDMDL
MODEL 7
REMARK VINA RESULT:      -8.6      5.118      8.366
REMARK  4 active torsions:
REMARK  status: ('A' for Active; 'I' for Inactive)
REMARK    1  A    between atoms: C3_3  and  C4_4 
REMARK    2  A    between atoms: C14_18  and  O3_19 
REMARK    3  A    between atoms: O3_19  and  C15_20 
REMARK    4  A    between atoms: C15_20  and  N2_21 
ROOT
HETATM    1  C4  UNL     1      23.601   2.021  51.546  1.00  0.00     0.071 A 
HETATM    2  C5  UNL     1      23.041   2.805  50.643  1.00  0.00     0.064 A 
HETATM    3  C6  UNL     1      23.813   3.835  49.916  1.00  0.00     0.060 A 
HETATM    4  C7  UNL     1      23.004   4.479  49.120  1.00  0.00     0.164 C 
HETATM    5  O1  UNL     1      22.250   5.235  48.236  1.00  0.00    -0.361 OA
HETATM    6  C8  UNL     1      22.093   6.654  48.513  1.00  0.00     0.176 C 
HETATM    7  C9  UNL     1      21.071   7.303  47.692  1.00  0.00     0.046 C 
HETATM    8  C10 UNL     1      20.943   8.768  47.989  1.00  0.00     0.120 C 
HETATM    9  N1  UNL     1      21.984   9.607  47.592  1.00  0.00    -0.398 N 
HETATM   10  P1  UNL     1      23.622   9.390  48.171  1.00  0.00    -0.010 P 
HETATM   11  C11 UNL     1      24.745   8.881  46.783  1.00  0.00     0.220 C 
HETATM   12  O2  UNL     1      25.925   8.298  47.140  1.00  0.00    -0.385 OA
HETATM   13  C12 UNL     1      25.768   7.136  47.878  1.00  0.00     0.170 C 
HETATM   14  C13 UNL     1      27.142   6.495  48.079  1.00  0.00     0.061 C 
HETATM   15  C14 UNL     1      27.074   5.238  48.865  1.00  0.00     0.072 C 
HETATM   16  C16 UNL     1      25.820   5.040  49.350  1.00  0.00     0.222 C 
HETATM   17  N3  UNL     1      25.189   4.041  50.141  1.00  0.00    -0.330 N 
HETATM   18  C17 UNL     1      25.633   3.108  51.151  1.00  0.00     0.211 A 
HETATM   19  N4  UNL     1      24.969   2.219  51.782  1.00  0.00    -0.243 NA
HETATM   20  H12 UNL     1      21.968   9.867  46.590  1.00  0.00     0.158 HD
HETATM   21  H13 UNL     1      24.144  10.525  48.911  1.00  0.00     0.082 HD
ENDROOT
BRANCH   1  22
HETATM   22  C3  UNL     1      23.022   0.962  52.359  1.00  0.00     0.001 A 
HETATM   23  C2  UNL     1      21.671   0.682  52.450  1.00  0.00    -0.025 A 
HETATM   24  C1  UNL     1      20.710   1.490  51.695  1.00  0.00     0.051 C 
HETATM   25  C21 UNL     1      21.314  -0.360  53.269  1.00  0.00     0.079 A 
HETATM   26  C20 UNL     1      22.165  -1.149  54.004  1.00  0.00     0.138 A 
HETATM   27 CL1  UNL     1      19.585  -0.695  53.370  1.00  0.00    -0.080 Cl
HETATM   28  C19 UNL     1      23.502  -0.834  53.882  1.00  0.00     0.045 A 
HETATM   29  F1  UNL     1      21.706  -2.156  54.779  1.00  0.00    -0.204 F 
HETATM   30  C18 UNL     1      23.958   0.213  53.070  1.00  0.00     0.017 A 
ENDBRANCH   1  22
BRANCH  15  31
HETATM   31  O3  UNL     1      28.456   4.881  48.683  1.00  0.00    -0.355 OA
BRANCH  31  32
HETATM   32  C15 UNL     1      29.378   5.860  48.268  1.00  0.00     0.434 C 
BRANCH  32  33
HETATM   33  N2  UNL     1      30.394   6.127  49.233  1.00  0.00     0.101 N 
HETATM   34  H22 UNL     1      31.013   6.931  48.925  1.00  0.00     0.315 HD
HETATM   35  H23 UNL     1      29.907   6.526  50.088  1.00  0.00     0.315 HD
ENDBRANCH  32  33
ENDBRANCH  31  32
ENDBRANCH  15  31
TORSDOF 4
ENDMDL
MODEL 8
REMARK VINA RESULT:      -8.5      1.958      2.590
REMARK  4 active torsions:
REMARK  status: ('A' for Active; 'I' for Inactive)
REMARK    1  A    between atoms: C3_3  and  C4_4 
REMARK    2  A    between atoms: C14_18  and  O3_19 
REMARK    3  A    between atoms: O3_19  and  C15_20 
REMARK    4  A    between atoms: C15_20  and  N2_21 
ROOT
HETATM    1  C4  UNL     1      25.708   6.624  48.737  1.00  0.00     0.071 A 
HETATM    2  C5  UNL     1      24.697   6.288  49.516  1.00  0.00     0.064 A 
HETATM    3  C6  UNL     1      24.705   5.044  50.315  1.00  0.00     0.060 A 
HETATM    4  C7  UNL     1      23.572   4.951  50.955  1.00  0.00     0.164 C 
HETATM    5  O1  UNL     1      22.413   4.738  51.687  1.00  0.00    -0.361 OA
HETATM    6  C8  UNL     1      21.587   3.593  51.338  1.00  0.00     0.176 C 
HETATM    7  C9  UNL     1      20.268   3.607  51.970  1.00  0.00     0.046 C 
HETATM    8  C10 UNL     1      19.445   2.406  51.605  1.00  0.00     0.120 C 
HETATM    9  N1  UNL     1      19.828   1.171  52.126  1.00  0.00    -0.398 N 
HETATM   10  P1  UNL     1      21.406   0.481  51.812  1.00  0.00    -0.010 P 
HETATM   11  C11 UNL     1      22.409   0.403  53.371  1.00  0.00     0.220 C 
HETATM   12  O2  UNL     1      23.758   0.273  53.219  1.00  0.00    -0.385 OA
HETATM   13  C12 UNL     1      24.338   1.312  52.507  1.00  0.00     0.170 C 
HETATM   14  C13 UNL     1      25.857   1.139  52.541  1.00  0.00     0.061 C 
HETATM   15  C14 UNL     1      26.568   2.210  51.799  1.00  0.00     0.072 C 
HETATM   16  C16 UNL     1      25.687   3.004  51.136  1.00  0.00     0.222 C 
HETATM   17  N3  UNL     1      25.791   4.145  50.295  1.00  0.00    -0.330 N 
HETATM   18  C17 UNL     1      26.798   4.663  49.398  1.00  0.00     0.211 A 
HETATM   19  N4  UNL     1      26.794   5.735  48.706  1.00  0.00    -0.243 NA
HETATM   20  H12 UNL     1      19.531   1.006  53.104  1.00  0.00     0.158 HD
HETATM   21  H13 UNL     1      21.368  -0.795  51.119  1.00  0.00     0.082 HD
ENDROOT
BRANCH   1  22
HETATM   22  C3  UNL     1      25.891   7.788  47.884  1.00  0.00     0.001 A 
HETATM   23  C2  UNL     1      26.705   8.867  48.180  1.00  0.00    -0.025 A 
HETATM   24  C1  UNL     1      27.454   8.887  49.438  1.00  0.00     0.051 C 
HETATM   25  C21 UNL     1      26.751   9.874  47.249  1.00  0.00     0.079 A 
HETATM   26  C20 UNL     1      26.071   9.915  46.056  1.00  0.00     0.138 A 
HETATM   27 CL1  UNL     1      27.794  11.238  47.651  1.00  0.00    -0.080 Cl
HETATM   28  C19 UNL     1      25.272   8.819  45.804  1.00  0.00     0.045 A 
HETATM   29  F1  UNL     1      26.192  10.959  45.207  1.00  0.00    -0.204 F 
HETATM   30  C18 UNL     1      25.164   7.745  46.696  1.00  0.00     0.017 A 
ENDBRANCH   1  22
BRANCH  15  31
HETATM   31  O3  UNL     1      27.890   1.809  52.203  1.00  0.00    -0.355 OA
BRANCH  31  32
HETATM   32  C15 UNL     1      28.391   2.221  53.452  1.00  0.00     0.434 C 
BRANCH  32  33
HETATM   33  N2  UNL     1      29.521   1.467  53.886  1.00  0.00     0.101 N 
HETATM   34  H22 UNL     1      29.853   0.805  53.126  1.00  0.00     0.315 HD
HETATM   35  H23 UNL     1      30.332   2.149  53.967  1.00  0.00     0.315 HD
ENDBRANCH  32  33
ENDBRANCH  31  32
ENDBRANCH  15  31
TORSDOF 4
ENDMDL
MODEL 9
REMARK VINA RESULT:      -8.4      5.367      8.411
REMARK  4 active torsions:
REMARK  status: ('A' for Active; 'I' for Inactive)
REMARK    1  A    between atoms: C3_3  and  C4_4 
REMARK    2  A    between atoms: C14_18  and  O3_19 
REMARK    3  A    between atoms: O3_19  and  C15_20 
REMARK    4  A    between atoms: C15_20  and  N2_21 
ROOT
HETATM    1  C4  UNL     1      23.320   2.629  50.987  1.00  0.00     0.071 A 
HETATM    2  C5  UNL     1      22.904   2.622  49.734  1.00  0.00     0.064 A 
HETATM    3  C6  UNL     1      23.058   3.800  48.853  1.00  0.00     0.060 A 
HETATM    4  C7  UNL     1      22.529   3.526  47.692  1.00  0.00     0.164 C 
HETATM    5  O1  UNL     1      22.004   3.356  46.421  1.00  0.00    -0.361 OA
HETATM    6  C8  UNL     1      20.871   4.182  46.035  1.00  0.00     0.176 C 
HETATM    7  C9  UNL     1      20.221   3.747  44.798  1.00  0.00     0.046 C 
HETATM    8  C10 UNL     1      19.067   4.627  44.417  1.00  0.00     0.120 C 
HETATM    9  N1  UNL     1      19.351   5.917  43.971  1.00  0.00    -0.398 N 
HETATM   10  P1  UNL     1      20.213   7.073  44.963  1.00  0.00    -0.010 P 
HETATM   11  C11 UNL     1      21.874   7.456  44.229  1.00  0.00     0.220 C 
HETATM   12  O2  UNL     1      22.796   8.007  45.070  1.00  0.00    -0.385 OA
HETATM   13  C12 UNL     1      23.096   7.210  46.163  1.00  0.00     0.170 C 
HETATM   14  C13 UNL     1      24.246   7.855  46.937  1.00  0.00     0.061 C 
HETATM   15  C14 UNL     1      24.638   7.070  48.134  1.00  0.00     0.072 C 
HETATM   16  C16 UNL     1      23.774   6.041  48.339  1.00  0.00     0.222 C 
HETATM   17  N3  UNL     1      23.657   4.997  49.296  1.00  0.00    -0.330 N 
HETATM   18  C17 UNL     1      24.046   4.830  50.677  1.00  0.00     0.211 A 
HETATM   19  N4  UNL     1      23.915   3.816  51.441  1.00  0.00    -0.243 NA
HETATM   20  H12 UNL     1      19.647   5.974  42.980  1.00  0.00     0.158 HD
HETATM   21  H13 UNL     1      19.457   8.275  45.265  1.00  0.00     0.082 HD
ENDROOT
BRANCH   1  22
HETATM   22  C3  UNL     1      23.263   1.588  52.002  1.00  0.00     0.001 A 
HETATM   23  C2  UNL     1      24.354   0.883  52.475  1.00  0.00    -0.025 A 
HETATM   24  C1  UNL     1      25.688   1.165  51.941  1.00  0.00     0.051 C 
HETATM   25  C21 UNL     1      24.103  -0.064  53.437  1.00  0.00     0.079 A 
HETATM   26  C20 UNL     1      22.878  -0.377  53.974  1.00  0.00     0.138 A 
HETATM   27 CL1  UNL     1      25.512  -0.950  54.023  1.00  0.00    -0.080 Cl
HETATM   28  C19 UNL     1      21.820   0.351  53.472  1.00  0.00     0.045 A 
HETATM   29  F1  UNL     1      22.744  -1.328  54.924  1.00  0.00    -0.204 F 
HETATM   30  C18 UNL     1      21.981   1.336  52.489  1.00  0.00     0.017 A 
ENDBRANCH   1  22
BRANCH  15  31
HETATM   31  O3  UNL     1      25.793   7.866  48.455  1.00  0.00    -0.355 OA
BRANCH  31  32
HETATM   32  C15 UNL     1      25.866   8.512  49.704  1.00  0.00     0.434 C 
BRANCH  32  33
HETATM   33  N2  UNL     1      26.249   7.644  50.769  1.00  0.00     0.101 N 
HETATM   34  H22 UNL     1      25.661   6.761  50.773  1.00  0.00     0.315 HD
HETATM   35  H23 UNL     1      27.216   7.275  50.532  1.00  0.00     0.315 HD
ENDBRANCH  32  33
ENDBRANCH  31  32
ENDBRANCH  15  31
TORSDOF 4
ENDMDL
