MODEL 1
REMARK VINA RESULT:      -7.4      0.000      0.000
REMARK  5 active torsions:
REMARK  status: ('A' for Active; 'I' for Inactive)
REMARK    1  A    between atoms: O1_2  and  C2_3 
REMARK    2  A    between atoms: C5_6  and  C6_7 
REMARK    3  A    between atoms: C6_7  and  C7_8 
REMARK       I    between atoms: C7_8  and  N1_10 
REMARK    4  A    between atoms: N1_10  and  S1_11 
REMARK    5  A    between atoms: S1_11  and  C8_14 
ROOT
HETATM    1  C7  UNL     1      23.320   2.803  51.853  1.00  0.00     0.235 C 
HETATM    2  O2  UNL     1      23.888   3.805  52.406  1.00  0.00    -0.272 OA
HETATM    3  N1  UNL     1      22.821   3.082  50.561  1.00  0.00    -0.250 N 
HETATM    4  H8  UNL     1      22.317   2.333  50.051  1.00  0.00     0.181 HD
ENDROOT
BRANCH   3   5
HETATM    5  S1  UNL     1      23.138   4.670  50.047  1.00  0.00     0.266 S 
HETATM    6  O3  UNL     1      22.242   4.978  48.880  1.00  0.00    -0.200 OA
HETATM    7  O4  UNL     1      22.799   5.599  51.197  1.00  0.00    -0.200 OA
BRANCH   5   8
HETATM    8  C8  UNL     1      24.763   4.922  49.518  1.00  0.00     0.092 A 
HETATM    9  P1  UNL     1      25.279   6.500  48.932  1.00  0.00    -0.006 P 
HETATM   10  C9  UNL     1      26.968   6.492  48.465  1.00  0.00     0.041 A 
HETATM   11  C10 UNL     1      27.670   5.312  48.600  1.00  0.00     0.035 A 
HETATM   12 CL1  UNL     1      29.337   5.423  48.114  1.00  0.00    -0.084 Cl
HETATM   13  C11 UNL     1      27.029   4.219  49.085  1.00  0.00     0.025 A 
HETATM   14  C12 UNL     1      25.779   3.944  49.510  1.00  0.00     0.028 A 
ENDBRANCH   5   8
ENDBRANCH   3   5
BRANCH   1  15
HETATM   15  C6  UNL     1      23.279   1.565  52.625  1.00  0.00     0.142 C 
BRANCH  15  16
HETATM   16  C5  UNL     1      24.548   0.816  52.757  1.00  0.00    -0.049 A 
HETATM   17  C4  UNL     1      24.512  -0.117  53.846  1.00  0.00     0.010 A 
HETATM   18  C3  UNL     1      25.717  -0.836  53.893  1.00  0.00     0.037 A 
HETATM   19  C2  UNL     1      26.831  -0.775  53.106  1.00  0.00     0.068 A 
HETATM   20  C14 UNL     1      26.781   0.143  52.088  1.00  0.00     0.037 A 
HETATM   21  C13 UNL     1      25.634   0.893  51.969  1.00  0.00     0.010 A 
BRANCH  19  22
HETATM   22  O1  UNL     1      27.854  -1.642  53.443  1.00  0.00    -0.356 OA
HETATM   23  C1  UNL     1      29.208  -1.269  53.390  1.00  0.00     0.210 C 
ENDBRANCH  19  22
ENDBRANCH  15  16
ENDBRANCH   1  15
TORSDOF 5
ENDMDL
MODEL 2
REMARK VINA RESULT:      -6.9      3.257      6.418
REMARK  5 active torsions:
REMARK  status: ('A' for Active; 'I' for Inactive)
REMARK    1  A    between atoms: O1_2  and  C2_3 
REMARK    2  A    between atoms: C5_6  and  C6_7 
REMARK    3  A    between atoms: C6_7  and  C7_8 
REMARK       I    between atoms: C7_8  and  N1_10 
REMARK    4  A    between atoms: N1_10  and  S1_11 
REMARK    5  A    between atoms: S1_11  and  C8_14 
ROOT
HETATM    1  C7  UNL     1      23.934   4.143  50.329  1.00  0.00     0.235 C 
HETATM    2  O2  UNL     1      24.123   4.359  51.575  1.00  0.00    -0.272 OA
HETATM    3  N1  UNL     1      23.461   2.842  50.050  1.00  0.00    -0.250 N 
HETATM    4  H8  UNL     1      23.310   2.570  49.060  1.00  0.00     0.181 HD
ENDROOT
BRANCH   3   5
HETATM    5  S1  UNL     1      23.220   1.900  51.443  1.00  0.00     0.266 S 
HETATM    6  O3  UNL     1      22.685   2.791  52.530  1.00  0.00    -0.200 OA
HETATM    7  O4  UNL     1      22.184   0.843  51.107  1.00  0.00    -0.200 OA
BRANCH   5   8
HETATM    8  C8  UNL     1      24.663   1.169  52.051  1.00  0.00     0.092 A 
HETATM    9  P1  UNL     1      24.584  -0.029  53.339  1.00  0.00    -0.006 P 
HETATM   10  C9  UNL     1      26.178  -0.618  53.767  1.00  0.00     0.041 A 
HETATM   11  C10 UNL     1      27.261  -0.104  53.085  1.00  0.00     0.035 A 
HETATM   12 CL1  UNL     1      28.790  -0.766  53.587  1.00  0.00    -0.084 Cl
HETATM   13  C11 UNL     1      27.048   0.826  52.120  1.00  0.00     0.025 A 
HETATM   14  C12 UNL     1      25.969   1.443  51.597  1.00  0.00     0.028 A 
ENDBRANCH   5   8
ENDBRANCH   3   5
BRANCH   1  15
HETATM   15  C6  UNL     1      24.230   5.247  49.421  1.00  0.00     0.142 C 
BRANCH  15  16
HETATM   16  C5  UNL     1      25.637   5.405  48.994  1.00  0.00    -0.049 A 
HETATM   17  C4  UNL     1      25.914   6.733  48.529  1.00  0.00     0.010 A 
HETATM   18  C3  UNL     1      27.271   6.841  48.188  1.00  0.00     0.037 A 
HETATM   19  C2  UNL     1      28.285   5.929  48.234  1.00  0.00     0.068 A 
HETATM   20  C14 UNL     1      27.935   4.684  48.692  1.00  0.00     0.037 A 
HETATM   21  C13 UNL     1      26.620   4.489  49.049  1.00  0.00     0.010 A 
BRANCH  19  22
HETATM   22  O1  UNL     1      29.522   6.382  47.814  1.00  0.00    -0.356 OA
HETATM   23  C1  UNL     1      30.689   5.608  47.934  1.00  0.00     0.210 C 
ENDBRANCH  19  22
ENDBRANCH  15  16
ENDBRANCH   1  15
TORSDOF 5
ENDMDL
MODEL 3
REMARK VINA RESULT:      -6.7      5.356      7.104
REMARK  5 active torsions:
REMARK  status: ('A' for Active; 'I' for Inactive)
REMARK    1  A    between atoms: O1_2  and  C2_3 
REMARK    2  A    between atoms: C5_6  and  C6_7 
REMARK    3  A    between atoms: C6_7  and  C7_8 
REMARK       I    between atoms: C7_8  and  N1_10 
REMARK    4  A    between atoms: N1_10  and  S1_11 
REMARK    5  A    between atoms: S1_11  and  C8_14 
ROOT
HETATM    1  C7  UNL     1      28.885   5.985  48.400  1.00  0.00     0.235 C 
HETATM    2  O2  UNL     1      29.486   4.924  48.018  1.00  0.00    -0.272 OA
HETATM    3  N1  UNL     1      29.753   6.956  48.948  1.00  0.00    -0.250 N 
HETATM    4  H8  UNL     1      29.345   7.837  49.312  1.00  0.00     0.181 HD
ENDROOT
BRANCH   3   5
HETATM    5  S1  UNL     1      31.386   6.489  48.922  1.00  0.00     0.266 S 
HETATM    6  O3  UNL     1      32.218   7.647  49.398  1.00  0.00    -0.200 OA
HETATM    7  O4  UNL     1      31.544   5.329  49.889  1.00  0.00    -0.200 OA
BRANCH   5   8
HETATM    8  C8  UNL     1      31.966   6.059  47.353  1.00  0.00     0.092 A 
HETATM    9  P1  UNL     1      31.880   7.208  46.022  1.00  0.00    -0.006 P 
HETATM   10  C9  UNL     1      32.538   6.531  44.545  1.00  0.00     0.041 A 
HETATM   11  C10 UNL     1      33.024   5.241  44.586  1.00  0.00     0.035 A 
HETATM   12 CL1  UNL     1      33.658   4.677  43.068  1.00  0.00    -0.084 Cl
HETATM   13  C11 UNL     1      32.972   4.557  45.757  1.00  0.00     0.025 A 
HETATM   14  C12 UNL     1      32.538   4.817  47.007  1.00  0.00     0.028 A 
ENDBRANCH   5   8
ENDBRANCH   3   5
BRANCH   1  15
HETATM   15  C6  UNL     1      27.438   6.020  48.215  1.00  0.00     0.142 C 
BRANCH  15  16
HETATM   16  C5  UNL     1      26.625   5.184  49.124  1.00  0.00    -0.049 A 
HETATM   17  C4  UNL     1      25.531   5.915  49.696  1.00  0.00     0.010 A 
HETATM   18  C3  UNL     1      24.765   5.062  50.506  1.00  0.00     0.037 A 
HETATM   19  C2  UNL     1      24.905   3.737  50.801  1.00  0.00     0.068 A 
HETATM   20  C14 UNL     1      25.975   3.113  50.211  1.00  0.00     0.037 A 
HETATM   21  C13 UNL     1      26.782   3.877  49.399  1.00  0.00     0.010 A 
BRANCH  19  22
HETATM   22  O1  UNL     1      23.953   3.205  51.651  1.00  0.00    -0.356 OA
HETATM   23  C1  UNL     1      24.271   2.718  52.931  1.00  0.00     0.210 C 
ENDBRANCH  19  22
ENDBRANCH  15  16
ENDBRANCH   1  15
TORSDOF 5
ENDMDL
MODEL 4
REMARK VINA RESULT:      -6.6      2.291      2.887
REMARK  5 active torsions:
REMARK  status: ('A' for Active; 'I' for Inactive)
REMARK    1  A    between atoms: O1_2  and  C2_3 
REMARK    2  A    between atoms: C5_6  and  C6_7 
REMARK    3  A    between atoms: C6_7  and  C7_8 
REMARK       I    between atoms: C7_8  and  N1_10 
REMARK    4  A    between atoms: N1_10  and  S1_11 
REMARK    5  A    between atoms: S1_11  and  C8_14 
ROOT
HETATM    1  C7  UNL     1      22.280   2.574  50.861  1.00  0.00     0.235 C 
HETATM    2  O2  UNL     1      21.754   3.481  51.593  1.00  0.00    -0.272 OA
HETATM    3  N1  UNL     1      23.389   3.027  50.114  1.00  0.00    -0.250 N 
HETATM    4  H8  UNL     1      23.858   2.364  49.470  1.00  0.00     0.181 HD
ENDROOT
BRANCH   3   5
HETATM    5  S1  UNL     1      23.777   4.655  50.406  1.00  0.00     0.266 S 
HETATM    6  O3  UNL     1      22.682   5.513  49.834  1.00  0.00    -0.200 OA
HETATM    7  O4  UNL     1      23.828   4.850  51.911  1.00  0.00    -0.200 OA
BRANCH   5   8
HETATM    8  C8  UNL     1      25.256   5.165  49.674  1.00  0.00     0.092 A 
HETATM    9  P1  UNL     1      25.547   6.868  49.338  1.00  0.00    -0.006 P 
HETATM   10  C9  UNL     1      27.118   7.119  48.602  1.00  0.00     0.041 A 
HETATM   11  C10 UNL     1      27.910   6.013  48.378  1.00  0.00     0.035 A 
HETATM   12 CL1  UNL     1      29.448   6.380  47.653  1.00  0.00    -0.084 Cl
HETATM   13  C11 UNL     1      27.444   4.789  48.735  1.00  0.00     0.025 A 
HETATM   14  C12 UNL     1      26.315   4.314  49.300  1.00  0.00     0.028 A 
ENDBRANCH   5   8
ENDBRANCH   3   5
BRANCH   1  15
HETATM   15  C6  UNL     1      21.664   1.252  50.915  1.00  0.00     0.142 C 
BRANCH  15  16
HETATM   16  C5  UNL     1      21.852   0.475  52.160  1.00  0.00    -0.049 A 
HETATM   17  C4  UNL     1      23.238   0.323  52.495  1.00  0.00     0.010 A 
HETATM   18  C3  UNL     1      23.356  -0.373  53.709  1.00  0.00     0.037 A 
HETATM   19  C2  UNL     1      22.409  -0.885  54.548  1.00  0.00     0.068 A 
HETATM   20  C14 UNL     1      21.109  -0.694  54.153  1.00  0.00     0.037 A 
HETATM   21  C13 UNL     1      20.901  -0.019  52.971  1.00  0.00     0.010 A 
BRANCH  19  22
HETATM   22  O1  UNL     1      22.887  -1.524  55.677  1.00  0.00    -0.356 OA
HETATM   23  C1  UNL     1      24.239  -1.476  56.057  1.00  0.00     0.210 C 
ENDBRANCH  19  22
ENDBRANCH  15  16
ENDBRANCH   1  15
TORSDOF 5
ENDMDL
MODEL 5
REMARK VINA RESULT:      -6.5      2.240      3.210
REMARK  5 active torsions:
REMARK  status: ('A' for Active; 'I' for Inactive)
REMARK    1  A    between atoms: O1_2  and  C2_3 
REMARK    2  A    between atoms: C5_6  and  C6_7 
REMARK    3  A    between atoms: C6_7  and  C7_8 
REMARK       I    between atoms: C7_8  and  N1_10 
REMARK    4  A    between atoms: N1_10  and  S1_11 
REMARK    5  A    between atoms: S1_11  and  C8_14 
ROOT
HETATM    1  C7  UNL     1      25.968   3.233  50.472  1.00  0.00     0.235 C 
HETATM    2  O2  UNL     1      25.785   3.056  49.219  1.00  0.00    -0.272 OA
HETATM    3  N1  UNL     1      25.672   4.546  50.902  1.00  0.00    -0.250 N 
HETATM    4  H8  UNL     1      25.822   4.787  51.900  1.00  0.00     0.181 HD
ENDROOT
BRANCH   3   5
HETATM    5  S1  UNL     1      25.106   5.550  49.655  1.00  0.00     0.266 S 
HETATM    6  O3  UNL     1      24.260   4.723  48.727  1.00  0.00    -0.200 OA
HETATM    7  O4  UNL     1      24.245   6.627  50.290  1.00  0.00    -0.200 OA
BRANCH   5   8
HETATM    8  C8  UNL     1      26.361   6.257  48.701  1.00  0.00     0.092 A 
HETATM    9  P1  UNL     1      26.066   7.731  47.784  1.00  0.00    -0.006 P 
HETATM   10  C9  UNL     1      27.497   8.242  46.911  1.00  0.00     0.041 A 
HETATM   11  C10 UNL     1      28.636   7.473  47.031  1.00  0.00     0.035 A 
HETATM   12 CL1  UNL     1      29.994   8.078  46.128  1.00  0.00    -0.084 Cl
HETATM   13  C11 UNL     1      28.600   6.364  47.813  1.00  0.00     0.025 A 
HETATM   14  C12 UNL     1      27.671   5.752  48.576  1.00  0.00     0.028 A 
ENDBRANCH   5   8
ENDBRANCH   3   5
BRANCH   1  15
HETATM   15  C6  UNL     1      26.441   2.082  51.234  1.00  0.00     0.142 C 
BRANCH  15  16
HETATM   16  C5  UNL     1      25.425   1.316  51.990  1.00  0.00    -0.049 A 
HETATM   17  C4  UNL     1      25.987   0.163  52.631  1.00  0.00     0.010 A 
HETATM   18  C3  UNL     1      24.994  -0.495  53.374  1.00  0.00     0.037 A 
HETATM   19  C2  UNL     1      23.672  -0.211  53.557  1.00  0.00     0.068 A 
HETATM   20  C14 UNL     1      23.216   0.909  52.909  1.00  0.00     0.037 A 
HETATM   21  C13 UNL     1      24.125   1.616  52.155  1.00  0.00     0.010 A 
BRANCH  19  22
HETATM   22  O1  UNL     1      22.974  -1.088  54.366  1.00  0.00    -0.356 OA
HETATM   23  C1  UNL     1      21.576  -1.225  54.303  1.00  0.00     0.210 C 
ENDBRANCH  19  22
ENDBRANCH  15  16
ENDBRANCH   1  15
TORSDOF 5
ENDMDL
MODEL 6
REMARK VINA RESULT:      -6.5      3.382      4.302
REMARK  5 active torsions:
REMARK  status: ('A' for Active; 'I' for Inactive)
REMARK    1  A    between atoms: O1_2  and  C2_3 
REMARK    2  A    between atoms: C5_6  and  C6_7 
REMARK    3  A    between atoms: C6_7  and  C7_8 
REMARK       I    between atoms: C7_8  and  N1_10 
REMARK    4  A    between atoms: N1_10  and  S1_11 
REMARK    5  A    between atoms: S1_11  and  C8_14 
ROOT
HETATM    1  C7  UNL     1      26.354   2.847  50.694  1.00  0.00     0.235 C 
HETATM    2  O2  UNL     1      26.581   2.768  49.439  1.00  0.00    -0.272 OA
HETATM    3  N1  UNL     1      25.777   4.076  51.084  1.00  0.00    -0.250 N 
HETATM    4  H8  UNL     1      25.587   4.238  52.091  1.00  0.00     0.181 HD
ENDROOT
BRANCH   3   5
HETATM    5  S1  UNL     1      25.489   5.127  49.781  1.00  0.00     0.266 S 
HETATM    6  O3  UNL     1      25.375   6.527  50.317  1.00  0.00    -0.200 OA
HETATM    7  O4  UNL     1      26.687   5.042  48.853  1.00  0.00    -0.200 OA
BRANCH   5   8
HETATM    8  C8  UNL     1      24.027   4.792  48.923  1.00  0.00     0.092 A 
HETATM    9  P1  UNL     1      23.218   6.060  48.007  1.00  0.00    -0.006 P 
HETATM   10  C9  UNL     1      21.767   5.462  47.227  1.00  0.00     0.041 A 
HETATM   11  C10 UNL     1      21.436   4.135  47.408  1.00  0.00     0.035 A 
HETATM   12 CL1  UNL     1      19.983   3.651  46.583  1.00  0.00    -0.084 Cl
HETATM   13  C11 UNL     1      22.241   3.357  48.174  1.00  0.00     0.025 A 
HETATM   14  C12 UNL     1      23.381   3.541  48.871  1.00  0.00     0.028 A 
ENDBRANCH   5   8
ENDBRANCH   3   5
BRANCH   1  15
HETATM   15  C6  UNL     1      26.718   1.686  51.500  1.00  0.00     0.142 C 
BRANCH  15  16
HETATM   16  C5  UNL     1      25.620   0.986  52.202  1.00  0.00    -0.049 A 
HETATM   17  C4  UNL     1      26.111   0.059  53.181  1.00  0.00     0.010 A 
HETATM   18  C3  UNL     1      25.029  -0.535  53.851  1.00  0.00     0.037 A 
HETATM   19  C2  UNL     1      23.682  -0.367  53.711  1.00  0.00     0.068 A 
HETATM   20  C14 UNL     1      23.300   0.539  52.754  1.00  0.00     0.037 A 
HETATM   21  C13 UNL     1      24.297   1.170  52.047  1.00  0.00     0.010 A 
BRANCH  19  22
HETATM   22  O1  UNL     1      22.890  -1.129  54.550  1.00  0.00    -0.356 OA
HETATM   23  C1  UNL     1      21.656  -1.663  54.142  1.00  0.00     0.210 C 
ENDBRANCH  19  22
ENDBRANCH  15  16
ENDBRANCH   1  15
TORSDOF 5
ENDMDL
MODEL 7
REMARK VINA RESULT:      -6.5      1.499      1.820
REMARK  5 active torsions:
REMARK  status: ('A' for Active; 'I' for Inactive)
REMARK    1  A    between atoms: O1_2  and  C2_3 
REMARK    2  A    between atoms: C5_6  and  C6_7 
REMARK    3  A    between atoms: C6_7  and  C7_8 
REMARK       I    between atoms: C7_8  and  N1_10 
REMARK    4  A    between atoms: N1_10  and  S1_11 
REMARK    5  A    between atoms: S1_11  and  C8_14 
ROOT
HETATM    1  C7  UNL     1      23.595   2.747  51.575  1.00  0.00     0.235 C 
HETATM    2  O2  UNL     1      22.623   3.415  52.068  1.00  0.00    -0.272 OA
HETATM    3  N1  UNL     1      24.478   3.530  50.799  1.00  0.00    -0.250 N 
HETATM    4  H8  UNL     1      25.279   3.062  50.335  1.00  0.00     0.181 HD
ENDROOT
BRANCH   3   5
HETATM    5  S1  UNL     1      24.051   5.174  50.749  1.00  0.00     0.266 S 
HETATM    6  O3  UNL     1      22.855   5.326  49.849  1.00  0.00    -0.200 OA
HETATM    7  O4  UNL     1      23.673   5.591  52.158  1.00  0.00    -0.200 OA
BRANCH   5   8
HETATM    8  C8  UNL     1      25.291   6.199  50.121  1.00  0.00     0.092 A 
HETATM    9  P1  UNL     1      26.445   5.588  48.940  1.00  0.00    -0.006 P 
HETATM   10  C9  UNL     1      27.591   6.824  48.460  1.00  0.00     0.041 A 
HETATM   11  C10 UNL     1      27.470   8.074  49.031  1.00  0.00     0.035 A 
HETATM   12 CL1  UNL     1      28.653   9.221  48.477  1.00  0.00    -0.084 Cl
HETATM   13  C11 UNL     1      26.477   8.290  49.931  1.00  0.00     0.025 A 
HETATM   14  C12 UNL     1      25.485   7.551  50.469  1.00  0.00     0.028 A 
ENDBRANCH   5   8
ENDBRANCH   3   5
BRANCH   1  15
HETATM   15  C6  UNL     1      23.634   1.321  51.886  1.00  0.00     0.142 C 
BRANCH  15  16
HETATM   16  C5  UNL     1      24.909   0.785  52.409  1.00  0.00    -0.049 A 
HETATM   17  C4  UNL     1      24.725   0.050  53.628  1.00  0.00     0.010 A 
HETATM   18  C3  UNL     1      25.954  -0.479  54.050  1.00  0.00     0.037 A 
HETATM   19  C2  UNL     1      27.203  -0.400  53.504  1.00  0.00     0.068 A 
HETATM   20  C14 UNL     1      27.290   0.320  52.340  1.00  0.00     0.037 A 
HETATM   21  C13 UNL     1      26.129   0.877  51.853  1.00  0.00     0.010 A 
BRANCH  19  22
HETATM   22  O1  UNL     1      28.206  -1.051  54.198  1.00  0.00    -0.356 OA
HETATM   23  C1  UNL     1      29.542  -1.058  53.763  1.00  0.00     0.210 C 
ENDBRANCH  19  22
ENDBRANCH  15  16
ENDBRANCH   1  15
TORSDOF 5
ENDMDL
MODEL 8
REMARK VINA RESULT:      -6.5      2.226      2.722
REMARK  5 active torsions:
REMARK  status: ('A' for Active; 'I' for Inactive)
REMARK    1  A    between atoms: O1_2  and  C2_3 
REMARK    2  A    between atoms: C5_6  and  C6_7 
REMARK    3  A    between atoms: C6_7  and  C7_8 
REMARK       I    between atoms: C7_8  and  N1_10 
REMARK    4  A    between atoms: N1_10  and  S1_11 
REMARK    5  A    between atoms: S1_11  and  C8_14 
ROOT
HETATM    1  C7  UNL     1      24.412   4.234  50.324  1.00  0.00     0.235 C 
HETATM    2  O2  UNL     1      24.374   4.185  49.048  1.00  0.00    -0.272 OA
HETATM    3  N1  UNL     1      24.754   5.509  50.827  1.00  0.00    -0.250 N 
HETATM    4  H8  UNL     1      24.838   5.632  51.854  1.00  0.00     0.181 HD
ENDROOT
BRANCH   3   5
HETATM    5  S1  UNL     1      24.987   6.671  49.610  1.00  0.00     0.266 S 
HETATM    6  O3  UNL     1      24.038   6.374  48.482  1.00  0.00    -0.200 OA
HETATM    7  O4  UNL     1      24.650   8.027  50.203  1.00  0.00    -0.200 OA
BRANCH   5   8
HETATM    8  C8  UNL     1      26.581   6.675  48.944  1.00  0.00     0.092 A 
HETATM    9  P1  UNL     1      27.360   8.190  48.496  1.00  0.00    -0.006 P 
HETATM   10  C9  UNL     1      28.968   7.921  47.854  1.00  0.00     0.041 A 
HETATM   11  C10 UNL     1      29.422   6.621  47.772  1.00  0.00     0.035 A 
HETATM   12 CL1  UNL     1      31.030   6.473  47.128  1.00  0.00    -0.084 Cl
HETATM   13  C11 UNL     1      28.611   5.615  48.190  1.00  0.00     0.025 A 
HETATM   14  C12 UNL     1      27.370   5.530  48.712  1.00  0.00     0.028 A 
ENDBRANCH   5   8
ENDBRANCH   3   5
BRANCH   1  15
HETATM   15  C6  UNL     1      24.105   2.998  51.037  1.00  0.00     0.142 C 
BRANCH  15  16
HETATM   16  C5  UNL     1      25.123   2.502  51.988  1.00  0.00    -0.049 A 
HETATM   17  C4  UNL     1      26.437   2.486  51.410  1.00  0.00     0.010 A 
HETATM   18  C3  UNL     1      27.369   2.058  52.369  1.00  0.00     0.037 A 
HETATM   19  C2  UNL     1      27.211   1.686  53.673  1.00  0.00     0.068 A 
HETATM   20  C14 UNL     1      25.924   1.731  54.145  1.00  0.00     0.037 A 
HETATM   21  C13 UNL     1      24.944   2.140  53.270  1.00  0.00     0.010 A 
BRANCH  19  22
HETATM   22  O1  UNL     1      28.366   1.314  54.337  1.00  0.00    -0.356 OA
HETATM   23  C1  UNL     1      28.522   0.049  54.929  1.00  0.00     0.210 C 
ENDBRANCH  19  22
ENDBRANCH  15  16
ENDBRANCH   1  15
TORSDOF 5
ENDMDL
MODEL 9
REMARK VINA RESULT:      -6.3      4.838      6.564
REMARK  5 active torsions:
REMARK  status: ('A' for Active; 'I' for Inactive)
REMARK    1  A    between atoms: O1_2  and  C2_3 
REMARK    2  A    between atoms: C5_6  and  C6_7 
REMARK    3  A    between atoms: C6_7  and  C7_8 
REMARK       I    between atoms: C7_8  and  N1_10 
REMARK    4  A    between atoms: N1_10  and  S1_11 
REMARK    5  A    between atoms: S1_11  and  C8_14 
ROOT
HETATM    1  C7  UNL     1      22.356   2.558  50.551  1.00  0.00     0.235 C 
HETATM    2  O2  UNL     1      21.754   1.756  49.758  1.00  0.00    -0.272 OA
HETATM    3  N1  UNL     1      21.481   3.284  51.388  1.00  0.00    -0.250 N 
HETATM    4  H8  UNL     1      21.884   3.981  52.042  1.00  0.00     0.181 HD
ENDROOT
BRANCH   3   5
HETATM    5  S1  UNL     1      19.846   2.880  51.163  1.00  0.00     0.266 S 
HETATM    6  O3  UNL     1      19.002   3.950  51.798  1.00  0.00    -0.200 OA
HETATM    7  O4  UNL     1      19.583   2.856  49.669  1.00  0.00    -0.200 OA
BRANCH   5   8
HETATM    8  C8  UNL     1      19.391   1.379  51.887  1.00  0.00     0.092 A 
HETATM    9  P1  UNL     1      20.378   0.663  53.157  1.00  0.00    -0.006 P 
HETATM   10  C9  UNL     1      19.697  -0.849  53.725  1.00  0.00     0.041 A 
HETATM   11  C10 UNL     1      18.525  -1.288  53.145  1.00  0.00     0.035 A 
HETATM   12 CL1  UNL     1      17.937  -2.792  53.791  1.00  0.00    -0.084 Cl
HETATM   13  C11 UNL     1      17.955  -0.537  52.168  1.00  0.00     0.025 A 
HETATM   14  C12 UNL     1      18.246   0.628  51.554  1.00  0.00     0.028 A 
ENDBRANCH   5   8
ENDBRANCH   3   5
BRANCH   1  15
HETATM   15  C6  UNL     1      23.813   2.592  50.464  1.00  0.00     0.142 C 
BRANCH  15  16
HETATM   16  C5  UNL     1      24.564   1.905  51.537  1.00  0.00    -0.049 A 
HETATM   17  C4  UNL     1      25.936   2.322  51.586  1.00  0.00     0.010 A 
HETATM   18  C3  UNL     1      26.587   1.681  52.652  1.00  0.00     0.037 A 
HETATM   19  C2  UNL     1      26.130   0.787  53.577  1.00  0.00     0.068 A 
HETATM   20  C14 UNL     1      24.807   0.443  53.459  1.00  0.00     0.037 A 
HETATM   21  C13 UNL     1      24.092   1.026  52.438  1.00  0.00     0.010 A 
BRANCH  19  22
HETATM   22  O1  UNL     1      27.060   0.349  54.502  1.00  0.00    -0.356 OA
HETATM   23  C1  UNL     1      28.268  -0.263  54.127  1.00  0.00     0.210 C 
ENDBRANCH  19  22
ENDBRANCH  15  16
ENDBRANCH   1  15
TORSDOF 5
ENDMDL
