MODEL 1
REMARK VINA RESULT:      -8.8      0.000      0.000
REMARK  6 active torsions:
REMARK  status: ('A' for Active; 'I' for Inactive)
REMARK    1  A    between atoms: C3_3  and  C4_4 
REMARK    2  A    between atoms: C6_6  and  C7_7 
REMARK    3  A    between atoms: C7_7  and  N1_8 
REMARK    4  A    between atoms: N1_8  and  C8_9 
REMARK    5  A    between atoms: N4_19  and  C16_20 
REMARK    6  A    between atoms: C16_20  and  N5_21 
ROOT
HETATM    1  C1  UNL     1      23.207   6.965  48.798  1.00  0.00     0.112 C 
HETATM    2  C2  UNL     1      24.560   6.405  48.786  1.00  0.00    -0.106 C 
HETATM    3  C3  UNL     1      25.695   5.953  48.766  1.00  0.00    -0.072 C 
ENDROOT
BRANCH   3   4
HETATM    4  C4  UNL     1      27.039   5.397  48.726  1.00  0.00    -0.011 C 
HETATM    5  C5  UNL     1      28.176   6.184  48.210  1.00  0.00     0.058 C 
HETATM    6  C6  UNL     1      27.095   4.166  49.192  1.00  0.00     0.008 C 
BRANCH   6   7
HETATM    7  C7  UNL     1      26.220   3.138  49.754  1.00  0.00     0.149 C 
BRANCH   7   8
HETATM    8  N1  UNL     1      26.045   3.297  51.177  1.00  0.00    -0.371 N 
HETATM    9  H10 UNL     1      25.526   4.161  51.418  1.00  0.00     0.161 HD
BRANCH   8  10
HETATM   10  C8  UNL     1      26.553   2.337  52.089  1.00  0.00     0.137 A 
HETATM   11  N2  UNL     1      27.850   2.267  52.374  1.00  0.00    -0.224 NA
HETATM   12  C9  UNL     1      28.325   1.356  53.232  1.00  0.00     0.235 A 
HETATM   13  N3  UNL     1      27.537   0.462  53.857  1.00  0.00    -0.241 NA
HETATM   14  C10 UNL     1      26.213   0.482  53.609  1.00  0.00     0.075 A 
HETATM   15  C11 UNL     1      25.453  -0.456  54.273  1.00  0.00     0.071 A 
HETATM   16  C15 UNL     1      25.736   1.426  52.723  1.00  0.00     0.041 A 
HETATM   17  C12 UNL     1      24.094  -0.466  54.043  1.00  0.00     0.097 A 
HETATM   18  C13 UNL     1      23.570   0.471  53.153  1.00  0.00     0.066 A 
HETATM   19  O3  UNL     1      23.156  -1.309  54.596  1.00  0.00    -0.347 OA
HETATM   20  C14 UNL     1      24.375   1.397  52.508  1.00  0.00     0.050 A 
HETATM   21  N4  UNL     1      22.161   0.495  52.889  1.00  0.00    -0.360 N 
HETATM   22  C21 UNL     1      21.253   0.104  53.984  1.00  0.00     0.151 C 
HETATM   23  C22 UNL     1      21.860  -0.858  54.941  1.00  0.00     0.195 C 
BRANCH  21  24
HETATM   24  C16 UNL     1      21.662   0.874  51.626  1.00  0.00     0.252 C 
BRANCH  24  25
HETATM   25  N5  UNL     1      20.732   1.994  51.819  1.00  0.00    -0.332 N 
HETATM   26  C17 UNL     1      20.746   3.353  52.281  1.00  0.00     0.153 C 
HETATM   27  C18 UNL     1      20.023   4.202  51.225  1.00  0.00     0.188 C 
HETATM   28  O1  UNL     1      18.661   3.989  51.264  1.00  0.00    -0.380 OA
HETATM   29  C19 UNL     1      18.266   2.678  51.142  1.00  0.00     0.270 C 
HETATM   30  C20 UNL     1      19.354   1.712  51.458  1.00  0.00     0.244 C 
HETATM   31  O2  UNL     1      18.856   0.533  51.356  1.00  0.00    -0.271 OA
ENDBRANCH  24  25
ENDBRANCH  21  24
ENDBRANCH   8  10
ENDBRANCH   7   8
ENDBRANCH   6   7
ENDBRANCH   3   4
TORSDOF 6
ENDMDL
MODEL 2
REMARK VINA RESULT:      -8.3      2.230      5.609
REMARK  6 active torsions:
REMARK  status: ('A' for Active; 'I' for Inactive)
REMARK    1  A    between atoms: C3_3  and  C4_4 
REMARK    2  A    between atoms: C6_6  and  C7_7 
REMARK    3  A    between atoms: C7_7  and  N1_8 
REMARK    4  A    between atoms: N1_8  and  C8_9 
REMARK    5  A    between atoms: N4_19  and  C16_20 
REMARK    6  A    between atoms: C16_20  and  N5_21 
ROOT
HETATM    1  C1  UNL     1      21.790   1.094  49.074  1.00  0.00     0.112 C 
HETATM    2  C2  UNL     1      21.098   0.628  50.276  1.00  0.00    -0.106 C 
HETATM    3  C3  UNL     1      20.534   0.247  51.291  1.00  0.00    -0.072 C 
ENDROOT
BRANCH   3   4
HETATM    4  C4  UNL     1      19.869  -0.231  52.494  1.00  0.00    -0.011 C 
HETATM    5  C5  UNL     1      18.406  -0.115  52.656  1.00  0.00     0.058 C 
HETATM    6  C6  UNL     1      20.707  -0.756  53.365  1.00  0.00     0.008 C 
BRANCH   6   7
HETATM    7  C7  UNL     1      22.135  -1.022  53.527  1.00  0.00     0.149 C 
BRANCH   7   8
HETATM    8  N1  UNL     1      22.910   0.194  53.581  1.00  0.00    -0.371 N 
HETATM    9  H10 UNL     1      22.396   0.970  54.036  1.00  0.00     0.161 HD
BRANCH   8  10
HETATM   10  C8  UNL     1      24.223   0.250  53.049  1.00  0.00     0.137 A 
HETATM   11  N2  UNL     1      25.103  -0.724  53.266  1.00  0.00    -0.224 NA
HETATM   12  C9  UNL     1      26.343  -0.664  52.766  1.00  0.00     0.235 A 
HETATM   13  N3  UNL     1      26.779   0.369  52.021  1.00  0.00    -0.241 NA
HETATM   14  C10 UNL     1      25.934   1.387  51.767  1.00  0.00     0.075 A 
HETATM   15  C11 UNL     1      26.433   2.418  51.002  1.00  0.00     0.071 A 
HETATM   16  C15 UNL     1      24.660   1.313  52.289  1.00  0.00     0.041 A 
HETATM   17  C12 UNL     1      25.596   3.478  50.724  1.00  0.00     0.097 A 
HETATM   18  C13 UNL     1      24.298   3.444  51.232  1.00  0.00     0.066 A 
HETATM   19  O3  UNL     1      25.886   4.603  49.984  1.00  0.00    -0.347 OA
HETATM   20  C14 UNL     1      23.841   2.383  51.998  1.00  0.00     0.050 A 
HETATM   21  N4  UNL     1      23.397   4.526  50.962  1.00  0.00    -0.360 N 
HETATM   22  C21 UNL     1      23.540   5.231  49.674  1.00  0.00     0.151 C 
HETATM   23  C22 UNL     1      24.926   5.206  49.137  1.00  0.00     0.195 C 
BRANCH  21  24
HETATM   24  C16 UNL     1      22.412   4.905  51.897  1.00  0.00     0.252 C 
BRANCH  24  25
HETATM   25  N5  UNL     1      21.119   4.956  51.205  1.00  0.00    -0.332 N 
HETATM   26  C17 UNL     1      20.463   5.717  50.179  1.00  0.00     0.153 C 
HETATM   27  C18 UNL     1      19.860   4.717  49.183  1.00  0.00     0.188 C 
HETATM   28  O1  UNL     1      18.750   4.095  49.715  1.00  0.00    -0.380 OA
HETATM   29  C19 UNL     1      18.945   3.471  50.924  1.00  0.00     0.270 C 
HETATM   30  C20 UNL     1      20.151   3.967  51.643  1.00  0.00     0.244 C 
HETATM   31  O2  UNL     1      20.202   3.349  52.768  1.00  0.00    -0.271 OA
ENDBRANCH  24  25
ENDBRANCH  21  24
ENDBRANCH   8  10
ENDBRANCH   7   8
ENDBRANCH   6   7
ENDBRANCH   3   4
TORSDOF 6
ENDMDL
MODEL 3
REMARK VINA RESULT:      -8.0      2.596      6.250
REMARK  6 active torsions:
REMARK  status: ('A' for Active; 'I' for Inactive)
REMARK    1  A    between atoms: C3_3  and  C4_4 
REMARK    2  A    between atoms: C6_6  and  C7_7 
REMARK    3  A    between atoms: C7_7  and  N1_8 
REMARK    4  A    between atoms: N1_8  and  C8_9 
REMARK    5  A    between atoms: N4_19  and  C16_20 
REMARK    6  A    between atoms: C16_20  and  N5_21 
ROOT
HETATM    1  C1  UNL     1      21.580   1.021  49.176  1.00  0.00     0.112 C 
HETATM    2  C2  UNL     1      20.615   0.668  50.219  1.00  0.00    -0.106 C 
HETATM    3  C3  UNL     1      19.823   0.376  51.103  1.00  0.00    -0.072 C 
ENDROOT
BRANCH   3   4
HETATM    4  C4  UNL     1      18.882   0.004  52.148  1.00  0.00    -0.011 C 
HETATM    5  C5  UNL     1      17.434   0.247  51.994  1.00  0.00     0.058 C 
HETATM    6  C6  UNL     1      19.469  -0.553  53.189  1.00  0.00     0.008 C 
BRANCH   6   7
HETATM    7  C7  UNL     1      20.802  -0.929  53.655  1.00  0.00     0.149 C 
BRANCH   7   8
HETATM    8  N1  UNL     1      21.707   0.194  53.670  1.00  0.00    -0.371 N 
HETATM    9  H10 UNL     1      21.217   1.099  53.545  1.00  0.00     0.161 HD
BRANCH   8  10
HETATM   10  C8  UNL     1      23.103   0.008  53.839  1.00  0.00     0.137 A 
HETATM   11  N2  UNL     1      23.586  -0.883  54.701  1.00  0.00    -0.224 NA
HETATM   12  C9  UNL     1      24.904  -1.052  54.860  1.00  0.00     0.235 A 
HETATM   13  N3  UNL     1      25.819  -0.344  54.170  1.00  0.00    -0.241 NA
HETATM   14  C10 UNL     1      25.391   0.575  53.282  1.00  0.00     0.075 A 
HETATM   15  C11 UNL     1      26.368   1.272  52.607  1.00  0.00     0.071 A 
HETATM   16  C15 UNL     1      24.030   0.739  53.128  1.00  0.00     0.041 A 
HETATM   17  C12 UNL     1      25.967   2.222  51.691  1.00  0.00     0.097 A 
HETATM   18  C13 UNL     1      24.600   2.420  51.504  1.00  0.00     0.066 A 
HETATM   19  O3  UNL     1      26.769   3.025  50.912  1.00  0.00    -0.347 OA
HETATM   20  C14 UNL     1      23.652   1.694  52.208  1.00  0.00     0.050 A 
HETATM   21  N4  UNL     1      24.142   3.396  50.559  1.00  0.00    -0.360 N 
HETATM   22  C21 UNL     1      24.973   3.632  49.363  1.00  0.00     0.151 C 
HETATM   23  C22 UNL     1      26.418   3.363  49.583  1.00  0.00     0.195 C 
BRANCH  21  24
HETATM   24  C16 UNL     1      22.945   4.109  50.769  1.00  0.00     0.252 C 
BRANCH  24  25
HETATM   25  N5  UNL     1      23.275   5.536  50.878  1.00  0.00    -0.332 N 
HETATM   26  C17 UNL     1      24.224   6.386  51.540  1.00  0.00     0.153 C 
HETATM   27  C18 UNL     1      24.813   7.326  50.478  1.00  0.00     0.188 C 
HETATM   28  O1  UNL     1      23.901   8.291  50.108  1.00  0.00    -0.380 OA
HETATM   29  C19 UNL     1      22.686   7.818  49.672  1.00  0.00     0.270 C 
HETATM   30  C20 UNL     1      22.415   6.422  50.114  1.00  0.00     0.244 C 
HETATM   31  O2  UNL     1      21.243   6.111  49.691  1.00  0.00    -0.271 OA
ENDBRANCH  24  25
ENDBRANCH  21  24
ENDBRANCH   8  10
ENDBRANCH   7   8
ENDBRANCH   6   7
ENDBRANCH   3   4
TORSDOF 6
ENDMDL
MODEL 4
REMARK VINA RESULT:      -8.0      8.025     12.131
REMARK  6 active torsions:
REMARK  status: ('A' for Active; 'I' for Inactive)
REMARK    1  A    between atoms: C3_3  and  C4_4 
REMARK    2  A    between atoms: C6_6  and  C7_7 
REMARK    3  A    between atoms: C7_7  and  N1_8 
REMARK    4  A    between atoms: N1_8  and  C8_9 
REMARK    5  A    between atoms: N4_19  and  C16_20 
REMARK    6  A    between atoms: C16_20  and  N5_21 
ROOT
HETATM    1  C1  UNL     1      29.115   8.569  45.316  1.00  0.00     0.112 C 
HETATM    2  C2  UNL     1      28.517   7.869  46.455  1.00  0.00    -0.106 C 
HETATM    3  C3  UNL     1      28.009   7.300  47.409  1.00  0.00    -0.072 C 
ENDROOT
BRANCH   3   4
HETATM    4  C4  UNL     1      27.425   6.625  48.558  1.00  0.00    -0.011 C 
HETATM    5  C5  UNL     1      27.324   5.153  48.610  1.00  0.00     0.058 C 
HETATM    6  C6  UNL     1      27.026   7.464  49.494  1.00  0.00     0.008 C 
BRANCH   6   7
HETATM    7  C7  UNL     1      26.974   8.899  49.764  1.00  0.00     0.149 C 
BRANCH   7   8
HETATM    8  N1  UNL     1      28.274   9.438  50.080  1.00  0.00    -0.371 N 
HETATM    9  H10 UNL     1      28.718   8.955  50.883  1.00  0.00     0.161 HD
BRANCH   8  10
HETATM   10  C8  UNL     1      28.824  10.511  49.334  1.00  0.00     0.137 A 
HETATM   11  N2  UNL     1      28.179  11.666  49.198  1.00  0.00    -0.224 NA
HETATM   12  C9  UNL     1      28.700  12.674  48.488  1.00  0.00     0.235 A 
HETATM   13  N3  UNL     1      29.895  12.591  47.872  1.00  0.00    -0.241 NA
HETATM   14  C10 UNL     1      30.596  11.445  47.972  1.00  0.00     0.075 A 
HETATM   15  C11 UNL     1      31.810  11.414  47.321  1.00  0.00     0.071 A 
HETATM   16  C15 UNL     1      30.047  10.414  48.706  1.00  0.00     0.041 A 
HETATM   17  C12 UNL     1      32.555  10.256  47.400  1.00  0.00     0.097 A 
HETATM   18  C13 UNL     1      32.037   9.188  48.133  1.00  0.00     0.066 A 
HETATM   19  O3  UNL     1      33.784  10.010  46.831  1.00  0.00    -0.347 OA
HETATM   20  C14 UNL     1      30.809   9.267  48.771  1.00  0.00     0.050 A 
HETATM   21  N4  UNL     1      32.782   7.969  48.241  1.00  0.00    -0.360 N 
HETATM   22  C21 UNL     1      34.254   8.064  48.240  1.00  0.00     0.151 C 
HETATM   23  C22 UNL     1      34.771   9.241  47.492  1.00  0.00     0.195 C 
BRANCH  21  24
HETATM   24  C16 UNL     1      32.131   6.722  48.340  1.00  0.00     0.252 C 
BRANCH  24  25
HETATM   25  N5  UNL     1      32.174   6.078  47.021  1.00  0.00    -0.332 N 
HETATM   26  C17 UNL     1      32.120   6.438  45.632  1.00  0.00     0.153 C 
HETATM   27  C18 UNL     1      33.296   5.741  44.934  1.00  0.00     0.188 C 
HETATM   28  O1  UNL     1      33.064   4.388  44.802  1.00  0.00    -0.380 OA
HETATM   29  C19 UNL     1      32.770   3.723  45.969  1.00  0.00     0.270 C 
HETATM   30  C20 UNL     1      32.301   4.632  47.051  1.00  0.00     0.244 C 
HETATM   31  O2  UNL     1      32.014   3.899  48.065  1.00  0.00    -0.271 OA
ENDBRANCH  24  25
ENDBRANCH  21  24
ENDBRANCH   8  10
ENDBRANCH   7   8
ENDBRANCH   6   7
ENDBRANCH   3   4
TORSDOF 6
ENDMDL
MODEL 5
REMARK VINA RESULT:      -7.9      2.252      5.109
REMARK  6 active torsions:
REMARK  status: ('A' for Active; 'I' for Inactive)
REMARK    1  A    between atoms: C3_3  and  C4_4 
REMARK    2  A    between atoms: C6_6  and  C7_7 
REMARK    3  A    between atoms: C7_7  and  N1_8 
REMARK    4  A    between atoms: N1_8  and  C8_9 
REMARK    5  A    between atoms: N4_19  and  C16_20 
REMARK    6  A    between atoms: C16_20  and  N5_21 
ROOT
HETATM    1  C1  UNL     1      25.885   3.578  49.352  1.00  0.00     0.112 C 
HETATM    2  C2  UNL     1      26.395   2.974  50.584  1.00  0.00    -0.106 C 
HETATM    3  C3  UNL     1      26.830   2.485  51.616  1.00  0.00    -0.072 C 
ENDROOT
BRANCH   3   4
HETATM    4  C4  UNL     1      27.363   1.889  52.831  1.00  0.00    -0.011 C 
HETATM    5  C5  UNL     1      28.590   2.411  53.465  1.00  0.00     0.058 C 
HETATM    6  C6  UNL     1      26.636   0.877  53.263  1.00  0.00     0.008 C 
BRANCH   6   7
HETATM    7  C7  UNL     1      25.431   0.131  52.909  1.00  0.00     0.149 C 
BRANCH   7   8
HETATM    8  N1  UNL     1      24.241   0.732  53.462  1.00  0.00    -0.371 N 
HETATM    9  H10 UNL     1      24.355   1.747  53.636  1.00  0.00     0.161 HD
BRANCH   8  10
HETATM   10  C8  UNL     1      23.079  -0.041  53.715  1.00  0.00     0.137 A 
HETATM   11  N2  UNL     1      23.124  -1.139  54.465  1.00  0.00    -0.224 NA
HETATM   12  C9  UNL     1      22.026  -1.868  54.697  1.00  0.00     0.235 A 
HETATM   13  N3  UNL     1      20.819  -1.547  54.195  1.00  0.00    -0.241 NA
HETATM   14  C10 UNL     1      20.709  -0.446  53.426  1.00  0.00     0.075 A 
HETATM   15  C11 UNL     1      19.452  -0.166  52.937  1.00  0.00     0.071 A 
HETATM   16  C15 UNL     1      21.849   0.296  53.195  1.00  0.00     0.041 A 
HETATM   17  C12 UNL     1      19.302   0.953  52.145  1.00  0.00     0.097 A 
HETATM   18  C13 UNL     1      20.429   1.732  51.886  1.00  0.00     0.066 A 
HETATM   19  O3  UNL     1      18.146   1.415  51.558  1.00  0.00    -0.347 OA
HETATM   20  C14 UNL     1      21.675   1.409  52.400  1.00  0.00     0.050 A 
HETATM   21  N4  UNL     1      20.315   2.904  51.069  1.00  0.00    -0.360 N 
HETATM   22  C21 UNL     1      19.043   3.650  51.117  1.00  0.00     0.151 C 
HETATM   23  C22 UNL     1      17.869   2.798  51.444  1.00  0.00     0.195 C 
BRANCH  21  24
HETATM   24  C16 UNL     1      21.378   3.325  50.244  1.00  0.00     0.252 C 
BRANCH  24  25
HETATM   25  N5  UNL     1      21.914   4.577  50.793  1.00  0.00    -0.332 N 
HETATM   26  C17 UNL     1      22.534   5.062  51.993  1.00  0.00     0.153 C 
HETATM   27  C18 UNL     1      23.790   5.840  51.576  1.00  0.00     0.188 C 
HETATM   28  O1  UNL     1      23.457   7.056  51.016  1.00  0.00    -0.380 OA
HETATM   29  C19 UNL     1      22.585   6.997  49.954  1.00  0.00     0.270 C 
HETATM   30  C20 UNL     1      21.814   5.724  49.908  1.00  0.00     0.244 C 
HETATM   31  O2  UNL     1      21.008   5.805  48.911  1.00  0.00    -0.271 OA
ENDBRANCH  24  25
ENDBRANCH  21  24
ENDBRANCH   8  10
ENDBRANCH   7   8
ENDBRANCH   6   7
ENDBRANCH   3   4
TORSDOF 6
ENDMDL
MODEL 6
REMARK VINA RESULT:      -7.7      2.607      5.935
REMARK  6 active torsions:
REMARK  status: ('A' for Active; 'I' for Inactive)
REMARK    1  A    between atoms: C3_3  and  C4_4 
REMARK    2  A    between atoms: C6_6  and  C7_7 
REMARK    3  A    between atoms: C7_7  and  N1_8 
REMARK    4  A    between atoms: N1_8  and  C8_9 
REMARK    5  A    between atoms: N4_19  and  C16_20 
REMARK    6  A    between atoms: C16_20  and  N5_21 
ROOT
HETATM    1  C1  UNL     1      28.396  -2.546  53.061  1.00  0.00     0.112 C 
HETATM    2  C2  UNL     1      28.497  -1.106  53.304  1.00  0.00    -0.106 C 
HETATM    3  C3  UNL     1      28.574   0.100  53.490  1.00  0.00    -0.072 C 
ENDROOT
BRANCH   3   4
HETATM    4  C4  UNL     1      28.690   1.533  53.707  1.00  0.00    -0.011 C 
HETATM    5  C5  UNL     1      29.746   2.093  54.574  1.00  0.00     0.058 C 
HETATM    6  C6  UNL     1      27.776   2.224  53.053  1.00  0.00     0.008 C 
BRANCH   6   7
HETATM    7  C7  UNL     1      26.644   2.014  52.153  1.00  0.00     0.149 C 
BRANCH   7   8
HETATM    8  N1  UNL     1      25.380   2.244  52.811  1.00  0.00    -0.371 N 
HETATM    9  H10 UNL     1      25.334   3.176  53.263  1.00  0.00     0.161 HD
BRANCH   8  10
HETATM   10  C8  UNL     1      24.359   1.260  52.801  1.00  0.00     0.137 A 
HETATM   11  N2  UNL     1      24.377   0.231  53.644  1.00  0.00    -0.224 NA
HETATM   12  C9  UNL     1      23.413  -0.697  53.627  1.00  0.00     0.235 A 
HETATM   13  N3  UNL     1      22.375  -0.655  52.770  1.00  0.00    -0.241 NA
HETATM   14  C10 UNL     1      22.302   0.363  51.891  1.00  0.00     0.075 A 
HETATM   15  C11 UNL     1      21.221   0.355  51.037  1.00  0.00     0.071 A 
HETATM   16  C15 UNL     1      23.302   1.312  51.919  1.00  0.00     0.041 A 
HETATM   17  C12 UNL     1      21.115   1.381  50.122  1.00  0.00     0.097 A 
HETATM   18  C13 UNL     1      22.105   2.363  50.115  1.00  0.00     0.066 A 
HETATM   19  O3  UNL     1      20.125   1.567  49.183  1.00  0.00    -0.347 OA
HETATM   20  C14 UNL     1      23.175   2.328  50.995  1.00  0.00     0.050 A 
HETATM   21  N4  UNL     1      22.029   3.447  49.181  1.00  0.00    -0.360 N 
HETATM   22  C21 UNL     1      20.687   3.916  48.785  1.00  0.00     0.151 C 
HETATM   23  C22 UNL     1      19.647   2.857  48.851  1.00  0.00     0.195 C 
BRANCH  21  24
HETATM   24  C16 UNL     1      23.194   4.041  48.655  1.00  0.00     0.252 C 
BRANCH  24  25
HETATM   25  N5  UNL     1      23.245   5.435  49.114  1.00  0.00    -0.332 N 
HETATM   26  C17 UNL     1      22.588   6.686  48.865  1.00  0.00     0.153 C 
HETATM   27  C18 UNL     1      22.189   7.271  50.228  1.00  0.00     0.188 C 
HETATM   28  O1  UNL     1      23.290   7.751  50.904  1.00  0.00    -0.380 OA
HETATM   29  C19 UNL     1      24.314   6.851  51.078  1.00  0.00     0.270 C 
HETATM   30  C20 UNL     1      24.250   5.708  50.125  1.00  0.00     0.244 C 
HETATM   31  O2  UNL     1      25.274   4.967  50.352  1.00  0.00    -0.271 OA
ENDBRANCH  24  25
ENDBRANCH  21  24
ENDBRANCH   8  10
ENDBRANCH   7   8
ENDBRANCH   6   7
ENDBRANCH   3   4
TORSDOF 6
ENDMDL
MODEL 7
REMARK VINA RESULT:      -7.7      2.387      6.262
REMARK  6 active torsions:
REMARK  status: ('A' for Active; 'I' for Inactive)
REMARK    1  A    between atoms: C3_3  and  C4_4 
REMARK    2  A    between atoms: C6_6  and  C7_7 
REMARK    3  A    between atoms: C7_7  and  N1_8 
REMARK    4  A    between atoms: N1_8  and  C8_9 
REMARK    5  A    between atoms: N4_19  and  C16_20 
REMARK    6  A    between atoms: C16_20  and  N5_21 
ROOT
HETATM    1  C1  UNL     1      21.377   4.347  52.502  1.00  0.00     0.112 C 
HETATM    2  C2  UNL     1      22.220   4.117  51.327  1.00  0.00    -0.106 C 
HETATM    3  C3  UNL     1      22.935   3.939  50.352  1.00  0.00    -0.072 C 
ENDROOT
BRANCH   3   4
HETATM    4  C4  UNL     1      23.768   3.737  49.177  1.00  0.00    -0.011 C 
HETATM    5  C5  UNL     1      25.154   4.241  49.126  1.00  0.00     0.058 C 
HETATM    6  C6  UNL     1      23.148   3.074  48.220  1.00  0.00     0.008 C 
BRANCH   6   7
HETATM    7  C7  UNL     1      21.852   2.457  47.943  1.00  0.00     0.149 C 
BRANCH   7   8
HETATM    8  N1  UNL     1      21.642   1.264  48.728  1.00  0.00    -0.371 N 
HETATM    9  H10 UNL     1      22.346   0.530  48.528  1.00  0.00     0.161 HD
BRANCH   8  10
HETATM   10  C8  UNL     1      20.570   1.175  49.651  1.00  0.00     0.137 A 
HETATM   11  N2  UNL     1      19.315   1.420  49.285  1.00  0.00    -0.224 NA
HETATM   12  C9  UNL     1      18.306   1.339  50.161  1.00  0.00     0.235 A 
HETATM   13  N3  UNL     1      18.489   1.009  51.453  1.00  0.00    -0.241 NA
HETATM   14  C10 UNL     1      19.738   0.750  51.885  1.00  0.00     0.075 A 
HETATM   15  C11 UNL     1      19.867   0.419  53.216  1.00  0.00     0.071 A 
HETATM   16  C15 UNL     1      20.768   0.837  50.972  1.00  0.00     0.041 A 
HETATM   17  C12 UNL     1      21.132   0.149  53.694  1.00  0.00     0.097 A 
HETATM   18  C13 UNL     1      22.203   0.226  52.804  1.00  0.00     0.066 A 
HETATM   19  O3  UNL     1      21.486  -0.199  54.979  1.00  0.00    -0.347 OA
HETATM   20  C14 UNL     1      22.023   0.563  51.472  1.00  0.00     0.050 A 
HETATM   21  N4  UNL     1      23.533  -0.051  53.261  1.00  0.00    -0.360 N 
HETATM   22  C21 UNL     1      23.693  -1.045  54.339  1.00  0.00     0.151 C 
HETATM   23  C22 UNL     1      22.514  -1.136  55.240  1.00  0.00     0.195 C 
BRANCH  21  24
HETATM   24  C16 UNL     1      24.648   0.609  52.704  1.00  0.00     0.252 C 
BRANCH  24  25
HETATM   25  N5  UNL     1      25.864  -0.006  53.252  1.00  0.00    -0.332 N 
HETATM   26  C17 UNL     1      26.514  -1.285  53.289  1.00  0.00     0.153 C 
HETATM   27  C18 UNL     1      27.977  -1.065  52.879  1.00  0.00     0.188 C 
HETATM   28  O1  UNL     1      28.688  -0.447  53.886  1.00  0.00    -0.380 OA
HETATM   29  C19 UNL     1      28.160   0.739  54.339  1.00  0.00     0.270 C 
HETATM   30  C20 UNL     1      26.717   0.895  54.006  1.00  0.00     0.244 C 
HETATM   31  O2  UNL     1      26.328   2.007  54.516  1.00  0.00    -0.271 OA
ENDBRANCH  24  25
ENDBRANCH  21  24
ENDBRANCH   8  10
ENDBRANCH   7   8
ENDBRANCH   6   7
ENDBRANCH   3   4
TORSDOF 6
ENDMDL
MODEL 8
REMARK VINA RESULT:      -7.7      2.616      7.034
REMARK  6 active torsions:
REMARK  status: ('A' for Active; 'I' for Inactive)
REMARK    1  A    between atoms: C3_3  and  C4_4 
REMARK    2  A    between atoms: C6_6  and  C7_7 
REMARK    3  A    between atoms: C7_7  and  N1_8 
REMARK    4  A    between atoms: N1_8  and  C8_9 
REMARK    5  A    between atoms: N4_19  and  C16_20 
REMARK    6  A    between atoms: C16_20  and  N5_21 
ROOT
HETATM    1  C1  UNL     1      16.156   0.444  48.962  1.00  0.00     0.112 C 
HETATM    2  C2  UNL     1      17.064   0.222  50.088  1.00  0.00    -0.106 C 
HETATM    3  C3  UNL     1      17.824   0.055  51.031  1.00  0.00    -0.072 C 
ENDROOT
BRANCH   3   4
HETATM    4  C4  UNL     1      18.746  -0.149  52.138  1.00  0.00    -0.011 C 
HETATM    5  C5  UNL     1      18.533  -1.228  53.122  1.00  0.00     0.058 C 
HETATM    6  C6  UNL     1      19.745   0.712  52.135  1.00  0.00     0.008 C 
BRANCH   6   7
HETATM    7  C7  UNL     1      20.245   1.846  51.359  1.00  0.00     0.149 C 
BRANCH   7   8
HETATM    8  N1  UNL     1      21.348   1.474  50.507  1.00  0.00    -0.371 N 
HETATM    9  H10 UNL     1      21.391   0.452  50.339  1.00  0.00     0.161 HD
BRANCH   8  10
HETATM   10  C8  UNL     1      22.238   2.451  49.992  1.00  0.00     0.137 A 
HETATM   11  N2  UNL     1      21.840   3.350  49.096  1.00  0.00    -0.224 NA
HETATM   12  C9  UNL     1      22.685   4.267  48.610  1.00  0.00     0.235 A 
HETATM   13  N3  UNL     1      23.975   4.343  48.988  1.00  0.00    -0.241 NA
HETATM   14  C10 UNL     1      24.438   3.458  49.893  1.00  0.00     0.075 A 
HETATM   15  C11 UNL     1      25.765   3.581  50.242  1.00  0.00     0.071 A 
HETATM   16  C15 UNL     1      23.556   2.519  50.386  1.00  0.00     0.041 A 
HETATM   17  C12 UNL     1      26.273   2.691  51.165  1.00  0.00     0.097 A 
HETATM   18  C13 UNL     1      25.417   1.724  51.689  1.00  0.00     0.066 A 
HETATM   19  O3  UNL     1      27.560   2.633  51.652  1.00  0.00    -0.347 OA
HETATM   20  C14 UNL     1      24.087   1.640  51.306  1.00  0.00     0.050 A 
HETATM   21  N4  UNL     1      25.907   0.782  52.652  1.00  0.00    -0.360 N 
HETATM   22  C21 UNL     1      26.968   1.235  53.572  1.00  0.00     0.151 C 
HETATM   23  C22 UNL     1      27.832   2.301  53.000  1.00  0.00     0.195 C 
BRANCH  21  24
HETATM   24  C16 UNL     1      25.396  -0.530  52.715  1.00  0.00     0.252 C 
BRANCH  24  25
HETATM   25  N5  UNL     1      24.238  -0.528  53.618  1.00  0.00    -0.332 N 
HETATM   26  C17 UNL     1      22.846  -0.178  53.600  1.00  0.00     0.153 C 
HETATM   27  C18 UNL     1      22.068  -1.369  54.178  1.00  0.00     0.188 C 
HETATM   28  O1  UNL     1      22.238  -1.458  55.544  1.00  0.00    -0.380 OA
HETATM   29  C19 UNL     1      23.542  -1.515  55.974  1.00  0.00     0.270 C 
HETATM   30  C20 UNL     1      24.509  -1.008  54.961  1.00  0.00     0.244 C 
HETATM   31  O2  UNL     1      25.678  -1.067  55.489  1.00  0.00    -0.271 OA
ENDBRANCH  24  25
ENDBRANCH  21  24
ENDBRANCH   8  10
ENDBRANCH   7   8
ENDBRANCH   6   7
ENDBRANCH   3   4
TORSDOF 6
ENDMDL
MODEL 9
REMARK VINA RESULT:      -7.4      2.337      5.177
REMARK  6 active torsions:
REMARK  status: ('A' for Active; 'I' for Inactive)
REMARK    1  A    between atoms: C3_3  and  C4_4 
REMARK    2  A    between atoms: C6_6  and  C7_7 
REMARK    3  A    between atoms: C7_7  and  N1_8 
REMARK    4  A    between atoms: N1_8  and  C8_9 
REMARK    5  A    between atoms: N4_19  and  C16_20 
REMARK    6  A    between atoms: C16_20  and  N5_21 
ROOT
HETATM    1  C1  UNL     1      25.642   3.582  49.537  1.00  0.00     0.112 C 
HETATM    2  C2  UNL     1      26.244   2.966  50.721  1.00  0.00    -0.106 C 
HETATM    3  C3  UNL     1      26.756   2.467  51.712  1.00  0.00    -0.072 C 
ENDROOT
BRANCH   3   4
HETATM    4  C4  UNL     1      27.380   1.859  52.877  1.00  0.00    -0.011 C 
HETATM    5  C5  UNL     1      28.649   2.379  53.423  1.00  0.00     0.058 C 
HETATM    6  C6  UNL     1      26.690   0.841  53.352  1.00  0.00     0.008 C 
BRANCH   6   7
HETATM    7  C7  UNL     1      25.463   0.095  53.080  1.00  0.00     0.149 C 
BRANCH   7   8
HETATM    8  N1  UNL     1      24.313   0.698  53.710  1.00  0.00    -0.371 N 
HETATM    9  H10 UNL     1      24.523   1.633  54.105  1.00  0.00     0.161 HD
BRANCH   8  10
HETATM   10  C8  UNL     1      23.064   0.028  53.750  1.00  0.00     0.137 A 
HETATM   11  N2  UNL     1      22.915  -1.128  54.391  1.00  0.00    -0.224 NA
HETATM   12  C9  UNL     1      21.735  -1.759  54.422  1.00  0.00     0.235 A 
HETATM   13  N3  UNL     1      20.634  -1.276  53.815  1.00  0.00    -0.241 NA
HETATM   14  C10 UNL     1      20.722  -0.109  53.148  1.00  0.00     0.075 A 
HETATM   15  C11 UNL     1      19.567   0.337  52.545  1.00  0.00     0.071 A 
HETATM   16  C15 UNL     1      21.944   0.531  53.125  1.00  0.00     0.041 A 
HETATM   17  C12 UNL     1      19.620   1.528  51.851  1.00  0.00     0.097 A 
HETATM   18  C13 UNL     1      20.836   2.208  51.802  1.00  0.00     0.066 A 
HETATM   19  O3  UNL     1      18.593   2.153  51.180  1.00  0.00    -0.347 OA
HETATM   20  C14 UNL     1      21.973   1.719  52.426  1.00  0.00     0.050 A 
HETATM   21  N4  UNL     1      20.932   3.451  51.093  1.00  0.00    -0.360 N 
HETATM   22  C21 UNL     1      19.736   4.315  51.064  1.00  0.00     0.151 C 
HETATM   23  C22 UNL     1      18.459   3.562  51.168  1.00  0.00     0.195 C 
BRANCH  21  24
HETATM   24  C16 UNL     1      22.123   3.830  50.444  1.00  0.00     0.252 C 
BRANCH  24  25
HETATM   25  N5  UNL     1      21.793   4.207  49.064  1.00  0.00    -0.332 N 
HETATM   26  C17 UNL     1      21.370   5.362  48.323  1.00  0.00     0.153 C 
HETATM   27  C18 UNL     1      22.298   5.489  47.107  1.00  0.00     0.188 C 
HETATM   28  O1  UNL     1      22.012   4.526  46.161  1.00  0.00    -0.380 OA
HETATM   29  C19 UNL     1      22.034   3.229  46.616  1.00  0.00     0.270 C 
HETATM   30  C20 UNL     1      21.895   3.131  48.095  1.00  0.00     0.244 C 
HETATM   31  O2  UNL     1      21.881   1.882  48.393  1.00  0.00    -0.271 OA
ENDBRANCH  24  25
ENDBRANCH  21  24
ENDBRANCH   8  10
ENDBRANCH   7   8
ENDBRANCH   6   7
ENDBRANCH   3   4
TORSDOF 6
ENDMDL
