MODEL 1
REMARK VINA RESULT:      -8.3      0.000      0.000
REMARK  6 active torsions:
REMARK  status: ('A' for Active; 'I' for Inactive)
REMARK    1  A    between atoms: C2_2  and  N1_3 
REMARK    2  A    between atoms: C5_7  and  N3_8 
REMARK    3  A    between atoms: N3_8  and  C6_9 
REMARK    4  A    between atoms: C12_17  and  N5_18 
REMARK    5  A    between atoms: N5_18  and  C13_19 
REMARK    6  A    between atoms: C18_24  and  N6_25 
ROOT
HETATM    1  N1  UNL     1      27.914   0.703  53.947  1.00  0.00    -0.324 N 
HETATM    2  C3  UNL     1      27.204  -0.087  54.834  1.00  0.00     0.212 A 
HETATM    3  N2  UNL     1      25.910  -0.022  54.433  1.00  0.00    -0.236 NA
HETATM    4  C4  UNL     1      25.894   0.784  53.345  1.00  0.00     0.151 A 
HETATM    5  C5  UNL     1      24.813   1.048  52.578  1.00  0.00     0.180 A 
HETATM    6  N4  UNL     1      25.046   1.818  51.466  1.00  0.00    -0.043 NA
HETATM    7  C12 UNL     1      26.235   2.325  51.097  1.00  0.00     0.726 A 
HETATM    8  N7  UNL     1      27.261   2.004  51.925  1.00  0.00    -0.042 NA
HETATM    9  C19 UNL     1      27.164   1.262  53.022  1.00  0.00     0.182 A 
ENDROOT
BRANCH   7  10
HETATM   10  N5  UNL     1      26.330   3.104  49.911  1.00  0.00    -0.216 N 
HETATM   11  H12 UNL     1      26.122   2.620  49.011  1.00  0.00     0.178 HD
BRANCH  10  12
HETATM   12  C13 UNL     1      26.734   4.514  49.898  1.00  0.00     0.132 C 
HETATM   13  C14 UNL     1      27.332   4.881  48.582  1.00  0.00     0.028 C 
HETATM   14  C15 UNL     1      27.525   6.355  48.435  1.00  0.00     0.002 C 
HETATM   15  C16 UNL     1      26.225   7.125  48.626  1.00  0.00     0.002 C 
HETATM   16  C17 UNL     1      25.594   6.739  49.955  1.00  0.00     0.037 C 
HETATM   17  C18 UNL     1      25.389   5.273  49.997  1.00  0.00     0.240 C 
BRANCH  17  18
HETATM   18  N6  UNL     1      24.554   4.877  48.867  1.00  0.00     0.085 N 
HETATM   19  H23 UNL     1      23.664   5.424  48.871  1.00  0.00     0.313 HD
HETATM   20  H24 UNL     1      25.055   4.915  47.978  1.00  0.00     0.313 HD
ENDBRANCH  17  18
ENDBRANCH  10  12
ENDBRANCH   7  10
BRANCH   5  21
HETATM   21  N3  UNL     1      23.477   0.757  52.610  1.00  0.00    -0.338 N 
HETATM   22  H7  UNL     1      23.371   1.520  53.353  1.00  0.00     0.167 HD
BRANCH  21  23
HETATM   23  C6  UNL     1      22.121   0.454  52.632  1.00  0.00     0.035 A 
HETATM   24  C7  UNL     1      21.495  -0.133  53.763  1.00  0.00     0.029 A 
HETATM   25  C8  UNL     1      20.116  -0.373  53.673  1.00  0.00     0.004 A 
HETATM   26  C9  UNL     1      19.484  -0.012  52.473  1.00  0.00     0.024 A 
HETATM   27  C10 UNL     1      20.076   0.550  51.389  1.00  0.00     0.036 A 
HETATM   28 CL1  UNL     1      19.140   0.919  49.973  1.00  0.00    -0.084 Cl
HETATM   29  C11 UNL     1      21.453   0.795  51.473  1.00  0.00     0.053 A 
ENDBRANCH  21  23
ENDBRANCH   5  21
BRANCH   1  30
HETATM   30  C2  UNL     1      29.320   0.793  54.098  1.00  0.00     0.127 C 
HETATM   31  C1  UNL     1      30.100  -0.370  53.528  1.00  0.00     0.027 C 
ENDBRANCH   1  30
TORSDOF 6
ENDMDL
MODEL 2
REMARK VINA RESULT:      -8.2      2.729      6.001
REMARK  6 active torsions:
REMARK  status: ('A' for Active; 'I' for Inactive)
REMARK    1  A    between atoms: C2_2  and  N1_3 
REMARK    2  A    between atoms: C5_7  and  N3_8 
REMARK    3  A    between atoms: N3_8  and  C6_9 
REMARK    4  A    between atoms: C12_17  and  N5_18 
REMARK    5  A    between atoms: N5_18  and  C13_19 
REMARK    6  A    between atoms: C18_24  and  N6_25 
ROOT
HETATM    1  N1  UNL     1      21.199   1.132  52.471  1.00  0.00    -0.324 N 
HETATM    2  C3  UNL     1      21.654  -0.144  52.754  1.00  0.00     0.212 A 
HETATM    3  N2  UNL     1      23.000  -0.035  52.883  1.00  0.00    -0.236 NA
HETATM    4  C4  UNL     1      23.294   1.271  52.679  1.00  0.00     0.151 A 
HETATM    5  C5  UNL     1      24.517   1.830  52.802  1.00  0.00     0.180 A 
HETATM    6  N4  UNL     1      24.568   3.193  52.642  1.00  0.00    -0.043 NA
HETATM    7  C12 UNL     1      23.521   3.990  52.367  1.00  0.00     0.726 A 
HETATM    8  N7  UNL     1      22.334   3.340  52.265  1.00  0.00    -0.042 NA
HETATM    9  C19 UNL     1      22.156   2.032  52.408  1.00  0.00     0.182 A 
ENDROOT
BRANCH   7  10
HETATM   10  N5  UNL     1      23.722   5.392  52.231  1.00  0.00    -0.216 N 
HETATM   11  H12 UNL     1      24.015   5.911  53.087  1.00  0.00     0.178 HD
BRANCH  10  12
HETATM   12  C13 UNL     1      23.501   6.125  50.981  1.00  0.00     0.132 C 
HETATM   13  C14 UNL     1      24.136   7.473  51.038  1.00  0.00     0.028 C 
HETATM   14  C15 UNL     1      24.156   8.152  49.707  1.00  0.00     0.002 C 
HETATM   15  C16 UNL     1      24.855   7.312  48.646  1.00  0.00     0.002 C 
HETATM   16  C17 UNL     1      24.230   5.926  48.596  1.00  0.00     0.037 C 
HETATM   17  C18 UNL     1      24.299   5.305  49.940  1.00  0.00     0.240 C 
BRANCH  17  18
HETATM   18  N6  UNL     1      25.694   5.254  50.367  1.00  0.00     0.085 N 
HETATM   19  H23 UNL     1      25.897   6.041  51.023  1.00  0.00     0.313 HD
HETATM   20  H24 UNL     1      25.958   4.337  50.733  1.00  0.00     0.313 HD
ENDBRANCH  17  18
ENDBRANCH  10  12
ENDBRANCH   7  10
BRANCH   5  21
HETATM   21  N3  UNL     1      25.791   1.393  53.044  1.00  0.00    -0.338 N 
HETATM   22  H7  UNL     1      25.881   1.207  51.993  1.00  0.00     0.167 HD
BRANCH  21  23
HETATM   23  C6  UNL     1      27.083   0.952  53.300  1.00  0.00     0.035 A 
HETATM   24  C7  UNL     1      28.106   1.827  53.750  1.00  0.00     0.029 A 
HETATM   25  C8  UNL     1      29.366   1.260  53.994  1.00  0.00     0.004 A 
HETATM   26  C9  UNL     1      29.498  -0.119  53.768  1.00  0.00     0.024 A 
HETATM   27  C10 UNL     1      28.524  -0.961  53.339  1.00  0.00     0.036 A 
HETATM   28 CL1  UNL     1      28.869  -2.645  53.096  1.00  0.00    -0.084 Cl
HETATM   29  C11 UNL     1      27.263  -0.402  53.096  1.00  0.00     0.053 A 
ENDBRANCH  21  23
ENDBRANCH   5  21
BRANCH   1  30
HETATM   30  C2  UNL     1      19.804   1.335  52.322  1.00  0.00     0.127 C 
HETATM   31  C1  UNL     1      19.038   0.140  51.802  1.00  0.00     0.027 C 
ENDBRANCH   1  30
TORSDOF 6
ENDMDL
MODEL 3
REMARK VINA RESULT:      -8.2      2.370      7.324
REMARK  6 active torsions:
REMARK  status: ('A' for Active; 'I' for Inactive)
REMARK    1  A    between atoms: C2_2  and  N1_3 
REMARK    2  A    between atoms: C5_7  and  N3_8 
REMARK    3  A    between atoms: N3_8  and  C6_9 
REMARK    4  A    between atoms: C12_17  and  N5_18 
REMARK    5  A    between atoms: N5_18  and  C13_19 
REMARK    6  A    between atoms: C18_24  and  N6_25 
ROOT
HETATM    1  N1  UNL     1      22.189   1.018  51.650  1.00  0.00    -0.324 N 
HETATM    2  C3  UNL     1      21.826   1.618  50.457  1.00  0.00     0.212 A 
HETATM    3  N2  UNL     1      22.831   2.477  50.155  1.00  0.00    -0.236 NA
HETATM    4  C4  UNL     1      23.738   2.360  51.154  1.00  0.00     0.151 A 
HETATM    5  C5  UNL     1      24.939   2.978  51.202  1.00  0.00     0.180 A 
HETATM    6  N4  UNL     1      25.740   2.640  52.265  1.00  0.00    -0.043 NA
HETATM    7  C12 UNL     1      25.424   1.773  53.241  1.00  0.00     0.726 A 
HETATM    8  N7  UNL     1      24.201   1.200  53.107  1.00  0.00    -0.042 NA
HETATM    9  C19 UNL     1      23.343   1.437  52.122  1.00  0.00     0.182 A 
ENDROOT
BRANCH   7  10
HETATM   10  N5  UNL     1      26.359   1.514  54.282  1.00  0.00    -0.216 N 
HETATM   11  H12 UNL     1      26.481   2.259  55.001  1.00  0.00     0.178 HD
BRANCH  10  12
HETATM   12  C13 UNL     1      27.166   0.292  54.362  1.00  0.00     0.132 C 
HETATM   13  C14 UNL     1      27.031  -0.513  53.114  1.00  0.00     0.028 C 
HETATM   14  C15 UNL     1      28.022  -1.630  53.046  1.00  0.00     0.002 C 
HETATM   15  C16 UNL     1      29.455  -1.131  53.169  1.00  0.00     0.002 C 
HETATM   16  C17 UNL     1      29.598  -0.288  54.427  1.00  0.00     0.037 C 
HETATM   17  C18 UNL     1      28.619   0.823  54.389  1.00  0.00     0.240 C 
BRANCH  17  18
HETATM   18  N6  UNL     1      28.842   1.612  53.181  1.00  0.00     0.085 N 
HETATM   19  H23 UNL     1      29.863   1.653  52.964  1.00  0.00     0.313 HD
HETATM   20  H24 UNL     1      28.268   1.298  52.397  1.00  0.00     0.313 HD
ENDBRANCH  17  18
ENDBRANCH  10  12
ENDBRANCH   7  10
BRANCH   5  21
HETATM   21  N3  UNL     1      25.610   3.906  50.454  1.00  0.00    -0.338 N 
HETATM   22  H7  UNL     1      25.998   3.095  49.872  1.00  0.00     0.167 HD
BRANCH  21  23
HETATM   23  C6  UNL     1      26.286   4.856  49.699  1.00  0.00     0.035 A 
HETATM   24  C7  UNL     1      27.489   4.559  49.008  1.00  0.00     0.029 A 
HETATM   25  C8  UNL     1      28.068   5.597  48.263  1.00  0.00     0.004 A 
HETATM   26  C9  UNL     1      27.405   6.834  48.272  1.00  0.00     0.024 A 
HETATM   27  C10 UNL     1      26.254   7.125  48.931  1.00  0.00     0.036 A 
HETATM   28 CL1  UNL     1      25.578   8.722  48.845  1.00  0.00    -0.084 Cl
HETATM   29  C11 UNL     1      25.670   6.092  49.675  1.00  0.00     0.053 A 
ENDBRANCH  21  23
ENDBRANCH   5  21
BRANCH   1  30
HETATM   30  C2  UNL     1      21.334   0.028  52.196  1.00  0.00     0.127 C 
HETATM   31  C1  UNL     1      20.721   0.381  53.532  1.00  0.00     0.027 C 
ENDBRANCH   1  30
TORSDOF 6
ENDMDL
MODEL 4
REMARK VINA RESULT:      -8.1      1.440      2.121
REMARK  6 active torsions:
REMARK  status: ('A' for Active; 'I' for Inactive)
REMARK    1  A    between atoms: C2_2  and  N1_3 
REMARK    2  A    between atoms: C5_7  and  N3_8 
REMARK    3  A    between atoms: N3_8  and  C6_9 
REMARK    4  A    between atoms: C12_17  and  N5_18 
REMARK    5  A    between atoms: N5_18  and  C13_19 
REMARK    6  A    between atoms: C18_24  and  N6_25 
ROOT
HETATM    1  N1  UNL     1      27.544   0.550  53.171  1.00  0.00    -0.324 N 
HETATM    2  C3  UNL     1      26.714  -0.473  53.595  1.00  0.00     0.212 A 
HETATM    3  N2  UNL     1      25.493  -0.197  53.074  1.00  0.00    -0.236 NA
HETATM    4  C4  UNL     1      25.634   0.952  52.373  1.00  0.00     0.151 A 
HETATM    5  C5  UNL     1      24.676   1.536  51.620  1.00  0.00     0.180 A 
HETATM    6  N4  UNL     1      25.067   2.648  50.916  1.00  0.00    -0.043 NA
HETATM    7  C12 UNL     1      26.296   3.193  50.929  1.00  0.00     0.726 A 
HETATM    8  N7  UNL     1      27.191   2.536  51.709  1.00  0.00    -0.042 NA
HETATM    9  C19 UNL     1      26.936   1.449  52.427  1.00  0.00     0.182 A 
ENDROOT
BRANCH   7  10
HETATM   10  N5  UNL     1      26.561   4.349  50.142  1.00  0.00    -0.216 N 
HETATM   11  H12 UNL     1      27.562   4.588  49.980  1.00  0.00     0.178 HD
BRANCH  10  12
HETATM   12  C13 UNL     1      25.511   5.216  49.598  1.00  0.00     0.132 C 
HETATM   13  C14 UNL     1      24.938   6.087  50.663  1.00  0.00     0.028 C 
HETATM   14  C15 UNL     1      24.051   7.156  50.111  1.00  0.00     0.002 C 
HETATM   15  C16 UNL     1      24.769   8.023  49.086  1.00  0.00     0.002 C 
HETATM   16  C17 UNL     1      25.378   7.141  48.007  1.00  0.00     0.037 C 
HETATM   17  C18 UNL     1      26.282   6.148  48.632  1.00  0.00     0.240 C 
BRANCH  17  18
HETATM   18  N6  UNL     1      27.307   6.853  49.396  1.00  0.00     0.085 N 
HETATM   19  H23 UNL     1      27.122   7.881  49.379  1.00  0.00     0.313 HD
HETATM   20  H24 UNL     1      27.425   6.473  50.337  1.00  0.00     0.313 HD
ENDBRANCH  17  18
ENDBRANCH  10  12
ENDBRANCH   7  10
BRANCH   5  21
HETATM   21  N3  UNL     1      23.350   1.324  51.358  1.00  0.00    -0.338 N 
HETATM   22  H7  UNL     1      23.179   1.360  52.414  1.00  0.00     0.167 HD
BRANCH  21  23
HETATM   23  C6  UNL     1      22.005   1.110  51.081  1.00  0.00     0.035 A 
HETATM   24  C7  UNL     1      21.410   1.517  49.858  1.00  0.00     0.029 A 
HETATM   25  C8  UNL     1      20.048   1.227  49.687  1.00  0.00     0.004 A 
HETATM   26  C9  UNL     1      19.401   0.564  50.741  1.00  0.00     0.024 A 
HETATM   27  C10 UNL     1      19.964   0.172  51.912  1.00  0.00     0.036 A 
HETATM   28 CL1  UNL     1      19.004  -0.626  53.119  1.00  0.00    -0.084 Cl
HETATM   29  C11 UNL     1      21.324   0.456  52.089  1.00  0.00     0.053 A 
ENDBRANCH  21  23
ENDBRANCH   5  21
BRANCH   1  30
HETATM   30  C2  UNL     1      28.913   0.505  53.535  1.00  0.00     0.127 C 
HETATM   31  C1  UNL     1      29.544  -0.868  53.479  1.00  0.00     0.027 C 
ENDBRANCH   1  30
TORSDOF 6
ENDMDL
MODEL 5
REMARK VINA RESULT:      -8.1      2.080      2.717
REMARK  6 active torsions:
REMARK  status: ('A' for Active; 'I' for Inactive)
REMARK    1  A    between atoms: C2_2  and  N1_3 
REMARK    2  A    between atoms: C5_7  and  N3_8 
REMARK    3  A    between atoms: N3_8  and  C6_9 
REMARK    4  A    between atoms: C12_17  and  N5_18 
REMARK    5  A    between atoms: N5_18  and  C13_19 
REMARK    6  A    between atoms: C18_24  and  N6_25 
ROOT
HETATM    1  N1  UNL     1      26.548   0.353  53.440  1.00  0.00    -0.324 N 
HETATM    2  C3  UNL     1      26.080  -0.947  53.524  1.00  0.00     0.212 A 
HETATM    3  N2  UNL     1      24.735  -0.866  53.371  1.00  0.00    -0.236 NA
HETATM    4  C4  UNL     1      24.454   0.448  53.202  1.00  0.00     0.151 A 
HETATM    5  C5  UNL     1      23.235   0.963  52.928  1.00  0.00     0.180 A 
HETATM    6  N4  UNL     1      23.197   2.316  52.702  1.00  0.00    -0.043 NA
HETATM    7  C12 UNL     1      24.252   3.148  52.743  1.00  0.00     0.726 A 
HETATM    8  N7  UNL     1      25.433   2.542  53.022  1.00  0.00    -0.042 NA
HETATM    9  C19 UNL     1      25.599   1.244  53.249  1.00  0.00     0.182 A 
ENDROOT
BRANCH   7  10
HETATM   10  N5  UNL     1      24.065   4.534  52.481  1.00  0.00    -0.216 N 
HETATM   11  H12 UNL     1      24.405   5.201  53.207  1.00  0.00     0.178 HD
BRANCH  10  12
HETATM   12  C13 UNL     1      23.395   5.049  51.282  1.00  0.00     0.132 C 
HETATM   13  C14 UNL     1      22.083   5.665  51.632  1.00  0.00     0.028 C 
HETATM   14  C15 UNL     1      21.485   6.422  50.490  1.00  0.00     0.002 C 
HETATM   15  C16 UNL     1      22.422   7.501  49.966  1.00  0.00     0.002 C 
HETATM   16  C17 UNL     1      23.772   6.887  49.629  1.00  0.00     0.037 C 
HETATM   17  C18 UNL     1      24.317   6.204  50.826  1.00  0.00     0.240 C 
BRANCH  17  18
HETATM   18  N6  UNL     1      24.419   7.169  51.917  1.00  0.00     0.085 N 
HETATM   19  H23 UNL     1      24.206   6.704  52.827  1.00  0.00     0.313 HD
HETATM   20  H24 UNL     1      25.308   7.673  51.911  1.00  0.00     0.313 HD
ENDBRANCH  17  18
ENDBRANCH  10  12
ENDBRANCH   7  10
BRANCH   5  21
HETATM   21  N3  UNL     1      21.957   0.487  52.819  1.00  0.00    -0.338 N 
HETATM   22  H7  UNL     1      22.096   0.016  53.770  1.00  0.00     0.167 HD
BRANCH  21  23
HETATM   23  C6  UNL     1      20.657   0.011  52.699  1.00  0.00     0.035 A 
HETATM   24  C7  UNL     1      20.075  -0.853  53.662  1.00  0.00     0.029 A 
HETATM   25  C8  UNL     1      18.748  -1.250  53.441  1.00  0.00     0.004 A 
HETATM   26  C9  UNL     1      18.120  -0.757  52.286  1.00  0.00     0.024 A 
HETATM   27  C10 UNL     1      18.670   0.070  51.362  1.00  0.00     0.036 A 
HETATM   28 CL1  UNL     1      17.749   0.570  49.977  1.00  0.00    -0.084 Cl
HETATM   29  C11 UNL     1      19.994   0.472  51.577  1.00  0.00     0.053 A 
ENDBRANCH  21  23
ENDBRANCH   5  21
BRANCH   1  30
HETATM   30  C2  UNL     1      27.944   0.576  53.526  1.00  0.00     0.127 C 
HETATM   31  C1  UNL     1      28.795  -0.672  53.461  1.00  0.00     0.027 C 
ENDBRANCH   1  30
TORSDOF 6
ENDMDL
MODEL 6
REMARK VINA RESULT:      -7.9      1.823      6.301
REMARK  6 active torsions:
REMARK  status: ('A' for Active; 'I' for Inactive)
REMARK    1  A    between atoms: C2_2  and  N1_3 
REMARK    2  A    between atoms: C5_7  and  N3_8 
REMARK    3  A    between atoms: N3_8  and  C6_9 
REMARK    4  A    between atoms: C12_17  and  N5_18 
REMARK    5  A    between atoms: N5_18  and  C13_19 
REMARK    6  A    between atoms: C18_24  and  N6_25 
ROOT
HETATM    1  N1  UNL     1      28.385   0.745  53.739  1.00  0.00    -0.324 N 
HETATM    2  C3  UNL     1      29.143   1.858  53.423  1.00  0.00     0.212 A 
HETATM    3  N2  UNL     1      28.351   2.635  52.643  1.00  0.00    -0.236 NA
HETATM    4  C4  UNL     1      27.175   1.975  52.525  1.00  0.00     0.151 A 
HETATM    5  C5  UNL     1      26.071   2.441  51.901  1.00  0.00     0.180 A 
HETATM    6  N4  UNL     1      24.958   1.642  51.985  1.00  0.00    -0.043 NA
HETATM    7  C12 UNL     1      24.888   0.457  52.616  1.00  0.00     0.726 A 
HETATM    8  N7  UNL     1      26.043   0.074  53.217  1.00  0.00    -0.042 NA
HETATM    9  C19 UNL     1      27.179   0.762  53.214  1.00  0.00     0.182 A 
ENDROOT
BRANCH   7  10
HETATM   10  N5  UNL     1      23.661  -0.263  52.627  1.00  0.00    -0.216 N 
HETATM   11  H12 UNL     1      23.720  -1.298  52.516  1.00  0.00     0.178 HD
BRANCH  10  12
HETATM   12  C13 UNL     1      22.347   0.378  52.745  1.00  0.00     0.132 C 
HETATM   13  C14 UNL     1      21.440  -0.066  51.648  1.00  0.00     0.028 C 
HETATM   14  C15 UNL     1      20.025   0.360  51.869  1.00  0.00     0.002 C 
HETATM   15  C16 UNL     1      19.480  -0.135  53.201  1.00  0.00     0.002 C 
HETATM   16  C17 UNL     1      20.410   0.291  54.326  1.00  0.00     0.037 C 
HETATM   17  C18 UNL     1      21.776  -0.215  54.055  1.00  0.00     0.240 C 
BRANCH  17  18
HETATM   18  N6  UNL     1      21.725  -1.668  53.918  1.00  0.00     0.085 N 
HETATM   19  H23 UNL     1      22.049  -2.122  54.801  1.00  0.00     0.313 HD
HETATM   20  H24 UNL     1      20.814  -1.999  53.596  1.00  0.00     0.313 HD
ENDBRANCH  17  18
ENDBRANCH  10  12
ENDBRANCH   7  10
BRANCH   5  21
HETATM   21  N3  UNL     1      25.739   3.539  51.156  1.00  0.00    -0.338 N 
HETATM   22  H7  UNL     1      24.879   3.652  51.784  1.00  0.00     0.167 HD
BRANCH  21  23
HETATM   23  C6  UNL     1      25.412   4.654  50.395  1.00  0.00     0.035 A 
HETATM   24  C7  UNL     1      26.168   5.044  49.260  1.00  0.00     0.029 A 
HETATM   25  C8  UNL     1      25.727   6.177  48.559  1.00  0.00     0.004 A 
HETATM   26  C9  UNL     1      24.579   6.821  49.049  1.00  0.00     0.024 A 
HETATM   27  C10 UNL     1      23.851   6.452  50.133  1.00  0.00     0.036 A 
HETATM   28 CL1  UNL     1      22.461   7.379  50.608  1.00  0.00    -0.084 Cl
HETATM   29  C11 UNL     1      24.285   5.321  50.835  1.00  0.00     0.053 A 
ENDBRANCH  21  23
ENDBRANCH   5  21
BRANCH   1  30
HETATM   30  C2  UNL     1      28.948  -0.238  54.590  1.00  0.00     0.127 C 
HETATM   31  C1  UNL     1      29.804  -1.270  53.894  1.00  0.00     0.027 C 
ENDBRANCH   1  30
TORSDOF 6
ENDMDL
MODEL 7
REMARK VINA RESULT:      -7.8      2.890      7.820
REMARK  6 active torsions:
REMARK  status: ('A' for Active; 'I' for Inactive)
REMARK    1  A    between atoms: C2_2  and  N1_3 
REMARK    2  A    between atoms: C5_7  and  N3_8 
REMARK    3  A    between atoms: N3_8  and  C6_9 
REMARK    4  A    between atoms: C12_17  and  N5_18 
REMARK    5  A    between atoms: N5_18  and  C13_19 
REMARK    6  A    between atoms: C18_24  and  N6_25 
ROOT
HETATM    1  N1  UNL     1      21.149   3.672  51.585  1.00  0.00    -0.324 N 
HETATM    2  C3  UNL     1      21.014   4.691  50.658  1.00  0.00     0.212 A 
HETATM    3  N2  UNL     1      22.272   4.980  50.242  1.00  0.00    -0.236 NA
HETATM    4  C4  UNL     1      23.094   4.142  50.916  1.00  0.00     0.151 A 
HETATM    5  C5  UNL     1      24.429   4.034  50.735  1.00  0.00     0.180 A 
HETATM    6  N4  UNL     1      25.050   3.049  51.462  1.00  0.00    -0.043 NA
HETATM    7  C12 UNL     1      24.449   2.213  52.325  1.00  0.00     0.726 A 
HETATM    8  N7  UNL     1      23.109   2.393  52.438  1.00  0.00    -0.042 NA
HETATM    9  C19 UNL     1      22.395   3.302  51.784  1.00  0.00     0.182 A 
ENDROOT
BRANCH   7  10
HETATM   10  N5  UNL     1      25.222   1.232  53.008  1.00  0.00    -0.216 N 
HETATM   11  H12 UNL     1      24.717   0.622  53.686  1.00  0.00     0.178 HD
BRANCH  10  12
HETATM   12  C13 UNL     1      26.669   1.073  52.829  1.00  0.00     0.132 C 
HETATM   13  C14 UNL     1      27.417   2.025  53.699  1.00  0.00     0.028 C 
HETATM   14  C15 UNL     1      28.882   1.730  53.740  1.00  0.00     0.002 C 
HETATM   15  C16 UNL     1      29.166   0.305  54.195  1.00  0.00     0.002 C 
HETATM   16  C17 UNL     1      28.388  -0.674  53.330  1.00  0.00     0.037 C 
HETATM   17  C18 UNL     1      26.945  -0.344  53.387  1.00  0.00     0.240 C 
BRANCH  17  18
HETATM   18  N6  UNL     1      26.504  -0.383  54.778  1.00  0.00     0.085 N 
HETATM   19  H23 UNL     1      27.276  -0.731  55.389  1.00  0.00     0.313 HD
HETATM   20  H24 UNL     1      26.104   0.505  55.088  1.00  0.00     0.313 HD
ENDBRANCH  17  18
ENDBRANCH  10  12
ENDBRANCH   7  10
BRANCH   5  21
HETATM   21  N3  UNL     1      25.387   4.676  50.000  1.00  0.00    -0.338 N 
HETATM   22  H7  UNL     1      26.081   3.931  50.331  1.00  0.00     0.167 HD
BRANCH  21  23
HETATM   23  C6  UNL     1      26.352   5.335  49.249  1.00  0.00     0.035 A 
HETATM   24  C7  UNL     1      27.608   4.747  48.946  1.00  0.00     0.029 A 
HETATM   25  C8  UNL     1      28.491   5.504  48.161  1.00  0.00     0.004 A 
HETATM   26  C9  UNL     1      28.052   6.772  47.751  1.00  0.00     0.024 A 
HETATM   27  C10 UNL     1      26.853   7.340  48.037  1.00  0.00     0.036 A 
HETATM   28 CL1  UNL     1      26.480   8.934  47.457  1.00  0.00    -0.084 Cl
HETATM   29  C11 UNL     1      25.965   6.589  48.817  1.00  0.00     0.053 A 
ENDBRANCH  21  23
ENDBRANCH   5  21
BRANCH   1  30
HETATM   30  C2  UNL     1      19.977   3.130  52.169  1.00  0.00     0.127 C 
HETATM   31  C1  UNL     1      18.703   3.386  51.398  1.00  0.00     0.027 C 
ENDBRANCH   1  30
TORSDOF 6
ENDMDL
MODEL 8
REMARK VINA RESULT:      -7.6      3.164      8.015
REMARK  6 active torsions:
REMARK  status: ('A' for Active; 'I' for Inactive)
REMARK    1  A    between atoms: C2_2  and  N1_3 
REMARK    2  A    between atoms: C5_7  and  N3_8 
REMARK    3  A    between atoms: N3_8  and  C6_9 
REMARK    4  A    between atoms: C12_17  and  N5_18 
REMARK    5  A    between atoms: N5_18  and  C13_19 
REMARK    6  A    between atoms: C18_24  and  N6_25 
ROOT
HETATM    1  N1  UNL     1      20.525   4.108  51.009  1.00  0.00    -0.324 N 
HETATM    2  C3  UNL     1      20.326   4.825  49.842  1.00  0.00     0.212 A 
HETATM    3  N2  UNL     1      21.552   5.269  49.468  1.00  0.00    -0.236 NA
HETATM    4  C4  UNL     1      22.419   4.810  50.401  1.00  0.00     0.151 A 
HETATM    5  C5  UNL     1      23.762   4.950  50.362  1.00  0.00     0.180 A 
HETATM    6  N4  UNL     1      24.456   4.321  51.367  1.00  0.00    -0.043 NA
HETATM    7  C12 UNL     1      23.912   3.605  52.366  1.00  0.00     0.726 A 
HETATM    8  N7  UNL     1      22.559   3.517  52.320  1.00  0.00    -0.042 NA
HETATM    9  C19 UNL     1      21.781   4.070  51.397  1.00  0.00     0.182 A 
ENDROOT
BRANCH   7  10
HETATM   10  N5  UNL     1      24.757   3.003  53.340  1.00  0.00    -0.216 N 
HETATM   11  H12 UNL     1      25.076   3.608  54.127  1.00  0.00     0.178 HD
BRANCH  10  12
HETATM   12  C13 UNL     1      25.218   1.613  53.263  1.00  0.00     0.132 C 
HETATM   13  C14 UNL     1      25.859   1.339  51.945  1.00  0.00     0.028 C 
HETATM   14  C15 UNL     1      26.563   0.022  51.916  1.00  0.00     0.002 C 
HETATM   15  C16 UNL     1      27.611  -0.092  53.015  1.00  0.00     0.002 C 
HETATM   16  C17 UNL     1      26.973   0.210  54.362  1.00  0.00     0.037 C 
HETATM   17  C18 UNL     1      26.345   1.551  54.322  1.00  0.00     0.240 C 
BRANCH  17  18
HETATM   18  N6  UNL     1      27.360   2.540  53.971  1.00  0.00     0.085 N 
HETATM   19  H23 UNL     1      27.098   3.474  54.357  1.00  0.00     0.313 HD
HETATM   20  H24 UNL     1      28.303   2.240  54.226  1.00  0.00     0.313 HD
ENDBRANCH  17  18
ENDBRANCH  10  12
ENDBRANCH   7  10
BRANCH   5  21
HETATM   21  N3  UNL     1      24.673   5.588  49.566  1.00  0.00    -0.338 N 
HETATM   22  H7  UNL     1      23.866   5.821  48.902  1.00  0.00     0.167 HD
BRANCH  21  23
HETATM   23  C6  UNL     1      25.606   6.235  48.765  1.00  0.00     0.035 A 
HETATM   24  C7  UNL     1      25.270   7.361  47.969  1.00  0.00     0.029 A 
HETATM   25  C8  UNL     1      26.303   7.941  47.219  1.00  0.00     0.004 A 
HETATM   26  C9  UNL     1      27.573   7.353  47.323  1.00  0.00     0.024 A 
HETATM   27  C10 UNL     1      27.901   6.277  48.082  1.00  0.00     0.036 A 
HETATM   28 CL1  UNL     1      29.528   5.668  48.079  1.00  0.00    -0.084 Cl
HETATM   29  C11 UNL     1      26.875   5.694  48.836  1.00  0.00     0.053 A 
ENDBRANCH  21  23
ENDBRANCH   5  21
BRANCH   1  30
HETATM   30  C2  UNL     1      19.408   3.483  51.617  1.00  0.00     0.127 C 
HETATM   31  C1  UNL     1      19.402   1.974  51.542  1.00  0.00     0.027 C 
ENDBRANCH   1  30
TORSDOF 6
ENDMDL
MODEL 9
REMARK VINA RESULT:      -7.5      2.586      7.500
REMARK  6 active torsions:
REMARK  status: ('A' for Active; 'I' for Inactive)
REMARK    1  A    between atoms: C2_2  and  N1_3 
REMARK    2  A    between atoms: C5_7  and  N3_8 
REMARK    3  A    between atoms: N3_8  and  C6_9 
REMARK    4  A    between atoms: C12_17  and  N5_18 
REMARK    5  A    between atoms: N5_18  and  C13_19 
REMARK    6  A    between atoms: C18_24  and  N6_25 
ROOT
HETATM    1  N1  UNL     1      24.384   5.555  49.168  1.00  0.00    -0.324 N 
HETATM    2  C3  UNL     1      25.742   5.467  48.917  1.00  0.00     0.212 A 
HETATM    3  N2  UNL     1      26.211   4.508  49.754  1.00  0.00    -0.236 NA
HETATM    4  C4  UNL     1      25.141   4.067  50.457  1.00  0.00     0.151 A 
HETATM    5  C5  UNL     1      25.149   3.047  51.343  1.00  0.00     0.180 A 
HETATM    6  N4  UNL     1      23.928   2.707  51.870  1.00  0.00    -0.043 NA
HETATM    7  C12 UNL     1      22.757   3.304  51.588  1.00  0.00     0.726 A 
HETATM    8  N7  UNL     1      22.848   4.314  50.686  1.00  0.00    -0.042 NA
HETATM    9  C19 UNL     1      23.965   4.728  50.101  1.00  0.00     0.182 A 
ENDROOT
BRANCH   7  10
HETATM   10  N5  UNL     1      21.564   2.841  52.208  1.00  0.00    -0.216 N 
HETATM   11  H12 UNL     1      21.038   3.527  52.791  1.00  0.00     0.178 HD
BRANCH  10  12
HETATM   12  C13 UNL     1      21.075   1.462  52.097  1.00  0.00     0.132 C 
HETATM   13  C14 UNL     1      20.645   0.944  53.427  1.00  0.00     0.028 C 
HETATM   14  C15 UNL     1      19.911  -0.354  53.323  1.00  0.00     0.002 C 
HETATM   15  C16 UNL     1      18.698  -0.254  52.408  1.00  0.00     0.002 C 
HETATM   16  C17 UNL     1      19.122   0.298  51.055  1.00  0.00     0.037 C 
HETATM   17  C18 UNL     1      19.793   1.605  51.243  1.00  0.00     0.240 C 
BRANCH  17  18
HETATM   18  N6  UNL     1      18.880   2.512  51.934  1.00  0.00     0.085 N 
HETATM   19  H23 UNL     1      17.961   2.540  51.439  1.00  0.00     0.313 HD
HETATM   20  H24 UNL     1      18.803   2.304  52.932  1.00  0.00     0.313 HD
ENDBRANCH  17  18
ENDBRANCH  10  12
ENDBRANCH   7  10
BRANCH   5  21
HETATM   21  N3  UNL     1      26.087   2.221  51.900  1.00  0.00    -0.338 N 
HETATM   22  H7  UNL     1      25.593   1.403  51.418  1.00  0.00     0.167 HD
BRANCH  21  23
HETATM   23  C6  UNL     1      27.045   1.393  52.470  1.00  0.00     0.035 A 
HETATM   24  C7  UNL     1      28.168   1.904  53.171  1.00  0.00     0.029 A 
HETATM   25  C8  UNL     1      29.056   0.967  53.720  1.00  0.00     0.004 A 
HETATM   26  C9  UNL     1      28.752  -0.389  53.523  1.00  0.00     0.024 A 
HETATM   27  C10 UNL     1      27.680  -0.885  52.856  1.00  0.00     0.036 A 
HETATM   28 CL1  UNL     1      27.467  -2.601  52.694  1.00  0.00    -0.084 Cl
HETATM   29  C11 UNL     1      26.788   0.045  52.307  1.00  0.00     0.053 A 
ENDBRANCH  21  23
ENDBRANCH   5  21
BRANCH   1  30
HETATM   30  C2  UNL     1      23.613   6.462  48.400  1.00  0.00     0.127 C 
HETATM   31  C1  UNL     1      23.185   7.715  49.130  1.00  0.00     0.027 C 
ENDBRANCH   1  30
TORSDOF 6
ENDMDL
