MODEL 1
REMARK VINA RESULT:      -8.2      0.000      0.000
REMARK  7 active torsions:
REMARK  status: ('A' for Active; 'I' for Inactive)
REMARK    1  A    between atoms: C5_5  and  N1_6 
REMARK    2  A    between atoms: N1_6  and  C6_7 
REMARK    3  A    between atoms: C10_13  and  C11_14 
REMARK    4  A    between atoms: N4_19  and  C15_20 
REMARK    5  A    between atoms: C15_20  and  C16_21 
REMARK    6  A    between atoms: C16_21  and  C17_22 
REMARK    7  A    between atoms: C17_22  and  N5_23 
ROOT
HETATM    1  C6  UNL     1      22.379   0.415  53.464  1.00  0.00     0.144 A 
HETATM    2  N2  UNL     1      22.836  -0.555  54.282  1.00  0.00    -0.223 NA
HETATM    3  C7  UNL     1      22.045  -1.556  54.697  1.00  0.00     0.235 A 
HETATM    4  N3  UNL     1      20.784  -1.545  54.260  1.00  0.00    -0.246 NA
HETATM    5  C8  UNL     1      20.310  -0.572  53.433  1.00  0.00     0.048 A 
HETATM    6  C9  UNL     1      18.869  -0.772  53.140  1.00  0.00     0.071 C 
HETATM    7  C10 UNL     1      21.101   0.488  52.981  1.00  0.00     0.063 A 
ENDROOT
BRANCH   7   8
HETATM    8  C11 UNL     1      20.545   1.579  52.211  1.00  0.00     0.068 C 
HETATM    9  C12 UNL     1      20.227   2.782  52.745  1.00  0.00     0.165 C 
HETATM   10  O1  UNL     1      19.715   3.733  51.908  1.00  0.00    -0.359 OA
HETATM   11  C13 UNL     1      18.888   3.470  50.799  1.00  0.00     0.194 C 
HETATM   12  C14 UNL     1      19.119   2.106  50.223  1.00  0.00     0.149 C 
HETATM   13  N4  UNL     1      20.342   1.538  50.764  1.00  0.00    -0.376 N 
BRANCH  13  14
HETATM   14  C15 UNL     1      21.460   0.930  50.050  1.00  0.00     0.125 C 
BRANCH  14  15
HETATM   15  C16 UNL     1      21.650   1.373  48.636  1.00  0.00     0.050 C 
BRANCH  15  16
HETATM   16  C17 UNL     1      22.653   2.448  48.512  1.00  0.00     0.274 C 
BRANCH  16  17
HETATM   17  N5  UNL     1      23.035   3.018  49.809  1.00  0.00     0.092 N 
HETATM   18  C18 UNL     1      24.441   3.055  50.036  1.00  0.00     0.298 C 
HETATM   19  C19 UNL     1      24.953   4.465  50.045  1.00  0.00     0.198 C 
HETATM   20  O2  UNL     1      24.340   5.200  51.050  1.00  0.00    -0.388 OA
HETATM   21  C20 UNL     1      22.956   5.162  51.002  1.00  0.00     0.198 C 
HETATM   22  C21 UNL     1      22.443   4.327  49.852  1.00  0.00     0.298 C 
ENDBRANCH  16  17
ENDBRANCH  15  16
ENDBRANCH  14  15
ENDBRANCH  13  14
ENDBRANCH   7   8
BRANCH   1  23
HETATM   23  N1  UNL     1      23.360   1.355  53.051  1.00  0.00    -0.340 N 
HETATM   24  H6  UNL     1      23.591   2.276  52.650  1.00  0.00     0.167 HD
BRANCH  23  25
HETATM   25  C5  UNL     1      24.729   0.981  53.144  1.00  0.00     0.035 A 
HETATM   26  C4  UNL     1      25.519   2.068  53.532  1.00  0.00     0.030 A 
HETATM   27  C3  UNL     1      26.898   1.952  53.664  1.00  0.00     0.011 A 
HETATM   28  C2  UNL     1      27.534   0.731  53.410  1.00  0.00    -0.040 A 
HETATM   29  C1  UNL     1      29.004   0.548  53.544  1.00  0.00     0.050 C 
HETATM   30  C23 UNL     1      26.745  -0.333  53.029  1.00  0.00     0.042 A 
HETATM   31  C22 UNL     1      25.379  -0.224  52.896  1.00  0.00     0.053 A 
HETATM   32 CL1  UNL     1      27.400  -1.905  52.681  1.00  0.00    -0.084 Cl
ENDBRANCH  23  25
ENDBRANCH   1  23
TORSDOF 7
ENDMDL
MODEL 2
REMARK VINA RESULT:      -8.0      2.265      4.347
REMARK  7 active torsions:
REMARK  status: ('A' for Active; 'I' for Inactive)
REMARK    1  A    between atoms: C5_5  and  N1_6 
REMARK    2  A    between atoms: N1_6  and  C6_7 
REMARK    3  A    between atoms: C10_13  and  C11_14 
REMARK    4  A    between atoms: N4_19  and  C15_20 
REMARK    5  A    between atoms: C15_20  and  C16_21 
REMARK    6  A    between atoms: C16_21  and  C17_22 
REMARK    7  A    between atoms: C17_22  and  N5_23 
ROOT
HETATM    1  C6  UNL     1      25.731   2.838  51.368  1.00  0.00     0.144 A 
HETATM    2  N2  UNL     1      26.783   3.298  50.661  1.00  0.00    -0.223 NA
HETATM    3  C7  UNL     1      26.648   3.725  49.397  1.00  0.00     0.235 A 
HETATM    4  N3  UNL     1      25.422   3.671  48.873  1.00  0.00    -0.246 NA
HETATM    5  C8  UNL     1      24.351   3.209  49.576  1.00  0.00     0.048 A 
HETATM    6  C9  UNL     1      23.121   3.214  48.745  1.00  0.00     0.071 C 
HETATM    7  C10 UNL     1      24.450   2.755  50.894  1.00  0.00     0.063 A 
ENDROOT
BRANCH   7   8
HETATM    8  C11 UNL     1      23.329   2.149  51.577  1.00  0.00     0.068 C 
HETATM    9  C12 UNL     1      23.380   0.923  52.151  1.00  0.00     0.165 C 
HETATM   10  O1  UNL     1      22.252   0.465  52.773  1.00  0.00    -0.359 OA
HETATM   11  C13 UNL     1      20.935   0.746  52.361  1.00  0.00     0.194 C 
HETATM   12  C14 UNL     1      20.828   2.046  51.625  1.00  0.00     0.149 C 
HETATM   13  N4  UNL     1      22.047   2.817  51.798  1.00  0.00    -0.376 N 
BRANCH  13  14
HETATM   14  C15 UNL     1      22.196   4.212  52.203  1.00  0.00     0.125 C 
BRANCH  14  15
HETATM   15  C16 UNL     1      21.374   5.201  51.445  1.00  0.00     0.050 C 
BRANCH  15  16
HETATM   16  C17 UNL     1      22.071   6.488  51.257  1.00  0.00     0.274 C 
BRANCH  16  17
HETATM   17  N5  UNL     1      23.254   6.369  50.397  1.00  0.00     0.092 N 
HETATM   18  C18 UNL     1      23.111   6.989  49.122  1.00  0.00     0.298 C 
HETATM   19  C19 UNL     1      23.996   8.193  48.999  1.00  0.00     0.198 C 
HETATM   20  O2  UNL     1      25.329   7.835  49.151  1.00  0.00    -0.388 OA
HETATM   21  C20 UNL     1      25.587   7.130  50.315  1.00  0.00     0.198 C 
HETATM   22  C21 UNL     1      24.345   6.925  51.150  1.00  0.00     0.298 C 
ENDBRANCH  16  17
ENDBRANCH  15  16
ENDBRANCH  14  15
ENDBRANCH  13  14
ENDBRANCH   7   8
BRANCH   1  23
HETATM   23  N1  UNL     1      26.022   2.501  52.717  1.00  0.00    -0.340 N 
HETATM   24  H6  UNL     1      25.912   2.696  53.723  1.00  0.00     0.167 HD
BRANCH  23  25
HETATM   25  C5  UNL     1      26.903   1.411  52.961  1.00  0.00     0.035 A 
HETATM   26  C4  UNL     1      28.105   1.856  53.521  1.00  0.00     0.030 A 
HETATM   27  C3  UNL     1      29.135   0.972  53.822  1.00  0.00     0.011 A 
HETATM   28  C2  UNL     1      28.991  -0.397  53.571  1.00  0.00    -0.040 A 
HETATM   29  C1  UNL     1      30.057  -1.387  53.882  1.00  0.00     0.050 C 
HETATM   30  C23 UNL     1      27.803  -0.823  53.020  1.00  0.00     0.042 A 
HETATM   31  C22 UNL     1      26.779   0.046  52.718  1.00  0.00     0.053 A 
HETATM   32 CL1  UNL     1      27.488  -2.493  52.652  1.00  0.00    -0.084 Cl
ENDBRANCH  23  25
ENDBRANCH   1  23
TORSDOF 7
ENDMDL
MODEL 3
REMARK VINA RESULT:      -7.9      1.757      2.265
REMARK  7 active torsions:
REMARK  status: ('A' for Active; 'I' for Inactive)
REMARK    1  A    between atoms: C5_5  and  N1_6 
REMARK    2  A    between atoms: N1_6  and  C6_7 
REMARK    3  A    between atoms: C10_13  and  C11_14 
REMARK    4  A    between atoms: N4_19  and  C15_20 
REMARK    5  A    between atoms: C15_20  and  C16_21 
REMARK    6  A    between atoms: C16_21  and  C17_22 
REMARK    7  A    between atoms: C17_22  and  N5_23 
ROOT
HETATM    1  C6  UNL     1      22.970   1.236  53.073  1.00  0.00     0.144 A 
HETATM    2  N2  UNL     1      22.959   0.067  53.746  1.00  0.00    -0.223 NA
HETATM    3  C7  UNL     1      21.872  -0.719  53.771  1.00  0.00     0.235 A 
HETATM    4  N3  UNL     1      20.804  -0.287  53.099  1.00  0.00    -0.246 NA
HETATM    5  C8  UNL     1      20.801   0.891  52.416  1.00  0.00     0.048 A 
HETATM    6  C9  UNL     1      19.477   1.152  51.801  1.00  0.00     0.071 C 
HETATM    7  C10 UNL     1      21.912   1.739  52.366  1.00  0.00     0.063 A 
ENDROOT
BRANCH   7   8
HETATM    8  C11 UNL     1      21.848   3.043  51.746  1.00  0.00     0.068 C 
HETATM    9  C12 UNL     1      21.774   4.199  52.447  1.00  0.00     0.165 C 
HETATM   10  O1  UNL     1      21.725   5.369  51.741  1.00  0.00    -0.359 OA
HETATM   11  C13 UNL     1      21.100   5.528  50.489  1.00  0.00     0.194 C 
HETATM   12  C14 UNL     1      21.057   4.254  49.703  1.00  0.00     0.149 C 
HETATM   13  N4  UNL     1      21.938   3.268  50.304  1.00  0.00    -0.376 N 
BRANCH  13  14
HETATM   14  C15 UNL     1      22.965   2.451  49.665  1.00  0.00     0.125 C 
BRANCH  14  15
HETATM   15  C16 UNL     1      24.364   2.961  49.771  1.00  0.00     0.050 C 
BRANCH  15  16
HETATM   16  C17 UNL     1      24.565   4.220  49.028  1.00  0.00     0.274 C 
BRANCH  16  17
HETATM   17  N5  UNL     1      25.549   5.102  49.667  1.00  0.00     0.092 N 
HETATM   18  C18 UNL     1      26.759   5.251  48.930  1.00  0.00     0.298 C 
HETATM   19  C19 UNL     1      26.895   6.641  48.383  1.00  0.00     0.198 C 
HETATM   20  O2  UNL     1      26.906   7.572  49.413  1.00  0.00    -0.388 OA
HETATM   21  C20 UNL     1      25.823   7.466  50.270  1.00  0.00     0.198 C 
HETATM   22  C21 UNL     1      24.879   6.357  49.869  1.00  0.00     0.298 C 
ENDBRANCH  16  17
ENDBRANCH  15  16
ENDBRANCH  14  15
ENDBRANCH  13  14
ENDBRANCH   7   8
BRANCH   1  23
HETATM   23  N1  UNL     1      24.220   1.911  53.075  1.00  0.00    -0.340 N 
HETATM   24  H6  UNL     1      24.751   2.793  53.022  1.00  0.00     0.167 HD
BRANCH  23  25
HETATM   25  C5  UNL     1      25.405   1.128  53.145  1.00  0.00     0.035 A 
HETATM   26  C4  UNL     1      26.464   1.870  53.679  1.00  0.00     0.030 A 
HETATM   27  C3  UNL     1      27.734   1.323  53.820  1.00  0.00     0.011 A 
HETATM   28  C2  UNL     1      27.985   0.003  53.429  1.00  0.00    -0.040 A 
HETATM   29  C1  UNL     1      29.322  -0.635  53.565  1.00  0.00     0.050 C 
HETATM   30  C23 UNL     1      26.935  -0.718  52.905  1.00  0.00     0.042 A 
HETATM   31  C22 UNL     1      25.674  -0.182  52.762  1.00  0.00     0.053 A 
HETATM   32 CL1  UNL     1      27.103  -2.365  52.376  1.00  0.00    -0.084 Cl
ENDBRANCH  23  25
ENDBRANCH   1  23
TORSDOF 7
ENDMDL
MODEL 4
REMARK VINA RESULT:      -7.7      2.666      6.103
REMARK  7 active torsions:
REMARK  status: ('A' for Active; 'I' for Inactive)
REMARK    1  A    between atoms: C5_5  and  N1_6 
REMARK    2  A    between atoms: N1_6  and  C6_7 
REMARK    3  A    between atoms: C10_13  and  C11_14 
REMARK    4  A    between atoms: N4_19  and  C15_20 
REMARK    5  A    between atoms: C15_20  and  C16_21 
REMARK    6  A    between atoms: C16_21  and  C17_22 
REMARK    7  A    between atoms: C17_22  and  N5_23 
ROOT
HETATM    1  C6  UNL     1      20.969   3.433  50.388  1.00  0.00     0.144 A 
HETATM    2  N2  UNL     1      19.885   2.786  49.914  1.00  0.00    -0.223 NA
HETATM    3  C7  UNL     1      19.623   2.721  48.600  1.00  0.00     0.235 A 
HETATM    4  N3  UNL     1      20.489   3.327  47.785  1.00  0.00    -0.246 NA
HETATM    5  C8  UNL     1      21.588   3.984  48.250  1.00  0.00     0.048 A 
HETATM    6  C9  UNL     1      22.351   4.605  47.140  1.00  0.00     0.071 C 
HETATM    7  C10 UNL     1      21.894   4.076  49.611  1.00  0.00     0.063 A 
ENDROOT
BRANCH   7   8
HETATM    8  C11 UNL     1      22.992   4.886  50.091  1.00  0.00     0.068 C 
HETATM    9  C12 UNL     1      22.822   6.057  50.749  1.00  0.00     0.165 C 
HETATM   10  O1  UNL     1      23.942   6.725  51.158  1.00  0.00    -0.359 OA
HETATM   11  C13 UNL     1      25.169   6.739  50.466  1.00  0.00     0.194 C 
HETATM   12  C14 UNL     1      25.372   5.510  49.634  1.00  0.00     0.149 C 
HETATM   13  N4  UNL     1      24.398   4.496  49.998  1.00  0.00    -0.376 N 
BRANCH  13  14
HETATM   14  C15 UNL     1      24.621   3.091  50.325  1.00  0.00     0.125 C 
BRANCH  14  15
HETATM   15  C16 UNL     1      26.022   2.720  50.684  1.00  0.00     0.050 C 
BRANCH  15  16
HETATM   16  C17 UNL     1      26.144   2.255  52.078  1.00  0.00     0.274 C 
BRANCH  16  17
HETATM   17  N5  UNL     1      27.082   1.135  52.221  1.00  0.00     0.092 N 
HETATM   18  C18 UNL     1      28.039   1.308  53.261  1.00  0.00     0.298 C 
HETATM   19  C19 UNL     1      27.798   0.346  54.387  1.00  0.00     0.198 C 
HETATM   20  O2  UNL     1      27.890  -0.964  53.938  1.00  0.00    -0.388 OA
HETATM   21  C20 UNL     1      27.076  -1.238  52.851  1.00  0.00     0.198 C 
HETATM   22  C21 UNL     1      26.271  -0.035  52.418  1.00  0.00     0.298 C 
ENDBRANCH  16  17
ENDBRANCH  15  16
ENDBRANCH  14  15
ENDBRANCH  13  14
ENDBRANCH   7   8
BRANCH   1  23
HETATM   23  N1  UNL     1      21.149   3.343  51.794  1.00  0.00    -0.340 N 
HETATM   24  H6  UNL     1      21.335   3.807  52.695  1.00  0.00     0.167 HD
BRANCH  23  25
HETATM   25  C5  UNL     1      21.115   2.053  52.392  1.00  0.00     0.035 A 
HETATM   26  C4  UNL     1      22.397   1.646  52.775  1.00  0.00     0.030 A 
HETATM   27  C3  UNL     1      22.620   0.404  53.359  1.00  0.00     0.011 A 
HETATM   28  C2  UNL     1      21.554  -0.476  53.582  1.00  0.00    -0.040 A 
HETATM   29  C1  UNL     1      21.734  -1.812  54.211  1.00  0.00     0.050 C 
HETATM   30  C23 UNL     1      20.296  -0.064  53.202  1.00  0.00     0.042 A 
HETATM   31  C22 UNL     1      20.069   1.165  52.622  1.00  0.00     0.053 A 
HETATM   32 CL1  UNL     1      18.883  -1.053  53.416  1.00  0.00    -0.084 Cl
ENDBRANCH  23  25
ENDBRANCH   1  23
TORSDOF 7
ENDMDL
MODEL 5
REMARK VINA RESULT:      -7.7      1.869      3.515
REMARK  7 active torsions:
REMARK  status: ('A' for Active; 'I' for Inactive)
REMARK    1  A    between atoms: C5_5  and  N1_6 
REMARK    2  A    between atoms: N1_6  and  C6_7 
REMARK    3  A    between atoms: C10_13  and  C11_14 
REMARK    4  A    between atoms: N4_19  and  C15_20 
REMARK    5  A    between atoms: C15_20  and  C16_21 
REMARK    6  A    between atoms: C16_21  and  C17_22 
REMARK    7  A    between atoms: C17_22  and  N5_23 
ROOT
HETATM    1  C6  UNL     1      23.730   0.984  53.018  1.00  0.00     0.144 A 
HETATM    2  N2  UNL     1      23.393  -0.062  53.800  1.00  0.00    -0.223 NA
HETATM    3  C7  UNL     1      22.330  -0.832  53.524  1.00  0.00     0.235 A 
HETATM    4  N3  UNL     1      21.623  -0.513  52.439  1.00  0.00    -0.246 NA
HETATM    5  C8  UNL     1      21.952   0.541  51.641  1.00  0.00     0.048 A 
HETATM    6  C9  UNL     1      20.976   0.701  50.534  1.00  0.00     0.071 C 
HETATM    7  C10 UNL     1      23.050   1.368  51.894  1.00  0.00     0.063 A 
ENDROOT
BRANCH   7   8
HETATM    8  C11 UNL     1      23.306   2.555  51.110  1.00  0.00     0.068 C 
HETATM    9  C12 UNL     1      23.781   2.523  49.842  1.00  0.00     0.165 C 
HETATM   10  O1  UNL     1      23.975   3.717  49.206  1.00  0.00    -0.359 OA
HETATM   11  C13 UNL     1      24.378   4.910  49.837  1.00  0.00     0.194 C 
HETATM   12  C14 UNL     1      23.972   4.962  51.278  1.00  0.00     0.149 C 
HETATM   13  N4  UNL     1      23.007   3.913  51.561  1.00  0.00    -0.376 N 
BRANCH  13  14
HETATM   14  C15 UNL     1      21.716   4.018  52.234  1.00  0.00     0.125 C 
BRANCH  14  15
HETATM   15  C16 UNL     1      20.517   4.036  51.345  1.00  0.00     0.050 C 
BRANCH  15  16
HETATM   16  C17 UNL     1      20.490   5.215  50.458  1.00  0.00     0.274 C 
BRANCH  16  17
HETATM   17  N5  UNL     1      19.901   4.922  49.146  1.00  0.00     0.092 N 
HETATM   18  C18 UNL     1      20.858   4.616  48.135  1.00  0.00     0.298 C 
HETATM   19  C19 UNL     1      20.774   3.175  47.725  1.00  0.00     0.198 C 
HETATM   20  O2  UNL     1      19.513   2.886  47.220  1.00  0.00    -0.388 OA
HETATM   21  C20 UNL     1      18.479   3.234  48.072  1.00  0.00     0.198 C 
HETATM   22  C21 UNL     1      18.977   3.843  49.361  1.00  0.00     0.298 C 
ENDBRANCH  16  17
ENDBRANCH  15  16
ENDBRANCH  14  15
ENDBRANCH  13  14
ENDBRANCH   7   8
BRANCH   1  23
HETATM   23  N1  UNL     1      24.926   1.649  53.398  1.00  0.00    -0.340 N 
HETATM   24  H6  UNL     1      25.405   2.515  53.687  1.00  0.00     0.167 HD
BRANCH  23  25
HETATM   25  C5  UNL     1      26.138   0.905  53.394  1.00  0.00     0.035 A 
HETATM   26  C4  UNL     1      27.223   1.713  53.748  1.00  0.00     0.030 A 
HETATM   27  C3  UNL     1      28.518   1.212  53.787  1.00  0.00     0.011 A 
HETATM   28  C2  UNL     1      28.770  -0.128  53.472  1.00  0.00    -0.040 A 
HETATM   29  C1  UNL     1      30.135  -0.719  53.506  1.00  0.00     0.050 C 
HETATM   30  C23 UNL     1      27.694  -0.916  53.125  1.00  0.00     0.042 A 
HETATM   31  C22 UNL     1      26.408  -0.425  53.084  1.00  0.00     0.053 A 
HETATM   32 CL1  UNL     1      27.859  -2.594  52.707  1.00  0.00    -0.084 Cl
ENDBRANCH  23  25
ENDBRANCH   1  23
TORSDOF 7
ENDMDL
MODEL 6
REMARK VINA RESULT:      -7.7      2.462      3.884
REMARK  7 active torsions:
REMARK  status: ('A' for Active; 'I' for Inactive)
REMARK    1  A    between atoms: C5_5  and  N1_6 
REMARK    2  A    between atoms: N1_6  and  C6_7 
REMARK    3  A    between atoms: C10_13  and  C11_14 
REMARK    4  A    between atoms: N4_19  and  C15_20 
REMARK    5  A    between atoms: C15_20  and  C16_21 
REMARK    6  A    between atoms: C16_21  and  C17_22 
REMARK    7  A    between atoms: C17_22  and  N5_23 
ROOT
HETATM    1  C6  UNL     1      23.502   1.415  52.522  1.00  0.00     0.144 A 
HETATM    2  N2  UNL     1      22.985   0.355  53.175  1.00  0.00    -0.223 NA
HETATM    3  C7  UNL     1      21.939  -0.330  52.688  1.00  0.00     0.235 A 
HETATM    4  N3  UNL     1      21.436   0.091  51.526  1.00  0.00    -0.246 NA
HETATM    5  C8  UNL     1      21.949   1.160  50.855  1.00  0.00     0.048 A 
HETATM    6  C9  UNL     1      21.176   1.440  49.620  1.00  0.00     0.071 C 
HETATM    7  C10 UNL     1      23.036   1.899  51.330  1.00  0.00     0.063 A 
ENDROOT
BRANCH   7   8
HETATM    8  C11 UNL     1      23.482   3.106  50.670  1.00  0.00     0.068 C 
HETATM    9  C12 UNL     1      24.107   3.111  49.469  1.00  0.00     0.165 C 
HETATM   10  O1  UNL     1      24.473   4.321  48.948  1.00  0.00    -0.359 OA
HETATM   11  C13 UNL     1      24.889   5.432  49.708  1.00  0.00     0.194 C 
HETATM   12  C14 UNL     1      24.312   5.430  51.090  1.00  0.00     0.149 C 
HETATM   13  N4  UNL     1      23.239   4.455  51.180  1.00  0.00    -0.376 N 
BRANCH  13  14
HETATM   14  C15 UNL     1      21.886   4.630  51.701  1.00  0.00     0.125 C 
BRANCH  14  15
HETATM   15  C16 UNL     1      20.819   4.854  50.680  1.00  0.00     0.050 C 
BRANCH  15  16
HETATM   16  C17 UNL     1      21.190   5.885  49.693  1.00  0.00     0.274 C 
BRANCH  16  17
HETATM   17  N5  UNL     1      20.979   7.249  50.193  1.00  0.00     0.092 N 
HETATM   18  C18 UNL     1      22.074   8.130  49.960  1.00  0.00     0.298 C 
HETATM   19  C19 UNL     1      21.718   9.185  48.955  1.00  0.00     0.198 C 
HETATM   20  O2  UNL     1      20.648   9.946  49.405  1.00  0.00    -0.388 OA
HETATM   21  C20 UNL     1      19.543   9.194  49.766  1.00  0.00     0.198 C 
HETATM   22  C21 UNL     1      19.768   7.713  49.574  1.00  0.00     0.298 C 
ENDBRANCH  16  17
ENDBRANCH  15  16
ENDBRANCH  14  15
ENDBRANCH  13  14
ENDBRANCH   7   8
BRANCH   1  23
HETATM   23  N1  UNL     1      24.657   1.981  53.126  1.00  0.00    -0.340 N 
HETATM   24  H6  UNL     1      25.119   2.788  53.570  1.00  0.00     0.167 HD
BRANCH  23  25
HETATM   25  C5  UNL     1      25.834   1.185  53.198  1.00  0.00     0.035 A 
HETATM   26  C4  UNL     1      26.925   1.946  53.629  1.00  0.00     0.030 A 
HETATM   27  C3  UNL     1      28.194   1.390  53.751  1.00  0.00     0.011 A 
HETATM   28  C2  UNL     1      28.409   0.042  53.444  1.00  0.00    -0.040 A 
HETATM   29  C1  UNL     1      29.743  -0.606  53.565  1.00  0.00     0.050 C 
HETATM   30  C23 UNL     1      27.326  -0.698  53.022  1.00  0.00     0.042 A 
HETATM   31  C22 UNL     1      26.068  -0.153  52.898  1.00  0.00     0.053 A 
HETATM   32 CL1  UNL     1      27.449  -2.381  52.605  1.00  0.00    -0.084 Cl
ENDBRANCH  23  25
ENDBRANCH   1  23
TORSDOF 7
ENDMDL
MODEL 7
REMARK VINA RESULT:      -7.6      2.151      4.616
REMARK  7 active torsions:
REMARK  status: ('A' for Active; 'I' for Inactive)
REMARK    1  A    between atoms: C5_5  and  N1_6 
REMARK    2  A    between atoms: N1_6  and  C6_7 
REMARK    3  A    between atoms: C10_13  and  C11_14 
REMARK    4  A    between atoms: N4_19  and  C15_20 
REMARK    5  A    between atoms: C15_20  and  C16_21 
REMARK    6  A    between atoms: C16_21  and  C17_22 
REMARK    7  A    between atoms: C17_22  and  N5_23 
ROOT
HETATM    1  C6  UNL     1      25.469   3.230  51.190  1.00  0.00     0.144 A 
HETATM    2  N2  UNL     1      26.690   3.356  50.630  1.00  0.00    -0.223 NA
HETATM    3  C7  UNL     1      26.864   3.982  49.456  1.00  0.00     0.235 A 
HETATM    4  N3  UNL     1      25.770   4.472  48.869  1.00  0.00    -0.246 NA
HETATM    5  C8  UNL     1      24.532   4.351  49.424  1.00  0.00     0.048 A 
HETATM    6  C9  UNL     1      23.491   4.940  48.545  1.00  0.00     0.071 C 
HETATM    7  C10 UNL     1      24.308   3.706  50.643  1.00  0.00     0.063 A 
ENDROOT
BRANCH   7   8
HETATM    8  C11 UNL     1      22.974   3.476  51.150  1.00  0.00     0.068 C 
HETATM    9  C12 UNL     1      22.219   4.441  51.727  1.00  0.00     0.165 C 
HETATM   10  O1  UNL     1      20.969   4.097  52.160  1.00  0.00    -0.359 OA
HETATM   11  C13 UNL     1      20.617   2.838  52.684  1.00  0.00     0.194 C 
HETATM   12  C14 UNL     1      21.487   1.736  52.163  1.00  0.00     0.149 C 
HETATM   13  N4  UNL     1      22.259   2.207  51.026  1.00  0.00    -0.376 N 
BRANCH  13  14
HETATM   14  C15 UNL     1      22.417   1.592  49.711  1.00  0.00     0.125 C 
BRANCH  14  15
HETATM   15  C16 UNL     1      21.152   1.307  48.970  1.00  0.00     0.050 C 
BRANCH  15  16
HETATM   16  C17 UNL     1      20.728   2.436  48.121  1.00  0.00     0.274 C 
BRANCH  16  17
HETATM   17  N5  UNL     1      19.944   3.434  48.858  1.00  0.00     0.092 N 
HETATM   18  C18 UNL     1      19.501   4.529  48.061  1.00  0.00     0.298 C 
HETATM   19  C19 UNL     1      18.012   4.504  47.882  1.00  0.00     0.198 C 
HETATM   20  O2  UNL     1      17.372   4.586  49.111  1.00  0.00    -0.388 OA
HETATM   21  C20 UNL     1      17.791   3.630  50.021  1.00  0.00     0.198 C 
HETATM   22  C21 UNL     1      18.849   2.716  49.449  1.00  0.00     0.298 C 
ENDBRANCH  16  17
ENDBRANCH  15  16
ENDBRANCH  14  15
ENDBRANCH  13  14
ENDBRANCH   7   8
BRANCH   1  23
HETATM   23  N1  UNL     1      25.463   2.616  52.471  1.00  0.00    -0.340 N 
HETATM   24  H6  UNL     1      25.099   2.580  53.434  1.00  0.00     0.167 HD
BRANCH  23  25
HETATM   25  C5  UNL     1      26.360   1.537  52.701  1.00  0.00     0.035 A 
HETATM   26  C4  UNL     1      27.547   1.990  53.288  1.00  0.00     0.030 A 
HETATM   27  C3  UNL     1      28.588   1.118  53.583  1.00  0.00     0.011 A 
HETATM   28  C2  UNL     1      28.473  -0.247  53.299  1.00  0.00    -0.040 A 
HETATM   29  C1  UNL     1      29.552  -1.225  53.601  1.00  0.00     0.050 C 
HETATM   30  C23 UNL     1      27.300  -0.682  52.721  1.00  0.00     0.042 A 
HETATM   31  C22 UNL     1      26.264   0.176  52.426  1.00  0.00     0.053 A 
HETATM   32 CL1  UNL     1      27.020  -2.348  52.312  1.00  0.00    -0.084 Cl
ENDBRANCH  23  25
ENDBRANCH   1  23
TORSDOF 7
ENDMDL
MODEL 8
REMARK VINA RESULT:      -7.6      2.077      2.924
REMARK  7 active torsions:
REMARK  status: ('A' for Active; 'I' for Inactive)
REMARK    1  A    between atoms: C5_5  and  N1_6 
REMARK    2  A    between atoms: N1_6  and  C6_7 
REMARK    3  A    between atoms: C10_13  and  C11_14 
REMARK    4  A    between atoms: N4_19  and  C15_20 
REMARK    5  A    between atoms: C15_20  and  C16_21 
REMARK    6  A    between atoms: C16_21  and  C17_22 
REMARK    7  A    between atoms: C17_22  and  N5_23 
ROOT
HETATM    1  C6  UNL     1      23.469   0.646  52.487  1.00  0.00     0.144 A 
HETATM    2  N2  UNL     1      23.593   0.030  53.680  1.00  0.00    -0.223 NA
HETATM    3  C7  UNL     1      22.543  -0.542  54.289  1.00  0.00     0.235 A 
HETATM    4  N3  UNL     1      21.371  -0.471  53.656  1.00  0.00    -0.246 NA
HETATM    5  C8  UNL     1      21.232   0.148  52.451  1.00  0.00     0.048 A 
HETATM    6  C9  UNL     1      19.820   0.123  51.995  1.00  0.00     0.071 C 
HETATM    7  C10 UNL     1      22.300   0.756  51.785  1.00  0.00     0.063 A 
ENDROOT
BRANCH   7   8
HETATM    8  C11 UNL     1      22.106   1.519  50.572  1.00  0.00     0.068 C 
HETATM    9  C12 UNL     1      21.690   0.970  49.406  1.00  0.00     0.165 C 
HETATM   10  O1  UNL     1      21.539   1.801  48.331  1.00  0.00    -0.359 OA
HETATM   11  C13 UNL     1      22.337   2.932  48.069  1.00  0.00     0.194 C 
HETATM   12  C14 UNL     1      22.916   3.526  49.316  1.00  0.00     0.149 C 
HETATM   13  N4  UNL     1      22.257   2.970  50.484  1.00  0.00    -0.376 N 
BRANCH  13  14
HETATM   14  C15 UNL     1      21.673   3.672  51.624  1.00  0.00     0.125 C 
BRANCH  14  15
HETATM   15  C16 UNL     1      22.171   5.059  51.860  1.00  0.00     0.050 C 
BRANCH  15  16
HETATM   16  C17 UNL     1      21.412   6.069  51.100  1.00  0.00     0.274 C 
BRANCH  16  17
HETATM   17  N5  UNL     1      22.186   7.292  50.854  1.00  0.00     0.092 N 
HETATM   18  C18 UNL     1      23.597   7.097  50.859  1.00  0.00     0.298 C 
HETATM   19  C19 UNL     1      24.177   7.282  49.488  1.00  0.00     0.198 C 
HETATM   20  O2  UNL     1      23.926   8.565  49.021  1.00  0.00    -0.388 OA
HETATM   21  C20 UNL     1      22.587   8.919  49.061  1.00  0.00     0.198 C 
HETATM   22  C21 UNL     1      21.715   7.811  49.599  1.00  0.00     0.298 C 
ENDBRANCH  16  17
ENDBRANCH  15  16
ENDBRANCH  14  15
ENDBRANCH  13  14
ENDBRANCH   7   8
BRANCH   1  23
HETATM   23  N1  UNL     1      24.687   1.128  51.937  1.00  0.00    -0.340 N 
HETATM   24  H6  UNL     1      25.176   1.752  51.278  1.00  0.00     0.167 HD
BRANCH  23  25
HETATM   25  C5  UNL     1      25.904   0.546  52.388  1.00  0.00     0.035 A 
HETATM   26  C4  UNL     1      26.781   1.525  52.864  1.00  0.00     0.030 A 
HETATM   27  C3  UNL     1      28.048   1.198  53.334  1.00  0.00     0.011 A 
HETATM   28  C2  UNL     1      28.478  -0.134  53.343  1.00  0.00    -0.040 A 
HETATM   29  C1  UNL     1      29.819  -0.542  53.842  1.00  0.00     0.050 C 
HETATM   30  C23 UNL     1      27.605  -1.090  52.872  1.00  0.00     0.042 A 
HETATM   31  C22 UNL     1      26.349  -0.773  52.405  1.00  0.00     0.053 A 
HETATM   32 CL1  UNL     1      28.007  -2.780  52.823  1.00  0.00    -0.084 Cl
ENDBRANCH  23  25
ENDBRANCH   1  23
TORSDOF 7
ENDMDL
MODEL 9
REMARK VINA RESULT:      -7.5      2.794      5.820
REMARK  7 active torsions:
REMARK  status: ('A' for Active; 'I' for Inactive)
REMARK    1  A    between atoms: C5_5  and  N1_6 
REMARK    2  A    between atoms: N1_6  and  C6_7 
REMARK    3  A    between atoms: C10_13  and  C11_14 
REMARK    4  A    between atoms: N4_19  and  C15_20 
REMARK    5  A    between atoms: C15_20  and  C16_21 
REMARK    6  A    between atoms: C16_21  and  C17_22 
REMARK    7  A    between atoms: C17_22  and  N5_23 
ROOT
HETATM    1  C6  UNL     1      22.477  -0.259  53.030  1.00  0.00     0.144 A 
HETATM    2  N2  UNL     1      21.391  -0.916  53.484  1.00  0.00    -0.223 NA
HETATM    3  C7  UNL     1      21.411  -1.591  54.644  1.00  0.00     0.235 A 
HETATM    4  N3  UNL     1      22.558  -1.579  55.325  1.00  0.00    -0.246 NA
HETATM    5  C8  UNL     1      23.662  -0.919  54.878  1.00  0.00     0.048 A 
HETATM    6  C9  UNL     1      24.809  -1.107  55.800  1.00  0.00     0.071 C 
HETATM    7  C10 UNL     1      23.683  -0.207  53.675  1.00  0.00     0.063 A 
ENDROOT
BRANCH   7   8
HETATM    8  C11 UNL     1      24.900   0.377  53.156  1.00  0.00     0.068 C 
HETATM    9  C12 UNL     1      25.739  -0.274  52.316  1.00  0.00     0.165 C 
HETATM   10  O1  UNL     1      26.854   0.392  51.891  1.00  0.00    -0.359 OA
HETATM   11  C13 UNL     1      27.577   1.326  52.659  1.00  0.00     0.194 C 
HETATM   12  C14 UNL     1      26.723   2.008  53.683  1.00  0.00     0.149 C 
HETATM   13  N4  UNL     1      25.319   1.754  53.410  1.00  0.00    -0.376 N 
BRANCH  13  14
HETATM   14  C15 UNL     1      24.219   2.709  53.321  1.00  0.00     0.125 C 
BRANCH  14  15
HETATM   15  C16 UNL     1      24.192   3.560  52.094  1.00  0.00     0.050 C 
BRANCH  15  16
HETATM   16  C17 UNL     1      23.490   4.839  52.309  1.00  0.00     0.274 C 
BRANCH  16  17
HETATM   17  N5  UNL     1      23.434   5.665  51.097  1.00  0.00     0.092 N 
HETATM   18  C18 UNL     1      24.260   6.824  51.144  1.00  0.00     0.298 C 
HETATM   19  C19 UNL     1      25.407   6.715  50.183  1.00  0.00     0.198 C 
HETATM   20  O2  UNL     1      24.941   6.577  48.883  1.00  0.00    -0.388 OA
HETATM   21  C20 UNL     1      24.041   5.537  48.721  1.00  0.00     0.198 C 
HETATM   22  C21 UNL     1      23.787   4.792  50.011  1.00  0.00     0.298 C 
ENDBRANCH  16  17
ENDBRANCH  15  16
ENDBRANCH  14  15
ENDBRANCH  13  14
ENDBRANCH   7   8
BRANCH   1  23
HETATM   23  N1  UNL     1      22.271   0.473  51.830  1.00  0.00    -0.340 N 
HETATM   24  H6  UNL     1      22.655   0.884  50.966  1.00  0.00     0.167 HD
BRANCH  23  25
HETATM   25  C5  UNL     1      20.968   0.978  51.568  1.00  0.00     0.035 A 
HETATM   26  C4  UNL     1      20.798   2.243  52.139  1.00  0.00     0.030 A 
HETATM   27  C3  UNL     1      19.593   2.928  52.038  1.00  0.00     0.011 A 
HETATM   28  C2  UNL     1      18.510   2.363  51.355  1.00  0.00    -0.040 A 
HETATM   29  C1  UNL     1      17.201   3.054  51.209  1.00  0.00     0.050 C 
HETATM   30  C23 UNL     1      18.689   1.116  50.796  1.00  0.00     0.042 A 
HETATM   31  C22 UNL     1      19.881   0.432  50.892  1.00  0.00     0.053 A 
HETATM   32 CL1  UNL     1      17.432   0.293  49.923  1.00  0.00    -0.084 Cl
ENDBRANCH  23  25
ENDBRANCH   1  23
TORSDOF 7
ENDMDL
