MODEL 1
REMARK VINA RESULT:      -7.8      0.000      0.000
REMARK  1 active torsions:
REMARK  status: ('A' for Active; 'I' for Inactive)
REMARK    1  A    between atoms: O1_2  and  C2_3 
ROOT
HETATM    1  C2  UNL     1      24.716   0.605  52.871  1.00  0.00     0.075 A 
HETATM    2  C3  UNL     1      23.958   1.484  52.127  1.00  0.00     0.055 A 
HETATM    3  C4  UNL     1      24.691   2.210  51.202  1.00  0.00     0.046 A 
HETATM    4  C5  UNL     1      26.085   2.115  50.986  1.00  0.00     0.071 A 
HETATM    5  C6  UNL     1      26.784   1.244  51.737  1.00  0.00     0.042 A 
HETATM    6  C7  UNL     1      26.093   0.501  52.667  1.00  0.00    -0.026 A 
HETATM    7  C8  UNL     1      26.905  -0.446  53.472  1.00  0.00     0.051 C 
HETATM    8  N1  UNL     1      26.773   2.827  50.110  1.00  0.00    -0.259 NA
HETATM    9  C9  UNL     1      26.639   4.212  49.688  1.00  0.00     0.138 C 
HETATM   10  C10 UNL     1      25.543   4.990  49.557  1.00  0.00     0.067 C 
HETATM   11  C11 UNL     1      26.044   6.341  49.332  1.00  0.00     0.099 C 
HETATM   12  N2  UNL     1      26.454   7.427  49.131  1.00  0.00    -0.192 NA
HETATM   13  C12 UNL     1      24.055   4.983  49.552  1.00  0.00     0.169 C 
HETATM   14  N3  UNL     1      23.530   3.641  49.347  1.00  0.00    -0.356 N 
HETATM   15  C13 UNL     1      23.733   2.973  50.620  1.00  0.00     0.152 C 
HETATM   16  O2  UNL     1      22.806   2.988  51.705  1.00  0.00    -0.331 OA
HETATM   17  C14 UNL     1      22.103   4.147  52.200  1.00  0.00     0.206 C 
HETATM   18  C15 UNL     1      22.501   5.405  51.561  1.00  0.00     0.017 C 
HETATM   19  C16 UNL     1      23.422   5.739  50.628  1.00  0.00     0.015 C 
HETATM   20 BR1  UNL     1      23.984   7.560  50.761  1.00  0.00    -0.053 Br
HETATM   21  H11 UNL     1      23.124   3.398  48.382  1.00  0.00     0.162 HD
ENDROOT
BRANCH   1  22
HETATM   22  O1  UNL     1      24.114  -0.173  53.821  1.00  0.00    -0.355 OA
HETATM   23  C1  UNL     1      22.819  -0.678  53.590  1.00  0.00     0.210 C 
ENDBRANCH   1  22
TORSDOF 1
ENDMDL
MODEL 2
REMARK VINA RESULT:      -7.6      3.812      5.921
REMARK  1 active torsions:
REMARK  status: ('A' for Active; 'I' for Inactive)
REMARK    1  A    between atoms: O1_2  and  C2_3 
ROOT
HETATM    1  C2  UNL     1      25.374   1.109  51.950  1.00  0.00     0.075 A 
HETATM    2  C3  UNL     1      24.159   1.750  51.837  1.00  0.00     0.055 A 
HETATM    3  C4  UNL     1      23.159   1.195  52.619  1.00  0.00     0.046 A 
HETATM    4  C5  UNL     1      23.296   0.075  53.473  1.00  0.00     0.071 A 
HETATM    5  C6  UNL     1      24.501  -0.518  53.550  1.00  0.00     0.042 A 
HETATM    6  C7  UNL     1      25.523   0.004  52.790  1.00  0.00    -0.026 A 
HETATM    7  C8  UNL     1      26.833  -0.683  52.907  1.00  0.00     0.051 C 
HETATM    8  N1  UNL     1      22.327  -0.454  54.200  1.00  0.00    -0.259 NA
HETATM    9  C9  UNL     1      20.912  -0.638  53.919  1.00  0.00     0.138 C 
HETATM   10  C10 UNL     1      20.051   0.119  53.205  1.00  0.00     0.067 C 
HETATM   11  C11 UNL     1      18.838  -0.681  53.075  1.00  0.00     0.099 C 
HETATM   12  N2  UNL     1      17.855  -1.323  52.991  1.00  0.00    -0.192 NA
HETATM   13  C12 UNL     1      19.880   1.431  52.523  1.00  0.00     0.169 C 
HETATM   14  N3  UNL     1      20.867   2.399  52.979  1.00  0.00    -0.356 N 
HETATM   15  C13 UNL     1      22.101   1.992  52.331  1.00  0.00     0.152 C 
HETATM   16  O2  UNL     1      22.524   2.422  51.038  1.00  0.00    -0.331 OA
HETATM   17  C14 UNL     1      21.695   2.491  49.858  1.00  0.00     0.206 C 
HETATM   18  C15 UNL     1      20.342   1.956  50.045  1.00  0.00     0.017 C 
HETATM   19  C16 UNL     1      19.697   1.365  51.077  1.00  0.00     0.015 C 
HETATM   20 BR1  UNL     1      18.268   0.233  50.504  1.00  0.00    -0.053 Br
HETATM   21  H11 UNL     1      20.544   3.173  53.651  1.00  0.00     0.162 HD
ENDROOT
BRANCH   1  22
HETATM   22  O1  UNL     1      26.447   1.558  51.231  1.00  0.00    -0.355 OA
HETATM   23  C1  UNL     1      26.421   2.853  50.674  1.00  0.00     0.210 C 
ENDBRANCH   1  22
TORSDOF 1
ENDMDL
MODEL 3
REMARK VINA RESULT:      -7.5      2.122      3.806
REMARK  1 active torsions:
REMARK  status: ('A' for Active; 'I' for Inactive)
REMARK    1  A    between atoms: O1_2  and  C2_3 
ROOT
HETATM    1  C2  UNL     1      23.845   0.172  53.210  1.00  0.00     0.075 A 
HETATM    2  C3  UNL     1      24.332   1.421  52.891  1.00  0.00     0.055 A 
HETATM    3  C4  UNL     1      23.343   2.366  52.666  1.00  0.00     0.046 A 
HETATM    4  C5  UNL     1      21.948   2.144  52.735  1.00  0.00     0.071 A 
HETATM    5  C6  UNL     1      21.520   0.908  53.050  1.00  0.00     0.042 A 
HETATM    6  C7  UNL     1      22.470  -0.060  53.283  1.00  0.00    -0.026 A 
HETATM    7  C8  UNL     1      21.951  -1.408  53.626  1.00  0.00     0.051 C 
HETATM    8  N1  UNL     1      21.017   3.052  52.502  1.00  0.00    -0.259 NA
HETATM    9  C9  UNL     1      20.958   4.134  51.532  1.00  0.00     0.138 C 
HETATM   10  C10 UNL     1      21.937   4.912  51.022  1.00  0.00     0.067 C 
HETATM   11  C11 UNL     1      21.321   5.653  49.928  1.00  0.00     0.099 C 
HETATM   12  N2  UNL     1      20.812   6.264  49.058  1.00  0.00    -0.192 NA
HETATM   13  C12 UNL     1      23.371   5.289  51.158  1.00  0.00     0.169 C 
HETATM   14  N3  UNL     1      23.897   4.913  52.462  1.00  0.00    -0.356 N 
HETATM   15  C13 UNL     1      24.072   3.474  52.382  1.00  0.00     0.152 C 
HETATM   16  O2  UNL     1      25.247   2.820  51.906  1.00  0.00    -0.331 OA
HETATM   17  C14 UNL     1      25.990   3.176  50.720  1.00  0.00     0.206 C 
HETATM   18  C15 UNL     1      25.369   4.238  49.922  1.00  0.00     0.017 C 
HETATM   19  C16 UNL     1      24.219   4.943  50.022  1.00  0.00     0.015 C 
HETATM   20 BR1  UNL     1      23.611   5.611  48.340  1.00  0.00    -0.053 Br
HETATM   21  H11 UNL     1      24.050   5.690  53.190  1.00  0.00     0.162 HD
ENDROOT
BRANCH   1  22
HETATM   22  O1  UNL     1      24.716  -0.853  53.457  1.00  0.00    -0.355 OA
HETATM   23  C1  UNL     1      26.060  -0.739  53.047  1.00  0.00     0.210 C 
ENDBRANCH   1  22
TORSDOF 1
ENDMDL
MODEL 4
REMARK VINA RESULT:      -7.3      2.902      4.620
REMARK  1 active torsions:
REMARK  status: ('A' for Active; 'I' for Inactive)
REMARK    1  A    between atoms: O1_2  and  C2_3 
ROOT
HETATM    1  C2  UNL     1      26.729   1.336  52.557  1.00  0.00     0.075 A 
HETATM    2  C3  UNL     1      25.752   2.258  52.250  1.00  0.00     0.055 A 
HETATM    3  C4  UNL     1      24.461   1.781  52.411  1.00  0.00     0.046 A 
HETATM    4  C5  UNL     1      24.102   0.482  52.842  1.00  0.00     0.071 A 
HETATM    5  C6  UNL     1      25.090  -0.385  53.130  1.00  0.00     0.042 A 
HETATM    6  C7  UNL     1      26.388   0.051  52.985  1.00  0.00    -0.026 A 
HETATM    7  C8  UNL     1      27.444  -0.939  53.314  1.00  0.00     0.051 C 
HETATM    8  N1  UNL     1      22.866   0.036  52.975  1.00  0.00    -0.259 NA
HETATM    9  C9  UNL     1      21.671   0.277  52.180  1.00  0.00     0.138 C 
HETATM   10  C10 UNL     1      21.271   1.375  51.504  1.00  0.00     0.067 C 
HETATM   11  C11 UNL     1      20.124   0.952  50.710  1.00  0.00     0.099 C 
HETATM   12  N2  UNL     1      19.185   0.610  50.086  1.00  0.00    -0.192 NA
HETATM   13  C12 UNL     1      21.554   2.818  51.276  1.00  0.00     0.169 C 
HETATM   14  N3  UNL     1      22.387   3.371  52.334  1.00  0.00    -0.356 N 
HETATM   15  C13 UNL     1      23.716   2.856  52.056  1.00  0.00     0.152 C 
HETATM   16  O2  UNL     1      24.673   3.486  51.205  1.00  0.00    -0.331 OA
HETATM   17  C14 UNL     1      24.403   4.051  49.904  1.00  0.00     0.206 C 
HETATM   18  C15 UNL     1      23.034   3.830  49.428  1.00  0.00     0.017 C 
HETATM   19  C16 UNL     1      21.960   3.169  49.919  1.00  0.00     0.015 C 
HETATM   20 BR1  UNL     1      20.753   2.601  48.552  1.00  0.00    -0.053 Br
HETATM   21  H11 UNL     1      21.921   4.002  53.069  1.00  0.00     0.162 HD
ENDROOT
BRANCH   1  22
HETATM   22  O1  UNL     1      28.047   1.680  52.442  1.00  0.00    -0.355 OA
HETATM   23  C1  UNL     1      28.660   2.440  53.458  1.00  0.00     0.210 C 
ENDBRANCH   1  22
TORSDOF 1
ENDMDL
MODEL 5
REMARK VINA RESULT:      -7.3      3.676      5.959
REMARK  1 active torsions:
REMARK  status: ('A' for Active; 'I' for Inactive)
REMARK    1  A    between atoms: O1_2  and  C2_3 
ROOT
HETATM    1  C2  UNL     1      24.864   5.377  49.555  1.00  0.00     0.075 A 
HETATM    2  C3  UNL     1      25.430   6.463  48.922  1.00  0.00     0.055 A 
HETATM    3  C4  UNL     1      26.734   6.250  48.505  1.00  0.00     0.046 A 
HETATM    4  C5  UNL     1      27.479   5.061  48.679  1.00  0.00     0.071 A 
HETATM    5  C6  UNL     1      26.885   4.027  49.303  1.00  0.00     0.042 A 
HETATM    6  C7  UNL     1      25.588   4.197  49.732  1.00  0.00    -0.026 A 
HETATM    7  C8  UNL     1      24.974   3.031  50.416  1.00  0.00     0.051 C 
HETATM    8  N1  UNL     1      28.729   4.878  48.290  1.00  0.00    -0.259 NA
HETATM    9  C9  UNL     1      29.869   5.781  48.279  1.00  0.00     0.138 C 
HETATM   10  C10 UNL     1      29.933   7.115  48.078  1.00  0.00     0.067 C 
HETATM   11  C11 UNL     1      31.297   7.500  48.418  1.00  0.00     0.099 C 
HETATM   12  N2  UNL     1      32.406   7.802  48.675  1.00  0.00    -0.192 NA
HETATM   13  C12 UNL     1      29.152   8.306  47.645  1.00  0.00     0.169 C 
HETATM   14  N3  UNL     1      27.957   7.921  46.909  1.00  0.00    -0.356 N 
HETATM   15  C13 UNL     1      27.043   7.437  47.928  1.00  0.00     0.152 C 
HETATM   16  O2  UNL     1      26.127   8.254  48.656  1.00  0.00    -0.331 OA
HETATM   17  C14 UNL     1      26.425   9.535  49.249  1.00  0.00     0.206 C 
HETATM   18  C15 UNL     1      27.836   9.923  49.156  1.00  0.00     0.017 C 
HETATM   19  C16 UNL     1      28.948   9.326  48.669  1.00  0.00     0.015 C 
HETATM   20 BR1  UNL     1      30.550   9.961  49.493  1.00  0.00    -0.053 Br
HETATM   21  H11 UNL     1      27.957   8.046  45.841  1.00  0.00     0.162 HD
ENDROOT
BRANCH   1  22
HETATM   22  O1  UNL     1      23.579   5.455  50.016  1.00  0.00    -0.355 OA
HETATM   23  C1  UNL     1      23.160   6.601  50.722  1.00  0.00     0.210 C 
ENDBRANCH   1  22
TORSDOF 1
ENDMDL
MODEL 6
REMARK VINA RESULT:      -7.1      2.349      3.135
REMARK  1 active torsions:
REMARK  status: ('A' for Active; 'I' for Inactive)
REMARK    1  A    between atoms: O1_2  and  C2_3 
ROOT
HETATM    1  C2  UNL     1      20.947  -0.089  52.922  1.00  0.00     0.075 A 
HETATM    2  C3  UNL     1      20.949   0.589  51.721  1.00  0.00     0.055 A 
HETATM    3  C4  UNL     1      22.198   1.057  51.345  1.00  0.00     0.046 A 
HETATM    4  C5  UNL     1      23.400   0.896  52.072  1.00  0.00     0.071 A 
HETATM    5  C6  UNL     1      23.349   0.228  53.239  1.00  0.00     0.042 A 
HETATM    6  C7  UNL     1      22.127  -0.255  53.649  1.00  0.00    -0.026 A 
HETATM    7  C8  UNL     1      22.120  -0.986  54.941  1.00  0.00     0.051 C 
HETATM    8  N1  UNL     1      24.581   1.364  51.708  1.00  0.00    -0.259 NA
HETATM    9  C9  UNL     1      24.958   2.604  51.048  1.00  0.00     0.138 C 
HETATM   10  C10 UNL     1      24.308   3.339  50.120  1.00  0.00     0.067 C 
HETATM   11  C11 UNL     1      25.053   4.587  50.013  1.00  0.00     0.099 C 
HETATM   12  N2  UNL     1      25.671   5.586  49.917  1.00  0.00    -0.192 NA
HETATM   13  C12 UNL     1      23.149   3.347  49.185  1.00  0.00     0.169 C 
HETATM   14  N3  UNL     1      22.647   2.001  48.949  1.00  0.00    -0.356 N 
HETATM   15  C13 UNL     1      21.926   1.664  50.164  1.00  0.00     0.152 C 
HETATM   16  O2  UNL     1      20.550   1.956  50.403  1.00  0.00    -0.331 OA
HETATM   17  C14 UNL     1      19.891   3.209  50.123  1.00  0.00     0.206 C 
HETATM   18  C15 UNL     1      20.792   4.267  49.656  1.00  0.00     0.017 C 
HETATM   19  C16 UNL     1      22.128   4.351  49.465  1.00  0.00     0.015 C 
HETATM   20 BR1  UNL     1      22.781   6.142  49.581  1.00  0.00    -0.053 Br
HETATM   21  H11 UNL     1      22.874   1.534  48.008  1.00  0.00     0.162 HD
ENDROOT
BRANCH   1  22
HETATM   22  O1  UNL     1      19.777  -0.604  53.408  1.00  0.00    -0.355 OA
HETATM   23  C1  UNL     1      18.611  -0.550  52.619  1.00  0.00     0.210 C 
ENDBRANCH   1  22
TORSDOF 1
ENDMDL
MODEL 7
REMARK VINA RESULT:      -7.0      5.913      8.045
REMARK  1 active torsions:
REMARK  status: ('A' for Active; 'I' for Inactive)
REMARK    1  A    between atoms: O1_2  and  C2_3 
ROOT
HETATM    1  C2  UNL     1      32.407   5.001  48.229  1.00  0.00     0.075 A 
HETATM    2  C3  UNL     1      31.134   5.338  47.822  1.00  0.00     0.055 A 
HETATM    3  C4  UNL     1      30.925   6.704  47.714  1.00  0.00     0.046 A 
HETATM    4  C5  UNL     1      31.877   7.715  47.982  1.00  0.00     0.071 A 
HETATM    5  C6  UNL     1      33.107   7.337  48.377  1.00  0.00     0.042 A 
HETATM    6  C7  UNL     1      33.357   5.989  48.495  1.00  0.00    -0.026 A 
HETATM    7  C8  UNL     1      34.726   5.620  48.933  1.00  0.00     0.051 C 
HETATM    8  N1  UNL     1      31.658   9.015  47.890  1.00  0.00    -0.259 NA
HETATM    9  C9  UNL     1      30.484   9.812  48.210  1.00  0.00     0.138 C 
HETATM   10  C10 UNL     1      29.170   9.518  48.119  1.00  0.00     0.067 C 
HETATM   11  C11 UNL     1      28.475  10.604  48.799  1.00  0.00     0.099 C 
HETATM   12  N2  UNL     1      27.918  11.495  49.332  1.00  0.00    -0.192 NA
HETATM   13  C12 UNL     1      28.191   8.527  47.593  1.00  0.00     0.169 C 
HETATM   14  N3  UNL     1      28.788   7.682  46.569  1.00  0.00    -0.356 N 
HETATM   15  C13 UNL     1      29.633   6.760  47.307  1.00  0.00     0.152 C 
HETATM   16  O2  UNL     1      29.202   5.513  47.848  1.00  0.00    -0.331 OA
HETATM   17  C14 UNL     1      27.978   5.287  48.579  1.00  0.00     0.206 C 
HETATM   18  C15 UNL     1      27.210   6.506  48.850  1.00  0.00     0.017 C 
HETATM   19  C16 UNL     1      27.410   7.821  48.604  1.00  0.00     0.015 C 
HETATM   20 BR1  UNL     1      26.476   8.954  49.825  1.00  0.00    -0.053 Br
HETATM   21  H11 UNL     1      28.527   7.867  45.543  1.00  0.00     0.162 HD
ENDROOT
BRANCH   1  22
HETATM   22  O1  UNL     1      32.745   3.683  48.375  1.00  0.00    -0.355 OA
HETATM   23  C1  UNL     1      32.827   2.855  47.238  1.00  0.00     0.210 C 
ENDBRANCH   1  22
TORSDOF 1
ENDMDL
MODEL 8
REMARK VINA RESULT:      -6.9      3.548      5.939
REMARK  1 active torsions:
REMARK  status: ('A' for Active; 'I' for Inactive)
REMARK    1  A    between atoms: O1_2  and  C2_3 
ROOT
HETATM    1  C2  UNL     1      27.210   7.563  48.983  1.00  0.00     0.075 A 
HETATM    2  C3  UNL     1      26.105   7.433  49.796  1.00  0.00     0.055 A 
HETATM    3  C4  UNL     1      25.690   6.122  49.969  1.00  0.00     0.046 A 
HETATM    4  C5  UNL     1      26.290   4.977  49.396  1.00  0.00     0.071 A 
HETATM    5  C6  UNL     1      27.367   5.154  48.608  1.00  0.00     0.042 A 
HETATM    6  C7  UNL     1      27.813   6.441  48.412  1.00  0.00    -0.026 A 
HETATM    7  C8  UNL     1      29.002   6.587  47.536  1.00  0.00     0.051 C 
HETATM    8  N1  UNL     1      25.872   3.733  49.557  1.00  0.00    -0.259 NA
HETATM    9  C9  UNL     1      24.530   3.180  49.653  1.00  0.00     0.138 C 
HETATM   10  C10 UNL     1      23.401   3.697  50.184  1.00  0.00     0.067 C 
HETATM   11  C11 UNL     1      22.328   2.798  49.780  1.00  0.00     0.099 C 
HETATM   12  N2  UNL     1      21.468   2.056  49.467  1.00  0.00    -0.192 NA
HETATM   13  C12 UNL     1      22.859   4.811  51.009  1.00  0.00     0.169 C 
HETATM   14  N3  UNL     1      23.910   5.470  51.770  1.00  0.00    -0.356 N 
HETATM   15  C13 UNL     1      24.621   6.271  50.789  1.00  0.00     0.152 C 
HETATM   16  O2  UNL     1      24.278   7.608  50.425  1.00  0.00    -0.331 OA
HETATM   17  C14 UNL     1      22.947   8.093  50.151  1.00  0.00     0.206 C 
HETATM   18  C15 UNL     1      21.917   7.050  50.156  1.00  0.00     0.017 C 
HETATM   19  C16 UNL     1      21.935   5.707  50.321  1.00  0.00     0.015 C 
HETATM   20 BR1  UNL     1      20.452   4.839  49.488  1.00  0.00    -0.053 Br
HETATM   21  H11 UNL     1      23.975   5.270  52.824  1.00  0.00     0.162 HD
ENDROOT
BRANCH   1  22
HETATM   22  O1  UNL     1      27.723   8.806  48.730  1.00  0.00    -0.355 OA
HETATM   23  C1  UNL     1      27.937   9.701  49.797  1.00  0.00     0.210 C 
ENDBRANCH   1  22
TORSDOF 1
ENDMDL
MODEL 9
REMARK VINA RESULT:      -6.8      6.578      8.784
REMARK  1 active torsions:
REMARK  status: ('A' for Active; 'I' for Inactive)
REMARK    1  A    between atoms: O1_2  and  C2_3 
ROOT
HETATM    1  C2  UNL     1      33.044   6.718  47.560  1.00  0.00     0.075 A 
HETATM    2  C3  UNL     1      32.180   7.675  48.046  1.00  0.00     0.055 A 
HETATM    3  C4  UNL     1      30.916   7.189  48.341  1.00  0.00     0.046 A 
HETATM    4  C5  UNL     1      30.480   5.854  48.180  1.00  0.00     0.071 A 
HETATM    5  C6  UNL     1      31.359   4.954  47.701  1.00  0.00     0.042 A 
HETATM    6  C7  UNL     1      32.627   5.396  47.397  1.00  0.00    -0.026 A 
HETATM    7  C8  UNL     1      33.561   4.369  46.872  1.00  0.00     0.051 C 
HETATM    8  N1  UNL     1      29.265   5.409  48.449  1.00  0.00    -0.259 NA
HETATM    9  C9  UNL     1      27.959   6.026  48.274  1.00  0.00     0.138 C 
HETATM   10  C10 UNL     1      27.578   7.318  48.366  1.00  0.00     0.067 C 
HETATM   11  C11 UNL     1      26.212   7.362  47.857  1.00  0.00     0.099 C 
HETATM   12  N2  UNL     1      25.102   7.389  47.464  1.00  0.00    -0.192 NA
HETATM   13  C12 UNL     1      28.017   8.677  48.786  1.00  0.00     0.169 C 
HETATM   14  N3  UNL     1      29.172   8.613  49.670  1.00  0.00    -0.356 N 
HETATM   15  C13 UNL     1      30.285   8.302  48.791  1.00  0.00     0.152 C 
HETATM   16  O2  UNL     1      31.076   9.270  48.103  1.00  0.00    -0.331 OA
HETATM   17  C14 UNL     1      30.573  10.417  47.386  1.00  0.00     0.206 C 
HETATM   18  C15 UNL     1      29.110  10.475  47.303  1.00  0.00     0.017 C 
HETATM   19  C16 UNL     1      28.109   9.664  47.715  1.00  0.00     0.015 C 
HETATM   20 BR1  UNL     1      26.515   9.872  46.683  1.00  0.00    -0.053 Br
HETATM   21  H11 UNL     1      29.017   8.788  50.719  1.00  0.00     0.162 HD
ENDROOT
BRANCH   1  22
HETATM   22  O1  UNL     1      34.326   7.065  47.230  1.00  0.00    -0.355 OA
HETATM   23  C1  UNL     1      35.151   7.676  48.195  1.00  0.00     0.210 C 
ENDBRANCH   1  22
TORSDOF 1
ENDMDL
